# DDEC6 charges by PACMAN v1.1 (https://github.com/mtap-research/PACMAN-charge/)
data_2010[Cd][nuc]3[ION]4
_chemical_formula_sum              "Cd4 H144 C192 N48 Cl4 O16"
_cell_length_a       15.8318
_cell_length_b       15.8318
_cell_length_c       21.957
_cell_angle_alpha    90
_cell_angle_beta     90
_cell_angle_gamma    90

_symmetry_space_group_name_H-M    "P 1"
_symmetry_Int_Tables_number       1

loop_
  _symmetry_equiv_pos_as_xyz
  'x, y, z'

loop_
  _atom_site_type_symbol
  _atom_site_label
  _atom_site_symmetry_multiplicity
  _atom_site_fract_x
  _atom_site_fract_y
  _atom_site_fract_z
  _atom_site_occupancy
  _atom_site_charge
Cd  Cd1       1.0  0.05741  0.94259  0.25000  1.0000 0.6490362356
Cd  Cd2       1.0  0.94259  0.05741  0.75000  1.0000 0.6490362356
Cd  Cd3       1.0  0.55741  0.55741  0.50000  1.0000 0.6490362356
Cd  Cd4       1.0  0.44259  0.44259  0.00000  1.0000 0.6490362356
H   H1        1.0  0.53500  0.61150  0.35030  1.0000 0.109744294
H   H2        1.0  0.46500  0.38850  0.85030  1.0000 0.109744294
H   H3        1.0  0.88850  0.03500  0.60030  1.0000 0.109744294
H   H4        1.0  0.11150  0.96500  0.10030  1.0000 0.109744294
H   H5        1.0  0.96500  0.11150  0.89970  1.0000 0.109744294
H   H6        1.0  0.03500  0.88850  0.39970  1.0000 0.109744294
H   H7        1.0  0.61150  0.53500  0.64970  1.0000 0.109744294
H   H8        1.0  0.38850  0.46500  0.14970  1.0000 0.109744294
H   H9        1.0  0.58220  0.71450  0.28740  1.0000 0.1317755082
H   H10       1.0  0.41780  0.28550  0.78740  1.0000 0.1317755082
H   H11       1.0  0.78550  0.08220  0.53740  1.0000 0.1317755082
H   H12       1.0  0.21450  0.91780  0.03740  1.0000 0.1317755082
H   H13       1.0  0.91780  0.21450  0.96260  1.0000 0.1317755082
H   H14       1.0  0.08220  0.78550  0.46260  1.0000 0.1317755082
H   H15       1.0  0.71450  0.58220  0.71260  1.0000 0.1317755082
H   H16       1.0  0.28550  0.41780  0.21260  1.0000 0.1317755082
H   H17       1.0  0.78320  0.74120  0.39570  1.0000 0.1317755082
H   H18       1.0  0.21680  0.25880  0.89570  1.0000 0.1317755082
H   H19       1.0  0.75880  0.28320  0.64570  1.0000 0.1317755082
H   H20       1.0  0.24120  0.71680  0.14570  1.0000 0.1317755082
H   H21       1.0  0.71680  0.24120  0.85430  1.0000 0.1317755082
H   H22       1.0  0.28320  0.75880  0.35430  1.0000 0.1317755082
H   H23       1.0  0.74120  0.78320  0.60430  1.0000 0.1317755082
H   H24       1.0  0.25880  0.21680  0.10430  1.0000 0.1317755082
H   H25       1.0  0.72650  0.63970  0.45800  1.0000 0.098318096
H   H26       1.0  0.27350  0.36030  0.95800  1.0000 0.098318096
H   H27       1.0  0.86030  0.22650  0.70800  1.0000 0.098318096
H   H28       1.0  0.13970  0.77350  0.20800  1.0000 0.098318096
H   H29       1.0  0.77350  0.13970  0.79200  1.0000 0.098318096
H   H30       1.0  0.22650  0.86030  0.29200  1.0000 0.098318096
H   H31       1.0  0.63970  0.72650  0.54200  1.0000 0.098318096
H   H32       1.0  0.36030  0.27350  0.04200  1.0000 0.098318096
H   H33       1.0  0.65290  0.79580  0.22030  1.0000 0.098318096
H   H34       1.0  0.34710  0.20420  0.72030  1.0000 0.098318096
H   H35       1.0  0.70420  0.15290  0.47030  1.0000 0.098318096
H   H36       1.0  0.29580  0.84710  0.97030  1.0000 0.098318096
H   H37       1.0  0.84710  0.29580  0.02970  1.0000 0.098318096
H   H38       1.0  0.15290  0.70420  0.52970  1.0000 0.098318096
H   H39       1.0  0.79580  0.65290  0.77970  1.0000 0.098318096
H   H40       1.0  0.20420  0.34710  0.27970  1.0000 0.098318096
H   H41       1.0  0.70430  0.90810  0.16670  1.0000 0.109744294
H   H42       1.0  0.29570  0.09190  0.66667  1.0000 0.109744294
H   H43       1.0  0.59190  0.20430  0.41670  1.0000 0.109744294
H   H44       1.0  0.40810  0.79570  0.91670  1.0000 0.109744294
H   H45       1.0  0.79570  0.40810  0.08330  1.0000 0.109744294
H   H46       1.0  0.20430  0.59190  0.58330  1.0000 0.109744294
H   H47       1.0  0.90810  0.70430  0.83330  1.0000 0.109744294
H   H48       1.0  0.09190  0.29570  0.33333  1.0000 0.109744294
H   H49       1.0  0.80170  0.99840  0.20730  1.0000 0.109744294
H   H50       1.0  0.19830  0.00160  0.70730  1.0000 0.109744294
H   H51       1.0  0.50160  0.30170  0.45730  1.0000 0.109744294
H   H52       1.0  0.49840  0.69830  0.95730  1.0000 0.109744294
H   H53       1.0  0.69830  0.49840  0.04270  1.0000 0.109744294
H   H54       1.0  0.30170  0.50160  0.54270  1.0000 0.109744294
H   H55       1.0  0.99840  0.80170  0.79270  1.0000 0.109744294
H   H56       1.0  0.00160  0.19830  0.29270  1.0000 0.109744294
H   H57       1.0  0.79440  0.86510  0.36340  1.0000 0.109744294
H   H58       1.0  0.20560  0.13490  0.86340  1.0000 0.109744294
H   H59       1.0  0.63490  0.29440  0.61340  1.0000 0.109744294
H   H60       1.0  0.36510  0.70560  0.11340  1.0000 0.109744294
H   H61       1.0  0.70560  0.36510  0.88660  1.0000 0.109744294
H   H62       1.0  0.29440  0.63490  0.38660  1.0000 0.109744294
H   H63       1.0  0.86510  0.79440  0.63660  1.0000 0.109744294
H   H64       1.0  0.13490  0.20560  0.13660  1.0000 0.109744294
H   H65       1.0  0.04200  0.11780  0.46010  1.0000 0.109744294
H   H66       1.0  0.95800  0.88220  0.96010  1.0000 0.109744294
H   H67       1.0  0.38220  0.54200  0.71010  1.0000 0.109744294
H   H68       1.0  0.61780  0.45800  0.21010  1.0000 0.109744294
H   H69       1.0  0.45800  0.61780  0.78990  1.0000 0.109744294
H   H70       1.0  0.54200  0.38220  0.28990  1.0000 0.109744294
H   H71       1.0  0.11780  0.04200  0.53990  1.0000 0.109744294
H   H72       1.0  0.88220  0.95800  0.03990  1.0000 0.109744294
H   H73       1.0  0.06200  0.22890  0.52730  1.0000 0.109744294
H   H74       1.0  0.93800  0.77110  0.02730  1.0000 0.109744294
H   H75       1.0  0.27110  0.56200  0.77730  1.0000 0.109744294
H   H76       1.0  0.72890  0.43800  0.27730  1.0000 0.109744294
H   H77       1.0  0.43800  0.72890  0.72270  1.0000 0.109744294
H   H78       1.0  0.56200  0.27110  0.22270  1.0000 0.109744294
H   H79       1.0  0.22890  0.06200  0.47270  1.0000 0.109744294
H   H80       1.0  0.77110  0.93800  0.97270  1.0000 0.109744294
H   H81       1.0  0.95970  0.33040  0.53910  1.0000 0.109744294
H   H82       1.0  0.04030  0.66960  0.03910  1.0000 0.109744294
H   H83       1.0  0.16960  0.45970  0.78910  1.0000 0.109744294
H   H84       1.0  0.83040  0.54030  0.28910  1.0000 0.109744294
H   H85       1.0  0.54030  0.83040  0.71090  1.0000 0.109744294
H   H86       1.0  0.45970  0.16960  0.21090  1.0000 0.109744294
H   H87       1.0  0.33040  0.95970  0.46090  1.0000 0.109744294
H   H88       1.0  0.66960  0.04030  0.96090  1.0000 0.109744294
H   H89       1.0  0.82610  0.22360  0.40510  1.0000 0.109744294
H   H90       1.0  0.17390  0.77640  0.90510  1.0000 0.109744294
H   H91       1.0  0.27640  0.32610  0.65510  1.0000 0.109744294
H   H92       1.0  0.72360  0.67390  0.15510  1.0000 0.109744294
H   H93       1.0  0.67390  0.72360  0.84490  1.0000 0.109744294
H   H94       1.0  0.32610  0.27640  0.34490  1.0000 0.109744294
H   H95       1.0  0.22360  0.82610  0.59490  1.0000 0.109744294
H   H96       1.0  0.77640  0.17390  0.09490  1.0000 0.109744294
H   H97       1.0  0.84430  0.39490  0.56290  1.0000 0.1317755082
H   H98       1.0  0.15570  0.60510  0.06290  1.0000 0.1317755082
H   H99       1.0  0.10510  0.34430  0.81290  1.0000 0.1317755082
H   H100      1.0  0.89490  0.65570  0.31290  1.0000 0.1317755082
H   H101      1.0  0.65570  0.89490  0.68710  1.0000 0.1317755082
H   H102      1.0  0.34430  0.10510  0.18710  1.0000 0.1317755082
H   H103      1.0  0.39490  0.84430  0.43710  1.0000 0.1317755082
H   H104      1.0  0.60510  0.15570  0.93710  1.0000 0.1317755082
H   H105      1.0  0.73350  0.48810  0.57240  1.0000 0.098318096
H   H106      1.0  0.26650  0.51190  0.07240  1.0000 0.098318096
H   H107      1.0  0.01190  0.23350  0.82240  1.0000 0.098318096
H   H108      1.0  0.98810  0.76650  0.32240  1.0000 0.098318096
H   H109      1.0  0.76650  0.98810  0.67760  1.0000 0.098318096
H   H110      1.0  0.23350  0.01190  0.17760  1.0000 0.098318096
H   H111      1.0  0.48810  0.73350  0.42760  1.0000 0.098318096
H   H112      1.0  0.51190  0.26650  0.92760  1.0000 0.098318096
H   H113      1.0  0.66270  0.44360  0.40640  1.0000 0.098318096
H   H114      1.0  0.33730  0.55640  0.90640  1.0000 0.098318096
H   H115      1.0  0.05640  0.16270  0.65640  1.0000 0.098318096
H   H116      1.0  0.94360  0.83730  0.15640  1.0000 0.098318096
H   H117      1.0  0.83730  0.94360  0.84360  1.0000 0.098318096
H   H118      1.0  0.16270  0.05640  0.34360  1.0000 0.098318096
H   H119      1.0  0.44360  0.66270  0.59360  1.0000 0.098318096
H   H120      1.0  0.55640  0.33730  0.09360  1.0000 0.098318096
H   H121      1.0  0.76750  0.34950  0.39230  1.0000 0.1317755082
H   H122      1.0  0.23250  0.65050  0.89230  1.0000 0.1317755082
H   H123      1.0  0.15050  0.26750  0.64230  1.0000 0.1317755082
H   H124      1.0  0.84950  0.73250  0.14230  1.0000 0.1317755082
H   H125      1.0  0.73250  0.84950  0.85770  1.0000 0.1317755082
H   H126      1.0  0.26750  0.15050  0.35770  1.0000 0.1317755082
H   H127      1.0  0.34950  0.76750  0.60770  1.0000 0.1317755082
H   H128      1.0  0.65050  0.23250  0.10770  1.0000 0.1317755082
H   H129      1.0  0.74250  0.02330  0.39100  1.0000 0.2570762108
H   H130      1.0  0.25750  0.97670  0.89100  1.0000 0.2570762108
H   H131      1.0  0.47670  0.24250  0.64100  1.0000 0.2570762108
H   H132      1.0  0.52330  0.75750  0.14100  1.0000 0.2570762108
H   H133      1.0  0.75750  0.52330  0.85900  1.0000 0.2570762108
H   H134      1.0  0.24250  0.47670  0.35900  1.0000 0.2570762108
H   H135      1.0  0.02330  0.74250  0.60900  1.0000 0.2570762108
H   H136      1.0  0.97670  0.25750  0.10900  1.0000 0.2570762108
H   H137      1.0  0.73940  0.09960  0.35430  1.0000 0.2470661918
H   H138      1.0  0.26060  0.90040  0.85430  1.0000 0.2470661918
H   H139      1.0  0.40040  0.23940  0.60430  1.0000 0.2470661918
H   H140      1.0  0.59960  0.76060  0.10430  1.0000 0.2470661918
H   H141      1.0  0.76060  0.59960  0.89570  1.0000 0.2470661918
H   H142      1.0  0.23940  0.40040  0.39570  1.0000 0.2470661918
H   H143      1.0  0.09960  0.73940  0.64570  1.0000 0.2470661918
H   H144      1.0  0.90040  0.26060  0.14570  1.0000 0.2470661918
C   C1        1.0  0.58380  0.64070  0.36100  1.0000 0.0577758174
C   C2        1.0  0.41620  0.35930  0.86100  1.0000 0.0577758174
C   C3        1.0  0.85930  0.08380  0.61100  1.0000 0.0577758174
C   C4        1.0  0.14070  0.91620  0.11100  1.0000 0.0577758174
C   C5        1.0  0.91620  0.14070  0.88900  1.0000 0.0577758174
C   C6        1.0  0.08380  0.85930  0.38900  1.0000 0.0577758174
C   C7        1.0  0.64070  0.58380  0.63900  1.0000 0.0577758174
C   C8        1.0  0.35930  0.41620  0.13900  1.0000 0.0577758174
C   C9        1.0  0.61240  0.70180  0.32260  1.0000 -0.1995393844
C   C10       1.0  0.38760  0.29820  0.82260  1.0000 -0.1995393844
C   C11       1.0  0.79820  0.11240  0.57260  1.0000 -0.1995393844
C   C12       1.0  0.20180  0.88760  0.07260  1.0000 -0.1995393844
C   C13       1.0  0.88760  0.20180  0.92740  1.0000 -0.1995393844
C   C14       1.0  0.11240  0.79820  0.42740  1.0000 -0.1995393844
C   C15       1.0  0.70180  0.61240  0.67740  1.0000 -0.1995393844
C   C16       1.0  0.29820  0.38760  0.17740  1.0000 -0.1995393844
C   C17       1.0  0.68710  0.74580  0.33550  1.0000 0.109744294
C   C18       1.0  0.31290  0.25420  0.83550  1.0000 0.109744294
C   C19       1.0  0.75420  0.18710  0.58550  1.0000 0.109744294
C   C20       1.0  0.24580  0.81290  0.08550  1.0000 0.109744294
C   C21       1.0  0.81290  0.24580  0.91450  1.0000 0.109744294
C   C22       1.0  0.18710  0.75420  0.41450  1.0000 0.109744294
C   C23       1.0  0.74580  0.68710  0.66450  1.0000 0.109744294
C   C24       1.0  0.25420  0.31290  0.16450  1.0000 0.109744294
C   C25       1.0  0.73060  0.71820  0.38650  1.0000 -0.1995393844
C   C26       1.0  0.26940  0.28180  0.88650  1.0000 -0.1995393844
C   C27       1.0  0.78180  0.23060  0.63650  1.0000 -0.1995393844
C   C28       1.0  0.21820  0.76940  0.13650  1.0000 -0.1995393844
C   C29       1.0  0.76940  0.21820  0.86350  1.0000 -0.1995393844
C   C30       1.0  0.23060  0.78180  0.36350  1.0000 -0.1995393844
C   C31       1.0  0.71820  0.73060  0.61350  1.0000 -0.1995393844
C   C32       1.0  0.28180  0.26940  0.11350  1.0000 -0.1995393844
C   C33       1.0  0.69630  0.65650  0.42380  1.0000 0.0486589765
C   C34       1.0  0.30370  0.34350  0.92380  1.0000 0.0446938234
C   C35       1.0  0.84350  0.19630  0.67380  1.0000 0.0486589765
C   C36       1.0  0.15650  0.80370  0.17380  1.0000 0.0446938234
C   C37       1.0  0.80370  0.15650  0.82620  1.0000 0.0486589765
C   C38       1.0  0.19630  0.84350  0.32620  1.0000 0.0446938234
C   C39       1.0  0.65650  0.69630  0.57620  1.0000 0.0486589765
C   C40       1.0  0.34350  0.30370  0.07620  1.0000 0.0446938234
C   C41       1.0  0.71860  0.81740  0.29800  1.0000 0.0685199602
C   C42       1.0  0.28140  0.18260  0.79800  1.0000 0.0685199602
C   C43       1.0  0.68260  0.21860  0.54800  1.0000 0.0685199602
C   C44       1.0  0.31740  0.78140  0.04800  1.0000 0.0685199602
C   C45       1.0  0.78140  0.31740  0.95200  1.0000 0.0685199602
C   C46       1.0  0.21860  0.68260  0.45200  1.0000 0.0685199602
C   C47       1.0  0.81740  0.71860  0.70200  1.0000 0.0685199602
C   C48       1.0  0.18260  0.28140  0.20200  1.0000 0.0685199602
C   C49       1.0  0.69200  0.83180  0.23830  1.0000 -0.1678930526
C   C50       1.0  0.30800  0.16820  0.73830  1.0000 -0.1678930526
C   C51       1.0  0.66820  0.19200  0.48830  1.0000 -0.1678930526
C   C52       1.0  0.33180  0.80800  0.98830  1.0000 -0.1678930526
C   C53       1.0  0.80800  0.33180  0.01170  1.0000 -0.1678930526
C   C54       1.0  0.19200  0.66820  0.51170  1.0000 -0.1678930526
C   C55       1.0  0.83180  0.69200  0.76170  1.0000 -0.1678930526
C   C56       1.0  0.16820  0.30800  0.26170  1.0000 -0.1678930526
C   C57       1.0  0.72330  0.89910  0.20630  1.0000 -0.0968753551
C   C58       1.0  0.27670  0.10090  0.70630  1.0000 -0.0968753551
C   C59       1.0  0.60090  0.22330  0.45630  1.0000 -0.0968753551
C   C60       1.0  0.39910  0.77670  0.95630  1.0000 -0.0968753551
C   C61       1.0  0.77670  0.39910  0.04370  1.0000 -0.0968753551
C   C62       1.0  0.22330  0.60090  0.54370  1.0000 -0.0968753551
C   C63       1.0  0.89910  0.72330  0.79370  1.0000 -0.0968753551
C   C64       1.0  0.10090  0.27670  0.29370  1.0000 -0.0968753551
C   C65       1.0  0.78130  0.95330  0.23020  1.0000 -0.1579127967
C   C66       1.0  0.21870  0.04670  0.73020  1.0000 -0.1579127967
C   C67       1.0  0.54670  0.28130  0.48020  1.0000 -0.1579127967
C   C68       1.0  0.45330  0.71870  0.98020  1.0000 -0.1579127967
C   C69       1.0  0.71870  0.45330  0.01980  1.0000 -0.1579127967
C   C70       1.0  0.28130  0.54670  0.51980  1.0000 -0.1579127967
C   C71       1.0  0.95330  0.78130  0.76980  1.0000 -0.1579127967
C   C72       1.0  0.04670  0.21870  0.26980  1.0000 -0.1579127967
C   C73       1.0  0.81000  0.93970  0.29040  1.0000 0.0142312911
C   C74       1.0  0.19000  0.06030  0.79040  1.0000 0.0142312911
C   C75       1.0  0.56030  0.31000  0.54040  1.0000 0.0142312911
C   C76       1.0  0.43970  0.69000  0.04040  1.0000 0.0142312911
C   C77       1.0  0.69000  0.43970  0.95960  1.0000 0.0142312911
C   C78       1.0  0.31000  0.56030  0.45960  1.0000 0.0142312911
C   C79       1.0  0.93970  0.81000  0.70960  1.0000 0.0142312911
C   C80       1.0  0.06030  0.19000  0.20960  1.0000 0.0142312911
C   C81       1.0  0.77710  0.87300  0.32330  1.0000 -0.1907322952
C   C82       1.0  0.22290  0.12700  0.82330  1.0000 -0.1907322952
C   C83       1.0  0.62700  0.27710  0.57330  1.0000 -0.1907322952
C   C84       1.0  0.37300  0.72290  0.07330  1.0000 -0.1907322952
C   C85       1.0  0.72290  0.37300  0.92670  1.0000 -0.1907322952
C   C86       1.0  0.27710  0.62700  0.42670  1.0000 -0.1907322952
C   C87       1.0  0.87300  0.77710  0.67670  1.0000 -0.1907322952
C   C88       1.0  0.12700  0.22290  0.17670  1.0000 -0.1907322952
C   C89       1.0  0.87220  0.99600  0.31930  1.0000 0.1867250348
C   C90       1.0  0.12780  0.00400  0.81930  1.0000 0.1867250348
C   C91       1.0  0.50400  0.37220  0.56930  1.0000 0.1867250348
C   C92       1.0  0.49600  0.62780  0.06930  1.0000 0.1867250348
C   C93       1.0  0.62780  0.49600  0.93070  1.0000 0.1867250348
C   C94       1.0  0.37220  0.50400  0.43070  1.0000 0.1867250348
C   C95       1.0  0.99600  0.87220  0.68070  1.0000 0.1867250348
C   C96       1.0  0.00400  0.12780  0.18070  1.0000 0.1867250348
C   C97       1.0  0.92330  0.09120  0.38210  1.0000 0.1827700413
C   C98       1.0  0.07670  0.90880  0.88210  1.0000 0.1827700413
C   C99       1.0  0.40880  0.42330  0.63210  1.0000 0.1827700413
C   C100      1.0  0.59120  0.57670  0.13210  1.0000 0.1827700413
C   C101      1.0  0.57670  0.59120  0.86790  1.0000 0.1827700413
C   C102      1.0  0.42330  0.40880  0.36790  1.0000 0.1827700413
C   C103      1.0  0.09120  0.92330  0.61790  1.0000 0.1827700413
C   C104      1.0  0.90880  0.07670  0.11790  1.0000 0.1827700413
C   C105      1.0  0.93080  0.16000  0.42550  1.0000 0.0346209365
C   C106      1.0  0.06920  0.84000  0.92550  1.0000 0.0346209365
C   C107      1.0  0.34000  0.43080  0.67550  1.0000 0.0346209365
C   C108      1.0  0.66000  0.56920  0.17550  1.0000 0.0346209365
C   C109      1.0  0.56920  0.66000  0.82450  1.0000 0.0346209365
C   C110      1.0  0.43080  0.34000  0.32450  1.0000 0.0346209365
C   C111      1.0  0.16000  0.93080  0.57450  1.0000 0.0346209365
C   C112      1.0  0.84000  0.06920  0.07450  1.0000 0.0346209365
C   C113      1.0  0.00230  0.16090  0.46270  1.0000 -0.1483428889
C   C114      1.0  0.99770  0.83910  0.96270  1.0000 -0.1483428889
C   C115      1.0  0.33910  0.50230  0.71270  1.0000 -0.1483428889
C   C116      1.0  0.66090  0.49770  0.21270  1.0000 -0.1483428889
C   C117      1.0  0.49770  0.66090  0.78730  1.0000 -0.1483428889
C   C118      1.0  0.50230  0.33910  0.28730  1.0000 -0.1483428889
C   C119      1.0  0.16090  0.00230  0.53730  1.0000 -0.1483428889
C   C120      1.0  0.83910  0.99770  0.03730  1.0000 -0.1483428889
C   C121      1.0  0.01340  0.22680  0.50360  1.0000 -0.1101565431
C   C122      1.0  0.98660  0.77320  0.00360  1.0000 -0.1101565431
C   C123      1.0  0.27320  0.51340  0.75360  1.0000 -0.1101565431
C   C124      1.0  0.72680  0.48660  0.25360  1.0000 -0.1101565431
C   C125      1.0  0.48660  0.72680  0.74640  1.0000 -0.1101565431
C   C126      1.0  0.51340  0.27320  0.24640  1.0000 -0.1101565431
C   C127      1.0  0.22680  0.01340  0.49640  1.0000 -0.1101565431
C   C128      1.0  0.77320  0.98660  0.99640  1.0000 -0.1101565431
C   C129      1.0  0.95350  0.28880  0.50960  1.0000 -0.1579127967
C   C130      1.0  0.04650  0.71120  0.00960  1.0000 -0.1579127967
C   C131      1.0  0.21120  0.45350  0.75960  1.0000 -0.1579127967
C   C132      1.0  0.78880  0.54650  0.25960  1.0000 -0.1579127967
C   C133      1.0  0.54650  0.78880  0.74040  1.0000 -0.1579127967
C   C134      1.0  0.45350  0.21120  0.24040  1.0000 -0.1579127967
C   C135      1.0  0.28880  0.95350  0.49040  1.0000 -0.1579127967
C   C136      1.0  0.71120  0.04650  0.99040  1.0000 -0.1483428889
C   C137      1.0  0.88440  0.28930  0.47170  1.0000 0.0685199602
C   C138      1.0  0.11560  0.71070  0.97170  1.0000 0.0685199602
C   C139      1.0  0.21070  0.38440  0.72170  1.0000 0.0685199602
C   C140      1.0  0.78930  0.61560  0.22170  1.0000 0.0685199602
C   C141      1.0  0.61560  0.78930  0.77830  1.0000 0.0685199602
C   C142      1.0  0.38440  0.21070  0.27830  1.0000 0.0685199602
C   C143      1.0  0.28930  0.88440  0.52830  1.0000 0.0685199602
C   C144      1.0  0.71070  0.11560  0.02830  1.0000 0.0685199602
C   C145      1.0  0.87350  0.22380  0.43020  1.0000 -0.1907322952
C   C146      1.0  0.12650  0.77620  0.93020  1.0000 -0.1907322952
C   C147      1.0  0.27620  0.37350  0.68020  1.0000 -0.1907322952
C   C148      1.0  0.72380  0.62650  0.18020  1.0000 -0.1907322952
C   C149      1.0  0.62650  0.72380  0.81980  1.0000 -0.1907322952
C   C150      1.0  0.37350  0.27620  0.31980  1.0000 -0.1907322952
C   C151      1.0  0.22380  0.87350  0.56980  1.0000 -0.1907322952
C   C152      1.0  0.77620  0.12650  0.06980  1.0000 -0.1907322952
C   C153      1.0  0.81720  0.35700  0.47730  1.0000 0.1159815802
C   C154      1.0  0.18280  0.64300  0.97730  1.0000 0.1159815802
C   C155      1.0  0.14300  0.31720  0.72730  1.0000 0.1159815802
C   C156      1.0  0.85700  0.68280  0.22730  1.0000 0.1159815802
C   C157      1.0  0.68280  0.85700  0.77270  1.0000 0.1159815802
C   C158      1.0  0.31720  0.14300  0.27270  1.0000 0.1159815802
C   C159      1.0  0.35700  0.81720  0.52270  1.0000 0.1159815802
C   C160      1.0  0.64300  0.18280  0.02270  1.0000 0.1159815802
C   C161      1.0  0.80700  0.40240  0.53070  1.0000 -0.1995393844
C   C162      1.0  0.19300  0.59760  0.03070  1.0000 -0.1995393844
C   C163      1.0  0.09760  0.30700  0.78070  1.0000 -0.1995393844
C   C164      1.0  0.90240  0.69300  0.28070  1.0000 -0.1995393844
C   C165      1.0  0.69300  0.90240  0.71930  1.0000 -0.1995393844
C   C166      1.0  0.30700  0.09760  0.21930  1.0000 -0.1995393844
C   C167      1.0  0.40240  0.80700  0.46930  1.0000 -0.1995393844
C   C168      1.0  0.59760  0.19300  0.96930  1.0000 -0.1995393844
C   C169      1.0  0.74020  0.45950  0.53570  1.0000 0.075454555
C   C170      1.0  0.25980  0.54050  0.03570  1.0000 0.075454555
C   C171      1.0  0.04050  0.24020  0.78570  1.0000 0.075454555
C   C172      1.0  0.95950  0.75980  0.28570  1.0000 0.075454555
C   C173      1.0  0.75980  0.95950  0.71430  1.0000 0.075454555
C   C174      1.0  0.24020  0.04050  0.21430  1.0000 0.075454555
C   C175      1.0  0.45950  0.74020  0.46430  1.0000 0.075454555
C   C176      1.0  0.54050  0.25980  0.96430  1.0000 0.075454555
C   C177      1.0  0.69910  0.43290  0.43880  1.0000 0.0486589765
C   C178      1.0  0.30090  0.56710  0.93880  1.0000 0.0486589765
C   C179      1.0  0.06710  0.19910  0.68880  1.0000 0.0486589765
C   C180      1.0  0.93290  0.80090  0.18880  1.0000 0.0486589765
C   C181      1.0  0.80090  0.93290  0.81120  1.0000 0.0486589765
C   C182      1.0  0.19910  0.06710  0.31120  1.0000 0.0486589765
C   C183      1.0  0.43290  0.69910  0.56120  1.0000 0.0486589765
C   C184      1.0  0.56710  0.30090  0.06120  1.0000 0.0486589765
C   C185      1.0  0.76160  0.37590  0.42990  1.0000 -0.1995393844
C   C186      1.0  0.23840  0.62410  0.92990  1.0000 -0.1995393844
C   C187      1.0  0.12410  0.26160  0.67990  1.0000 -0.1995393844
C   C188      1.0  0.87590  0.73840  0.17990  1.0000 -0.1995393844
C   C189      1.0  0.73840  0.87590  0.82010  1.0000 -0.1995393844
C   C190      1.0  0.26160  0.12410  0.32010  1.0000 -0.1995393844
C   C191      1.0  0.37590  0.76160  0.57010  1.0000 -0.1995393844
C   C192      1.0  0.62410  0.23840  0.07010  1.0000 -0.1995393844
N   N1        1.0  0.62190  0.62040  0.41290  1.0000 -0.2294542571
N   N2        1.0  0.37810  0.37960  0.91290  1.0000 -0.2294542571
N   N3        1.0  0.87960  0.12190  0.66290  1.0000 -0.2294542571
N   N4        1.0  0.12040  0.87810  0.16290  1.0000 -0.2294542571
N   N5        1.0  0.87810  0.12040  0.83710  1.0000 -0.2294542571
N   N6        1.0  0.12190  0.87960  0.33710  1.0000 -0.2294542571
N   N7        1.0  0.62040  0.62190  0.58710  1.0000 -0.2294542571
N   N8        1.0  0.37960  0.37810  0.08710  1.0000 -0.2294542571
N   N9        1.0  0.95330  0.99440  0.31460  1.0000 -0.2376750228
N   N10       1.0  0.04670  0.00560  0.81460  1.0000 -0.2376750228
N   N11       1.0  0.50560  0.45330  0.56460  1.0000 -0.2376750228
N   N12       1.0  0.49440  0.54670  0.06460  1.0000 -0.2376750228
N   N13       1.0  0.54670  0.49440  0.93540  1.0000 -0.2376750228
N   N14       1.0  0.45330  0.50560  0.43540  1.0000 -0.2376750228
N   N15       1.0  0.99440  0.95330  0.68540  1.0000 -0.2376750228
N   N16       1.0  0.00560  0.04670  0.18540  1.0000 -0.2376750228
N   N17       1.0  0.98630  0.05520  0.35430  1.0000 -0.2836738755
N   N18       1.0  0.01370  0.94480  0.85430  1.0000 -0.2836738755
N   N19       1.0  0.44480  0.48630  0.60430  1.0000 -0.2836738755
N   N20       1.0  0.55520  0.51370  0.10430  1.0000 -0.2836738755
N   N21       1.0  0.51370  0.55520  0.89570  1.0000 -0.2836738755
N   N22       1.0  0.48630  0.44480  0.39570  1.0000 -0.2836738755
N   N23       1.0  0.05520  0.98630  0.64570  1.0000 -0.2836738755
N   N24       1.0  0.94480  0.01370  0.14570  1.0000 -0.2836738755
N   N25       1.0  0.84960  0.05530  0.36110  1.0000 0.0577758174
N   N26       1.0  0.15040  0.94470  0.86110  1.0000 0.0577758174
N   N27       1.0  0.44470  0.34960  0.61110  1.0000 0.0577758174
N   N28       1.0  0.55530  0.65040  0.11110  1.0000 0.0577758174
N   N29       1.0  0.65040  0.55530  0.88890  1.0000 0.0577758174
N   N30       1.0  0.34960  0.44470  0.38890  1.0000 0.0577758174
N   N31       1.0  0.05530  0.84960  0.63890  1.0000 0.0577758174
N   N32       1.0  0.94470  0.15040  0.13890  1.0000 0.0577758174
N   N33       1.0  0.76830  0.07190  0.38270  1.0000 -0.4860508521
N   N34       1.0  0.23170  0.92810  0.88270  1.0000 -0.4860508521
N   N35       1.0  0.42810  0.26830  0.63270  1.0000 -0.4860508521
N   N36       1.0  0.57190  0.73170  0.13270  1.0000 -0.4860508521
N   N37       1.0  0.73170  0.57190  0.86730  1.0000 -0.4860508521
N   N38       1.0  0.26830  0.42810  0.36730  1.0000 -0.4860508521
N   N39       1.0  0.07190  0.76830  0.61730  1.0000 -0.4860508521
N   N40       1.0  0.92810  0.23170  0.11730  1.0000 -0.4860508521
N   N41       1.0  0.68570  0.47540  0.49110  1.0000 -0.2376750228
N   N42       1.0  0.31430  0.52460  0.99110  1.0000 -0.2376750228
N   N43       1.0  0.02460  0.18570  0.74110  1.0000 -0.2376750228
N   N44       1.0  0.97540  0.81430  0.24110  1.0000 -0.2376750228
N   N45       1.0  0.81430  0.97540  0.75890  1.0000 -0.2376750228
N   N46       1.0  0.18570  0.02460  0.25890  1.0000 -0.2376750228
N   N47       1.0  0.47540  0.68570  0.50890  1.0000 -0.2376750228
N   N48       1.0  0.52460  0.31430  0.00890  1.0000 -0.2376750228
Cl  Cl1       1.0  0.62052  0.37948  0.75000  1.0000 1.0687026451
Cl  Cl2       1.0  0.37948  0.62052  0.25000  1.0000 1.0687026451
Cl  Cl3       1.0  0.87948  0.87948  0.50000  1.0000 1.0687026451
Cl  Cl4       1.0  0.12052  0.12052  0.00000  1.0000 1.0687026451
O   O1        1.0  0.61400  0.32380  0.79520  1.0000 -0.3859359254
O   O2        1.0  0.67620  0.38600  0.70480  1.0000 -0.3859359254
O   O3        1.0  0.63450  0.44540  0.78200  1.0000 -0.3508109977
O   O4        1.0  0.55460  0.36550  0.71800  1.0000 -0.3508109977
O   O5        1.0  0.38600  0.67620  0.29520  1.0000 -0.3859359254
O   O6        1.0  0.32380  0.61400  0.20480  1.0000 -0.3859359254
O   O7        1.0  0.36550  0.55460  0.28200  1.0000 -0.3508109977
O   O8        1.0  0.44540  0.63450  0.21800  1.0000 -0.3508109977
O   O9        1.0  0.82380  0.88600  0.54520  1.0000 -0.3859359254
O   O10       1.0  0.88600  0.82380  0.45480  1.0000 -0.3859359254
O   O11       1.0  0.94540  0.86550  0.53200  1.0000 -0.3508109977
O   O12       1.0  0.86550  0.94540  0.46800  1.0000 -0.3508109977
O   O13       1.0  0.17620  0.11400  0.04520  1.0000 -0.3859359254
O   O14       1.0  0.11400  0.17620  0.95480  1.0000 -0.3859359254
O   O15       1.0  0.05460  0.13450  0.03200  1.0000 -0.3508109977
O   O16       1.0  0.13450  0.05460  0.96800  1.0000 -0.3508109977
