# DDEC6 charges by PACMAN v1.1 (https://github.com/mtap-research/PACMAN-charge/)
data_2010[Cd][nuc]3[ION]14
_chemical_formula_sum              "Cd4 H144 C192 N48 Cl4 O16"
_cell_length_a       15.88
_cell_length_b       15.88
_cell_length_c       21.505
_cell_angle_alpha    90
_cell_angle_beta     90
_cell_angle_gamma    90

_symmetry_space_group_name_H-M    "P 1"
_symmetry_Int_Tables_number       1

loop_
  _symmetry_equiv_pos_as_xyz
  'x, y, z'

loop_
  _atom_site_type_symbol
  _atom_site_label
  _atom_site_symmetry_multiplicity
  _atom_site_fract_x
  _atom_site_fract_y
  _atom_site_fract_z
  _atom_site_occupancy
  _atom_site_charge
Cd  Cd1       1.0  0.55885  0.44115  0.75000  1.0000 0.6460811529
Cd  Cd2       1.0  0.44115  0.55885  0.25000  1.0000 0.6460811529
Cd  Cd3       1.0  0.05885  0.05885  0.50000  1.0000 0.6460811529
Cd  Cd4       1.0  0.94115  0.94115  0.00000  1.0000 0.6460811529
H   H1        1.0  0.23170  0.14000  0.53890  1.0000 0.0944470945
H   H2        1.0  0.76830  0.86000  0.03890  1.0000 0.0991648406
H   H3        1.0  0.36000  0.73170  0.28890  1.0000 0.0991648406
H   H4        1.0  0.64000  0.26830  0.78890  1.0000 0.0991648406
H   H5        1.0  0.26830  0.64000  0.21110  1.0000 0.0991648406
H   H6        1.0  0.73170  0.36000  0.71110  1.0000 0.0944470945
H   H7        1.0  0.14000  0.23170  0.46110  1.0000 0.0944470945
H   H8        1.0  0.86000  0.76830  0.96110  1.0000 0.0991648406
H   H9        1.0  0.28930  0.24140  0.60330  1.0000 0.1191624697
H   H10       1.0  0.71070  0.75860  0.10330  1.0000 0.1191624697
H   H11       1.0  0.25860  0.78930  0.35330  1.0000 0.1191624697
H   H12       1.0  0.74140  0.21070  0.85330  1.0000 0.1191624697
H   H13       1.0  0.21070  0.74140  0.14670  1.0000 0.1191624697
H   H14       1.0  0.78930  0.25860  0.64670  1.0000 0.1191624697
H   H15       1.0  0.24140  0.28930  0.39670  1.0000 0.1191624697
H   H16       1.0  0.75860  0.71070  0.89670  1.0000 0.1191624697
H   H17       1.0  0.08920  0.21470  0.71750  1.0000 0.1279235466
H   H18       1.0  0.91080  0.78530  0.21750  1.0000 0.1279235466
H   H19       1.0  0.28530  0.58920  0.46750  1.0000 0.1279235466
H   H20       1.0  0.71470  0.41080  0.96750  1.0000 0.1279235466
H   H21       1.0  0.41080  0.71470  0.03250  1.0000 0.1279235466
H   H22       1.0  0.58920  0.28530  0.53250  1.0000 0.1279235466
H   H23       1.0  0.21470  0.08920  0.28250  1.0000 0.1279235466
H   H24       1.0  0.78530  0.91080  0.78250  1.0000 0.1279235466
H   H25       1.0  0.04030  0.11070  0.65100  1.0000 0.0991648406
H   H26       1.0  0.95970  0.88930  0.15100  1.0000 0.0991648406
H   H27       1.0  0.38930  0.54030  0.40100  1.0000 0.0991648406
H   H28       1.0  0.61070  0.45970  0.90100  1.0000 0.0991648406
H   H29       1.0  0.45970  0.61070  0.09900  1.0000 0.0991648406
H   H30       1.0  0.54030  0.38930  0.59900  1.0000 0.0991648406
H   H31       1.0  0.11070  0.04030  0.34900  1.0000 0.0991648406
H   H32       1.0  0.88930  0.95970  0.84900  1.0000 0.0991648406
H   H33       1.0  0.30510  0.36130  0.63740  1.0000 0.0991648406
H   H34       1.0  0.69490  0.63870  0.13740  1.0000 0.0991648406
H   H35       1.0  0.13870  0.80510  0.38740  1.0000 0.0991648406
H   H36       1.0  0.86130  0.19490  0.88740  1.0000 0.0991648406
H   H37       1.0  0.19490  0.86130  0.11260  1.0000 0.0991648406
H   H38       1.0  0.80510  0.13870  0.61260  1.0000 0.0991648406
H   H39       1.0  0.36130  0.30510  0.36260  1.0000 0.0991648406
H   H40       1.0  0.63870  0.69490  0.86260  1.0000 0.0991648406
H   H41       1.0  0.29960  0.50670  0.79120  1.0000 0.1089420501
H   H42       1.0  0.70040  0.49330  0.29120  1.0000 0.1089420501
H   H43       1.0  0.99330  0.79960  0.54120  1.0000 0.1089420501
H   H44       1.0  0.00670  0.20040  0.04120  1.0000 0.1089420501
H   H45       1.0  0.20040  0.00670  0.95880  1.0000 0.1089420501
H   H46       1.0  0.79960  0.99330  0.45880  1.0000 0.1089420501
H   H47       1.0  0.50670  0.29960  0.20880  1.0000 0.1089420501
H   H48       1.0  0.49330  0.70040  0.70880  1.0000 0.1089420501
H   H49       1.0  0.20230  0.41420  0.83560  1.0000 0.0991648406
H   H50       1.0  0.79770  0.58580  0.33560  1.0000 0.0991648406
H   H51       1.0  0.08580  0.70230  0.58560  1.0000 0.0991648406
H   H52       1.0  0.91420  0.29770  0.08560  1.0000 0.0991648406
H   H53       1.0  0.29770  0.91420  0.91440  1.0000 0.0991648406
H   H54       1.0  0.70230  0.08580  0.41440  1.0000 0.0991648406
H   H55       1.0  0.41420  0.20230  0.16440  1.0000 0.0991648406
H   H56       1.0  0.58580  0.79770  0.66440  1.0000 0.0991648406
H   H57       1.0  0.15170  0.29980  0.77990  1.0000 0.0944470945
H   H58       1.0  0.84830  0.70020  0.27990  1.0000 0.0944470945
H   H59       1.0  0.20020  0.65170  0.52990  1.0000 0.0944470945
H   H60       1.0  0.79980  0.34830  0.02990  1.0000 0.0944470945
H   H61       1.0  0.34830  0.79980  0.97010  1.0000 0.0944470945
H   H62       1.0  0.65170  0.20020  0.47010  1.0000 0.0944470945
H   H63       1.0  0.29980  0.15170  0.22010  1.0000 0.0944470945
H   H64       1.0  0.70020  0.84830  0.72010  1.0000 0.0944470945
H   H65       1.0  0.54960  0.62460  0.54150  1.0000 0.1089420501
H   H66       1.0  0.45040  0.37540  0.04150  1.0000 0.1089420501
H   H67       1.0  0.87540  0.04960  0.29150  1.0000 0.1089420501
H   H68       1.0  0.12460  0.95040  0.79150  1.0000 0.1089420501
H   H69       1.0  0.95040  0.12460  0.20850  1.0000 0.1089420501
H   H70       1.0  0.04960  0.87540  0.70850  1.0000 0.1089420501
H   H71       1.0  0.62460  0.54960  0.45850  1.0000 0.1089420501
H   H72       1.0  0.37540  0.45040  0.95850  1.0000 0.1089420501
H   H73       1.0  0.56940  0.73720  0.47320  1.0000 0.1089420501
H   H74       1.0  0.43060  0.26280  0.97320  1.0000 0.1089420501
H   H75       1.0  0.76280  0.06940  0.22320  1.0000 0.1089420501
H   H76       1.0  0.23720  0.93060  0.72320  1.0000 0.1089420501
H   H77       1.0  0.93060  0.23720  0.27680  1.0000 0.1089420501
H   H78       1.0  0.06940  0.76280  0.77680  1.0000 0.1089420501
H   H79       1.0  0.73720  0.56940  0.52680  1.0000 0.1089420501
H   H80       1.0  0.26280  0.43060  0.02680  1.0000 0.1089420501
H   H81       1.0  0.46710  0.84100  0.46320  1.0000 0.1089420501
H   H82       1.0  0.53290  0.15900  0.96320  1.0000 0.1089420501
H   H83       1.0  0.65900  0.96710  0.21320  1.0000 0.1089420501
H   H84       1.0  0.34100  0.03290  0.71320  1.0000 0.1089420501
H   H85       1.0  0.03290  0.34100  0.28680  1.0000 0.1089420501
H   H86       1.0  0.96710  0.65900  0.78680  1.0000 0.1089420501
H   H87       1.0  0.84100  0.46710  0.53680  1.0000 0.1089420501
H   H88       1.0  0.15900  0.53290  0.03680  1.0000 0.1089420501
H   H89       1.0  0.32570  0.72390  0.59200  1.0000 0.0991648406
H   H90       1.0  0.67430  0.27610  0.09200  1.0000 0.0991648406
H   H91       1.0  0.77610  0.82570  0.34200  1.0000 0.0991648406
H   H92       1.0  0.22390  0.17430  0.84200  1.0000 0.0991648406
H   H93       1.0  0.17430  0.22390  0.15800  1.0000 0.0991648406
H   H94       1.0  0.82570  0.77610  0.65800  1.0000 0.0991648406
H   H95       1.0  0.72390  0.32570  0.40800  1.0000 0.0991648406
H   H96       1.0  0.27610  0.67430  0.90800  1.0000 0.0991648406
H   H97       1.0  0.34880  0.90080  0.43580  1.0000 0.1279235466
H   H98       1.0  0.65120  0.09920  0.93580  1.0000 0.1279235466
H   H99       1.0  0.59920  0.84880  0.18580  1.0000 0.1279235466
H   H100      1.0  0.40080  0.15120  0.68580  1.0000 0.1279235466
H   H101      1.0  0.15120  0.40080  0.31420  1.0000 0.1279235466
H   H102      1.0  0.84880  0.59920  0.81420  1.0000 0.1279235466
H   H103      1.0  0.90080  0.34880  0.56420  1.0000 0.1279235466
H   H104      1.0  0.09920  0.65120  0.06420  1.0000 0.1279235466
H   H105      1.0  0.23700  0.99110  0.42500  1.0000 0.0991648406
H   H106      1.0  0.76300  0.00890  0.92500  1.0000 0.0991648406
H   H107      1.0  0.50890  0.73700  0.17500  1.0000 0.0991648406
H   H108      1.0  0.49110  0.26300  0.67500  1.0000 0.0991648406
H   H109      1.0  0.26300  0.49110  0.32500  1.0000 0.0991648406
H   H110      1.0  0.73700  0.50890  0.82500  1.0000 0.0991648406
H   H111      1.0  0.99110  0.23700  0.57500  1.0000 0.0991648406
H   H112      1.0  0.00890  0.76300  0.07500  1.0000 0.0991648406
H   H113      1.0  0.15960  0.94140  0.59300  1.0000 0.0991648406
H   H114      1.0  0.84040  0.05860  0.09300  1.0000 0.0991648406
H   H115      1.0  0.55860  0.65960  0.34300  1.0000 0.0991648406
H   H116      1.0  0.44140  0.34040  0.84300  1.0000 0.0991648406
H   H117      1.0  0.34040  0.44140  0.15700  1.0000 0.0991648406
H   H118      1.0  0.65960  0.55860  0.65700  1.0000 0.0991648406
H   H119      1.0  0.94140  0.15960  0.40700  1.0000 0.0991648406
H   H120      1.0  0.05860  0.84040  0.90700  1.0000 0.0991648406
H   H121      1.0  0.26830  0.84680  0.60830  1.0000 0.1279235466
H   H122      1.0  0.73170  0.15320  0.10830  1.0000 0.1279235466
H   H123      1.0  0.65320  0.76830  0.35830  1.0000 0.1279235466
H   H124      1.0  0.34680  0.23170  0.85830  1.0000 0.1279235466
H   H125      1.0  0.23170  0.34680  0.14170  1.0000 0.1279235466
H   H126      1.0  0.76830  0.65320  0.64170  1.0000 0.1279235466
H   H127      1.0  0.84680  0.26830  0.39170  1.0000 0.1279235466
H   H128      1.0  0.15320  0.73170  0.89170  1.0000 0.1279235466
H   H129      1.0  0.24570  0.52650  0.60600  1.0000 0.2588825445
H   H130      1.0  0.75430  0.47350  0.10600  1.0000 0.2588825445
H   H131      1.0  0.97350  0.74570  0.35600  1.0000 0.2588825445
H   H132      1.0  0.02650  0.25430  0.85600  1.0000 0.2588825445
H   H133      1.0  0.25430  0.02650  0.14400  1.0000 0.2588825445
H   H134      1.0  0.74570  0.97350  0.64400  1.0000 0.2588825445
H   H135      1.0  0.52650  0.24570  0.39400  1.0000 0.2588825445
H   H136      1.0  0.47350  0.75430  0.89400  1.0000 0.2588825445
H   H137      1.0  0.24150  0.60230  0.64580  1.0000 0.2588825445
H   H138      1.0  0.75850  0.39770  0.14580  1.0000 0.2588825445
H   H139      1.0  0.89770  0.74150  0.39580  1.0000 0.2588825445
H   H140      1.0  0.10230  0.25850  0.89580  1.0000 0.2588825445
H   H141      1.0  0.25850  0.10230  0.10420  1.0000 0.2588825445
H   H142      1.0  0.74150  0.89770  0.60420  1.0000 0.2588825445
H   H143      1.0  0.60230  0.24150  0.35420  1.0000 0.2588825445
H   H144      1.0  0.39770  0.75850  0.85420  1.0000 0.2588825445
C   C1        1.0  0.20160  0.15680  0.57490  1.0000 0.0340014059
C   C2        1.0  0.79840  0.84320  0.07490  1.0000 0.0340014059
C   C3        1.0  0.34320  0.70160  0.32490  1.0000 0.0340014059
C   C4        1.0  0.65680  0.29840  0.82490  1.0000 0.0340014059
C   C5        1.0  0.29840  0.65680  0.17510  1.0000 0.0340014059
C   C6        1.0  0.70160  0.34320  0.67510  1.0000 0.0340014059
C   C7        1.0  0.15680  0.20160  0.42510  1.0000 0.0340014059
C   C8        1.0  0.84320  0.79840  0.92510  1.0000 0.0340014059
C   C9        1.0  0.23570  0.21830  0.61300  1.0000 -0.1906448296
C   C10       1.0  0.76430  0.78170  0.11300  1.0000 -0.1906448296
C   C11       1.0  0.28170  0.73570  0.36300  1.0000 -0.1906448296
C   C12       1.0  0.71830  0.26430  0.86300  1.0000 -0.1906448296
C   C13       1.0  0.26430  0.71830  0.13700  1.0000 -0.1906448296
C   C14       1.0  0.73570  0.28170  0.63700  1.0000 -0.1906448296
C   C15       1.0  0.21830  0.23570  0.38700  1.0000 -0.1906448296
C   C16       1.0  0.78170  0.76430  0.88700  1.0000 -0.1906448296
C   C17       1.0  0.19250  0.24680  0.66530  1.0000 0.1191624697
C   C18       1.0  0.80750  0.75320  0.16530  1.0000 0.1191624697
C   C19       1.0  0.25320  0.69250  0.41530  1.0000 0.1191624697
C   C20       1.0  0.74680  0.30750  0.91530  1.0000 0.1191624697
C   C21       1.0  0.30750  0.74680  0.08470  1.0000 0.1191624697
C   C22       1.0  0.69250  0.25320  0.58470  1.0000 0.1191624697
C   C23       1.0  0.24680  0.19250  0.33470  1.0000 0.1191624697
C   C24       1.0  0.75320  0.80750  0.83470  1.0000 0.1191624697
C   C25       1.0  0.11890  0.20250  0.68030  1.0000 -0.2050603529
C   C26       1.0  0.88110  0.79750  0.18030  1.0000 -0.2050603529
C   C27       1.0  0.29750  0.61890  0.43030  1.0000 -0.2050603529
C   C28       1.0  0.70250  0.38110  0.93030  1.0000 -0.2050603529
C   C29       1.0  0.38110  0.70250  0.06970  1.0000 -0.2050603529
C   C30       1.0  0.61890  0.29750  0.56970  1.0000 -0.2050603529
C   C31       1.0  0.20250  0.11890  0.31970  1.0000 -0.2050603529
C   C32       1.0  0.79750  0.88110  0.81970  1.0000 -0.2050603529
C   C33       1.0  0.09000  0.14030  0.63980  1.0000 0.0839185925
C   C34       1.0  0.91000  0.85970  0.13980  1.0000 0.0839185925
C   C35       1.0  0.35970  0.59000  0.38980  1.0000 0.0839185925
C   C36       1.0  0.64030  0.41000  0.88980  1.0000 0.0839185925
C   C37       1.0  0.41000  0.64030  0.11020  1.0000 0.0839185925
C   C38       1.0  0.59000  0.35970  0.61020  1.0000 0.0839185925
C   C39       1.0  0.14030  0.09000  0.36020  1.0000 0.0839185925
C   C40       1.0  0.85970  0.91000  0.86020  1.0000 0.0839185925
C   C41       1.0  0.22260  0.31860  0.70260  1.0000 0.0696102082
C   C42       1.0  0.77740  0.68140  0.20260  1.0000 0.0696102082
C   C43       1.0  0.18140  0.72260  0.45260  1.0000 0.0696102082
C   C44       1.0  0.81860  0.27740  0.95260  1.0000 0.0696102082
C   C45       1.0  0.27740  0.81860  0.04740  1.0000 0.0696102082
C   C46       1.0  0.72260  0.18140  0.54740  1.0000 0.0696102082
C   C47       1.0  0.31860  0.22260  0.29740  1.0000 0.0696102082
C   C48       1.0  0.68140  0.77740  0.79740  1.0000 0.0696102082
C   C49       1.0  0.28350  0.37270  0.67770  1.0000 -0.1906448296
C   C50       1.0  0.71650  0.62730  0.17770  1.0000 -0.1906448296
C   C51       1.0  0.12730  0.78350  0.42770  1.0000 -0.1906448296
C   C52       1.0  0.87270  0.21650  0.92770  1.0000 -0.1906448296
C   C53       1.0  0.21650  0.87270  0.07230  1.0000 -0.1906448296
C   C54       1.0  0.78350  0.12730  0.57230  1.0000 -0.1906448296
C   C55       1.0  0.37270  0.28350  0.32230  1.0000 -0.1906448296
C   C56       1.0  0.62730  0.71650  0.82230  1.0000 -0.1906448296
C   C57       1.0  0.31290  0.44130  0.70920  1.0000 0.0142804687
C   C58       1.0  0.68710  0.55870  0.20920  1.0000 0.0142804687
C   C59       1.0  0.05870  0.81290  0.45920  1.0000 0.0142804687
C   C60       1.0  0.94130  0.18710  0.95920  1.0000 0.0142804687
C   C61       1.0  0.18710  0.94130  0.04080  1.0000 0.0142804687
C   C62       1.0  0.81290  0.05870  0.54080  1.0000 0.0142804687
C   C63       1.0  0.44130  0.31290  0.29080  1.0000 0.0142804687
C   C64       1.0  0.55870  0.68710  0.79080  1.0000 0.0142804687
C   C65       1.0  0.28120  0.45850  0.76890  1.0000 -0.1595951248
C   C66       1.0  0.71880  0.54150  0.26890  1.0000 -0.1595951248
C   C67       1.0  0.04150  0.78120  0.51890  1.0000 -0.1595951248
C   C68       1.0  0.95850  0.21880  0.01890  1.0000 -0.1595951248
C   C69       1.0  0.21880  0.95850  0.98110  1.0000 -0.1595951248
C   C70       1.0  0.78120  0.04150  0.48110  1.0000 -0.1595951248
C   C71       1.0  0.45850  0.28120  0.23110  1.0000 -0.1595951248
C   C72       1.0  0.54150  0.71880  0.73110  1.0000 -0.1595951248
C   C73       1.0  0.22250  0.40410  0.79470  1.0000 -0.1008820575
C   C74       1.0  0.77750  0.59590  0.29470  1.0000 -0.1008820575
C   C75       1.0  0.09590  0.72250  0.54470  1.0000 -0.1008820575
C   C76       1.0  0.90410  0.27750  0.04470  1.0000 -0.1008820575
C   C77       1.0  0.27750  0.90410  0.95530  1.0000 -0.1008820575
C   C78       1.0  0.72250  0.09590  0.45530  1.0000 -0.1008820575
C   C79       1.0  0.40410  0.22250  0.20530  1.0000 -0.1008820575
C   C80       1.0  0.59590  0.77750  0.70530  1.0000 -0.1008820575
C   C81       1.0  0.19280  0.33560  0.76170  1.0000 -0.1595951248
C   C82       1.0  0.80720  0.66440  0.26170  1.0000 -0.1595951248
C   C83       1.0  0.16440  0.69280  0.51170  1.0000 -0.1595951248
C   C84       1.0  0.83560  0.30720  0.01170  1.0000 -0.1595951248
C   C85       1.0  0.30720  0.83560  0.98830  1.0000 -0.1595951248
C   C86       1.0  0.69280  0.16440  0.48830  1.0000 -0.1595951248
C   C87       1.0  0.33560  0.19280  0.23830  1.0000 -0.1595951248
C   C88       1.0  0.66440  0.80720  0.73830  1.0000 -0.1595951248
C   C89       1.0  0.37570  0.49680  0.67930  1.0000 0.1838069237
C   C90       1.0  0.62430  0.50320  0.17930  1.0000 0.1838069237
C   C91       1.0  0.00320  0.87570  0.42930  1.0000 0.1838069237
C   C92       1.0  0.99680  0.12430  0.92930  1.0000 0.1838069237
C   C93       1.0  0.12430  0.99680  0.07070  1.0000 0.1838069237
C   C94       1.0  0.87570  0.00320  0.57070  1.0000 0.1838069237
C   C95       1.0  0.49680  0.37570  0.32070  1.0000 0.1838069237
C   C96       1.0  0.50320  0.62430  0.82070  1.0000 0.1838069237
C   C97       1.0  0.42630  0.59290  0.61640  1.0000 0.1698505018
C   C98       1.0  0.57370  0.40710  0.11640  1.0000 0.1698505018
C   C99       1.0  0.90710  0.92630  0.36640  1.0000 0.1698505018
C   C100      1.0  0.09290  0.07370  0.86640  1.0000 0.1698505018
C   C101      1.0  0.07370  0.09290  0.13360  1.0000 0.1698505018
C   C102      1.0  0.92630  0.90710  0.63360  1.0000 0.1698505018
C   C103      1.0  0.59290  0.42630  0.38360  1.0000 0.1698505018
C   C104      1.0  0.40710  0.57370  0.88360  1.0000 0.1698505018
C   C105      1.0  0.43440  0.66290  0.57280  1.0000 0.0381310466
C   C106      1.0  0.56560  0.33710  0.07280  1.0000 0.0381310466
C   C107      1.0  0.83710  0.93440  0.32280  1.0000 0.0381310466
C   C108      1.0  0.16290  0.06560  0.82280  1.0000 0.0381310466
C   C109      1.0  0.06560  0.16290  0.17720  1.0000 0.0381310466
C   C110      1.0  0.93440  0.83710  0.67720  1.0000 0.0381310466
C   C111      1.0  0.66290  0.43440  0.42720  1.0000 0.0381310466
C   C112      1.0  0.33710  0.56560  0.92720  1.0000 0.0381310466
C   C113      1.0  0.50780  0.66720  0.53780  1.0000 -0.1505928528
C   C114      1.0  0.49220  0.33280  0.03780  1.0000 -0.1505928528
C   C115      1.0  0.83280  0.00780  0.28780  1.0000 -0.1505928528
C   C116      1.0  0.16720  0.99220  0.78780  1.0000 -0.1505928528
C   C117      1.0  0.99220  0.16720  0.21220  1.0000 -0.1505928528
C   C118      1.0  0.00780  0.83280  0.71220  1.0000 -0.1505928528
C   C119      1.0  0.66720  0.50780  0.46220  1.0000 -0.1505928528
C   C120      1.0  0.33280  0.49220  0.96220  1.0000 -0.1505928528
C   C121      1.0  0.51950  0.73410  0.49740  1.0000 -0.1072632963
C   C122      1.0  0.48050  0.26590  0.99740  1.0000 -0.1072632963
C   C123      1.0  0.76590  0.01950  0.24740  1.0000 -0.1072632963
C   C124      1.0  0.23410  0.98050  0.74740  1.0000 -0.1072632963
C   C125      1.0  0.98050  0.23410  0.25260  1.0000 -0.1072632963
C   C126      1.0  0.01950  0.76590  0.75260  1.0000 -0.1072632963
C   C127      1.0  0.73410  0.51950  0.50260  1.0000 -0.1072632963
C   C128      1.0  0.26590  0.48050  0.00260  1.0000 -0.1072632963
C   C129      1.0  0.45950  0.79640  0.49200  1.0000 -0.1595951248
C   C130      1.0  0.54050  0.20360  0.99200  1.0000 -0.1595951248
C   C131      1.0  0.70360  0.95950  0.24200  1.0000 -0.1595951248
C   C132      1.0  0.29640  0.04050  0.74200  1.0000 -0.1595951248
C   C133      1.0  0.04050  0.29640  0.25800  1.0000 -0.1595951248
C   C134      1.0  0.95950  0.70360  0.75800  1.0000 -0.1595951248
C   C135      1.0  0.79640  0.45950  0.50800  1.0000 -0.1595951248
C   C136      1.0  0.20360  0.54050  0.00800  1.0000 -0.1595951248
C   C137      1.0  0.38710  0.79360  0.52920  1.0000 0.0696102082
C   C138      1.0  0.61290  0.20640  0.02920  1.0000 0.0696102082
C   C139      1.0  0.70640  0.88710  0.27920  1.0000 0.0696102082
C   C140      1.0  0.29360  0.11290  0.77920  1.0000 0.0696102082
C   C141      1.0  0.11290  0.29360  0.22080  1.0000 0.0696102082
C   C142      1.0  0.88710  0.70640  0.72080  1.0000 0.0696102082
C   C143      1.0  0.79360  0.38710  0.47080  1.0000 0.0696102082
C   C144      1.0  0.20640  0.61290  0.97080  1.0000 0.0696102082
C   C145      1.0  0.37560  0.72680  0.56780  1.0000 -0.1906448296
C   C146      1.0  0.62440  0.27320  0.06780  1.0000 -0.1906448296
C   C147      1.0  0.77320  0.87560  0.31780  1.0000 -0.1906448296
C   C148      1.0  0.22680  0.12440  0.81780  1.0000 -0.1906448296
C   C149      1.0  0.12440  0.22680  0.18220  1.0000 -0.1906448296
C   C150      1.0  0.87560  0.77320  0.68220  1.0000 -0.1906448296
C   C151      1.0  0.72680  0.37560  0.43220  1.0000 -0.1906448296
C   C152      1.0  0.27320  0.62440  0.93220  1.0000 -0.1906448296
C   C153      1.0  0.32030  0.86010  0.52210  1.0000 0.1191624697
C   C154      1.0  0.67970  0.13990  0.02210  1.0000 0.1191624697
C   C155      1.0  0.63990  0.82030  0.27210  1.0000 0.1191624697
C   C156      1.0  0.36010  0.17970  0.77210  1.0000 0.1191624697
C   C157      1.0  0.17970  0.36010  0.22790  1.0000 0.1191624697
C   C158      1.0  0.82030  0.63990  0.72790  1.0000 0.1191624697
C   C159      1.0  0.86010  0.32030  0.47790  1.0000 0.1191624697
C   C160      1.0  0.13990  0.67970  0.97790  1.0000 0.1191624697
C   C161      1.0  0.30970  0.90660  0.46890  1.0000 -0.2022365187
C   C162      1.0  0.69030  0.09340  0.96890  1.0000 -0.2022365187
C   C163      1.0  0.59340  0.80970  0.21890  1.0000 -0.2022365187
C   C164      1.0  0.40660  0.19030  0.71890  1.0000 -0.2022365187
C   C165      1.0  0.19030  0.40660  0.28110  1.0000 -0.2022365187
C   C166      1.0  0.80970  0.59340  0.78110  1.0000 -0.2022365187
C   C167      1.0  0.90660  0.30970  0.53110  1.0000 -0.2022365187
C   C168      1.0  0.09340  0.69030  0.03110  1.0000 -0.2022365187
C   C169      1.0  0.24310  0.96150  0.46310  1.0000 0.0696102082
C   C170      1.0  0.75690  0.03850  0.96310  1.0000 0.0696102082
C   C171      1.0  0.53850  0.74310  0.21310  1.0000 0.0696102082
C   C172      1.0  0.46150  0.25690  0.71310  1.0000 0.0696102082
C   C173      1.0  0.25690  0.46150  0.28690  1.0000 0.0696102082
C   C174      1.0  0.74310  0.53850  0.78690  1.0000 0.0696102082
C   C175      1.0  0.96150  0.24310  0.53690  1.0000 0.0696102082
C   C176      1.0  0.03850  0.75690  0.03690  1.0000 0.0696102082
C   C177      1.0  0.19840  0.93230  0.56010  1.0000 0.0590530495
C   C178      1.0  0.80160  0.06770  0.06010  1.0000 0.0590530495
C   C179      1.0  0.56770  0.69840  0.31010  1.0000 0.0590530495
C   C180      1.0  0.43230  0.30160  0.81010  1.0000 0.0590530495
C   C181      1.0  0.30160  0.43230  0.18990  1.0000 0.0590530495
C   C182      1.0  0.69840  0.56770  0.68990  1.0000 0.0590530495
C   C183      1.0  0.93230  0.19840  0.43990  1.0000 0.0590530495
C   C184      1.0  0.06770  0.80160  0.93990  1.0000 0.0590530495
C   C185      1.0  0.26310  0.87530  0.56960  1.0000 -0.2050603529
C   C186      1.0  0.73690  0.12470  0.06960  1.0000 -0.2050603529
C   C187      1.0  0.62470  0.76310  0.31960  1.0000 -0.2050603529
C   C188      1.0  0.37530  0.23690  0.81960  1.0000 -0.2050603529
C   C189      1.0  0.23690  0.37530  0.18040  1.0000 -0.2050603529
C   C190      1.0  0.76310  0.62470  0.68040  1.0000 -0.2050603529
C   C191      1.0  0.87530  0.26310  0.43040  1.0000 -0.2050603529
C   C192      1.0  0.12470  0.73690  0.93040  1.0000 -0.2050603529
N   N1        1.0  0.12660  0.11990  0.58750  1.0000 -0.2308846679
N   N2        1.0  0.87340  0.88010  0.08750  1.0000 -0.2308846679
N   N3        1.0  0.38010  0.62660  0.33750  1.0000 -0.2308846679
N   N4        1.0  0.61990  0.37340  0.83750  1.0000 -0.2308846679
N   N5        1.0  0.37340  0.61990  0.16250  1.0000 -0.2308846679
N   N6        1.0  0.62660  0.38010  0.66250  1.0000 -0.2308846679
N   N7        1.0  0.11990  0.12660  0.41250  1.0000 -0.2308846679
N   N8        1.0  0.88010  0.87340  0.91250  1.0000 -0.2308846679
N   N9        1.0  0.45640  0.49380  0.68270  1.0000 -0.2308846679
N   N10       1.0  0.54360  0.50620  0.18270  1.0000 -0.2308846679
N   N11       1.0  0.00620  0.95640  0.43270  1.0000 -0.2308846679
N   N12       1.0  0.99380  0.04360  0.93270  1.0000 -0.2308846679
N   N13       1.0  0.04360  0.99380  0.06730  1.0000 -0.2308846679
N   N14       1.0  0.95640  0.00620  0.56730  1.0000 -0.2308846679
N   N15       1.0  0.49380  0.45640  0.31730  1.0000 -0.2308846679
N   N16       1.0  0.50620  0.54360  0.81730  1.0000 -0.2308846679
N   N17       1.0  0.48980  0.55530  0.64390  1.0000 -0.2767833438
N   N18       1.0  0.51020  0.44470  0.14390  1.0000 -0.2767833438
N   N19       1.0  0.94470  0.98980  0.39390  1.0000 -0.2767833438
N   N20       1.0  0.05530  0.01020  0.89390  1.0000 -0.2767833438
N   N21       1.0  0.01020  0.05530  0.10610  1.0000 -0.2767833438
N   N22       1.0  0.98980  0.94470  0.60610  1.0000 -0.2767833438
N   N23       1.0  0.55530  0.48980  0.35610  1.0000 -0.2767833438
N   N24       1.0  0.44470  0.51020  0.85610  1.0000 -0.2767833438
N   N25       1.0  0.35280  0.55670  0.63790  1.0000 0.0590530495
N   N26       1.0  0.64720  0.44330  0.13790  1.0000 0.0590530495
N   N27       1.0  0.94330  0.85280  0.38790  1.0000 0.0590530495
N   N28       1.0  0.05670  0.14720  0.88790  1.0000 0.0590530495
N   N29       1.0  0.14720  0.05670  0.11210  1.0000 0.0590530495
N   N30       1.0  0.85280  0.94330  0.61210  1.0000 0.0590530495
N   N31       1.0  0.55670  0.35280  0.36210  1.0000 0.0590530495
N   N32       1.0  0.44330  0.64720  0.86210  1.0000 0.0590530495
N   N33       1.0  0.27170  0.57570  0.61610  1.0000 -0.4904751446
N   N34       1.0  0.72830  0.42430  0.11610  1.0000 -0.4904751446
N   N35       1.0  0.92430  0.77170  0.36610  1.0000 -0.4904751446
N   N36       1.0  0.07570  0.22830  0.86610  1.0000 -0.4904751446
N   N37       1.0  0.22830  0.07570  0.13390  1.0000 -0.4904751446
N   N38       1.0  0.77170  0.92430  0.63390  1.0000 -0.4904751446
N   N39       1.0  0.57570  0.27170  0.38390  1.0000 -0.4904751446
N   N40       1.0  0.42430  0.72830  0.88390  1.0000 -0.4904751446
N   N41       1.0  0.18710  0.97540  0.50720  1.0000 -0.2308846679
N   N42       1.0  0.81290  0.02460  0.00720  1.0000 -0.2308846679
N   N43       1.0  0.52460  0.68710  0.25720  1.0000 -0.2308846679
N   N44       1.0  0.47540  0.31290  0.75720  1.0000 -0.2308846679
N   N45       1.0  0.31290  0.47540  0.24280  1.0000 -0.2308846679
N   N46       1.0  0.68710  0.52460  0.74280  1.0000 -0.2308846679
N   N47       1.0  0.97540  0.18710  0.49280  1.0000 -0.2308846679
N   N48       1.0  0.02460  0.81290  0.99280  1.0000 -0.2308846679
Cl  Cl1       1.0  0.38066  0.38066  0.50000  1.0000 0.7910142574
Cl  Cl2       1.0  0.61934  0.61934  0.00000  1.0000 0.7910142574
Cl  Cl3       1.0  0.88066  0.11934  0.75000  1.0000 0.7910142574
Cl  Cl4       1.0  0.11934  0.88066  0.25000  1.0000 0.7950006757
O   O1        1.0  0.31250  0.39580  0.47210  1.0000 -0.3257136908
O   O2        1.0  0.39580  0.31250  0.52790  1.0000 -0.3257136908
O   O3        1.0  0.43380  0.37920  0.46310  1.0000 -0.2446219329
O   O4        1.0  0.37920  0.43380  0.53690  1.0000 -0.2446219329
O   O5        1.0  0.68750  0.60420  0.97210  1.0000 -0.3247765344
O   O6        1.0  0.60420  0.68750  0.02790  1.0000 -0.3247765344
O   O7        1.0  0.56620  0.62080  0.96310  1.0000 -0.2446219329
O   O8        1.0  0.62080  0.56620  0.03690  1.0000 -0.2446219329
O   O9        1.0  0.89580  0.18750  0.72210  1.0000 -0.3247765344
O   O10       1.0  0.81250  0.10420  0.77790  1.0000 -0.3257136908
O   O11       1.0  0.87920  0.06620  0.71310  1.0000 -0.2446219329
O   O12       1.0  0.93380  0.12080  0.78690  1.0000 -0.2446219329
O   O13       1.0  0.10420  0.81250  0.22210  1.0000 -0.3257136908
O   O14       1.0  0.18750  0.89580  0.27790  1.0000 -0.3247765344
O   O15       1.0  0.12080  0.93380  0.21310  1.0000 -0.2446219329
O   O16       1.0  0.06620  0.87920  0.28690  1.0000 -0.2446219329
