# DDEC6 charges by PACMAN v1.1 (https://github.com/mtap-research/PACMAN-charge/)
data_2010[Cd][nuc]3[ION]11
_chemical_formula_sum              "Cd4 H144 C192 N48 Cl4 O16"
_cell_length_a       15.8832
_cell_length_b       15.8832
_cell_length_c       21.7
_cell_angle_alpha    90
_cell_angle_beta     90
_cell_angle_gamma    90

_symmetry_space_group_name_H-M    "P 1"
_symmetry_Int_Tables_number       1

loop_
  _symmetry_equiv_pos_as_xyz
  'x, y, z'

loop_
  _atom_site_type_symbol
  _atom_site_label
  _atom_site_symmetry_multiplicity
  _atom_site_fract_x
  _atom_site_fract_y
  _atom_site_fract_z
  _atom_site_occupancy
  _atom_site_charge
Cd  Cd1       1.0  0.94128  0.05872  0.75000  1.0000 0.6404917527
Cd  Cd2       1.0  0.05872  0.94128  0.25000  1.0000 0.6404917527
Cd  Cd3       1.0  0.44128  0.44128  0.50000  1.0000 0.6404917527
Cd  Cd4       1.0  0.55872  0.55872  0.00000  1.0000 0.6404917527
H   H1        1.0  0.46310  0.38780  0.64960  1.0000 0.1009463735
H   H2        1.0  0.53690  0.61220  0.14960  1.0000 0.1009463735
H   H3        1.0  0.11220  0.96310  0.39960  1.0000 0.1009463735
H   H4        1.0  0.88780  0.03690  0.89960  1.0000 0.1009463735
H   H5        1.0  0.03690  0.88780  0.10040  1.0000 0.1009463735
H   H6        1.0  0.96310  0.11220  0.60040  1.0000 0.1009463735
H   H7        1.0  0.38780  0.46310  0.35040  1.0000 0.1009463735
H   H8        1.0  0.61220  0.53690  0.85040  1.0000 0.1009463735
H   H9        1.0  0.41330  0.28540  0.71550  1.0000 0.1278391739
H   H10       1.0  0.58670  0.71460  0.21550  1.0000 0.1278391739
H   H11       1.0  0.21460  0.91330  0.46550  1.0000 0.1278391739
H   H12       1.0  0.78540  0.08670  0.96550  1.0000 0.1278391739
H   H13       1.0  0.08670  0.78540  0.03450  1.0000 0.1278391739
H   H14       1.0  0.91330  0.21460  0.53450  1.0000 0.1278391739
H   H15       1.0  0.28540  0.41330  0.28450  1.0000 0.1278391739
H   H16       1.0  0.71460  0.58670  0.78450  1.0000 0.1278391739
H   H17       1.0  0.20990  0.26380  0.60520  1.0000 0.1278391739
H   H18       1.0  0.79010  0.73620  0.10520  1.0000 0.1278391739
H   H19       1.0  0.23620  0.70990  0.35520  1.0000 0.1278391739
H   H20       1.0  0.76380  0.29010  0.85520  1.0000 0.1278391739
H   H21       1.0  0.29010  0.76380  0.14480  1.0000 0.1278391739
H   H22       1.0  0.70990  0.23620  0.64480  1.0000 0.1278391739
H   H23       1.0  0.26380  0.20990  0.39480  1.0000 0.1278391739
H   H24       1.0  0.73620  0.79010  0.89480  1.0000 0.1278391739
H   H25       1.0  0.26970  0.36010  0.54060  1.0000 0.1009463735
H   H26       1.0  0.73030  0.63990  0.04060  1.0000 0.1009463735
H   H27       1.0  0.13990  0.76970  0.29060  1.0000 0.1009463735
H   H28       1.0  0.86010  0.23030  0.79060  1.0000 0.1009463735
H   H29       1.0  0.23030  0.86010  0.20940  1.0000 0.1009463735
H   H30       1.0  0.76970  0.13990  0.70940  1.0000 0.1009463735
H   H31       1.0  0.36010  0.26970  0.45940  1.0000 0.1009463735
H   H32       1.0  0.63990  0.73030  0.95940  1.0000 0.1009463735
H   H33       1.0  0.34620  0.20510  0.78010  1.0000 0.093900251
H   H34       1.0  0.65380  0.79490  0.28010  1.0000 0.093900251
H   H35       1.0  0.29490  0.84620  0.53010  1.0000 0.093900251
H   H36       1.0  0.70510  0.15380  0.03010  1.0000 0.093900251
H   H37       1.0  0.15380  0.70510  0.96990  1.0000 0.093900251
H   H38       1.0  0.84620  0.29490  0.46990  1.0000 0.093900251
H   H39       1.0  0.20510  0.34620  0.21990  1.0000 0.093900251
H   H40       1.0  0.79490  0.65380  0.71990  1.0000 0.093900251
H   H41       1.0  0.29710  0.08930  0.83520  1.0000 0.1009463735
H   H42       1.0  0.70290  0.91070  0.33520  1.0000 0.1009463735
H   H43       1.0  0.41070  0.79710  0.58520  1.0000 0.1009463735
H   H44       1.0  0.58930  0.20290  0.08520  1.0000 0.1009463735
H   H45       1.0  0.20290  0.58930  0.91480  1.0000 0.1009463735
H   H46       1.0  0.79710  0.41070  0.41480  1.0000 0.1009463735
H   H47       1.0  0.08930  0.29710  0.16480  1.0000 0.1009463735
H   H48       1.0  0.91070  0.70290  0.66480  1.0000 0.1009463735
H   H49       1.0  0.19780  0.99760  0.79180  1.0000 0.1009463735
H   H50       1.0  0.80220  0.00240  0.29180  1.0000 0.1009463735
H   H51       1.0  0.50240  0.69780  0.54180  1.0000 0.1009463735
H   H52       1.0  0.49760  0.30220  0.04180  1.0000 0.1009463735
H   H53       1.0  0.30220  0.49760  0.95820  1.0000 0.1009463735
H   H54       1.0  0.69780  0.50240  0.45820  1.0000 0.1009463735
H   H55       1.0  0.99760  0.19780  0.20820  1.0000 0.1009463735
H   H56       1.0  0.00240  0.80220  0.70820  1.0000 0.1009463735
H   H57       1.0  0.19640  0.14030  0.63710  1.0000 0.1099866835
H   H58       1.0  0.80360  0.85970  0.13710  1.0000 0.1099866835
H   H59       1.0  0.35970  0.69640  0.38710  1.0000 0.1099866835
H   H60       1.0  0.64030  0.30360  0.88710  1.0000 0.1099866835
H   H61       1.0  0.30360  0.64030  0.11290  1.0000 0.1099866835
H   H62       1.0  0.69640  0.35970  0.61290  1.0000 0.1099866835
H   H63       1.0  0.14030  0.19640  0.36290  1.0000 0.1099866835
H   H64       1.0  0.85970  0.80360  0.86290  1.0000 0.1099866835
H   H65       1.0  0.95390  0.87830  0.54050  1.0000 0.1099866835
H   H66       1.0  0.04610  0.12170  0.04050  1.0000 0.1099866835
H   H67       1.0  0.62170  0.45390  0.29050  1.0000 0.1099866835
H   H68       1.0  0.37830  0.54610  0.79050  1.0000 0.1099866835
H   H69       1.0  0.54610  0.37830  0.20950  1.0000 0.1099866835
H   H70       1.0  0.45390  0.62170  0.70950  1.0000 0.1099866835
H   H71       1.0  0.87830  0.95390  0.45950  1.0000 0.1099866835
H   H72       1.0  0.12170  0.04610  0.95950  1.0000 0.1099866835
H   H73       1.0  0.93340  0.76590  0.47500  1.0000 0.1099866835
H   H74       1.0  0.06660  0.23410  0.97500  1.0000 0.1099866835
H   H75       1.0  0.73410  0.43340  0.22500  1.0000 0.1099866835
H   H76       1.0  0.26590  0.56660  0.72500  1.0000 0.1099866835
H   H77       1.0  0.56660  0.26590  0.27500  1.0000 0.1099866835
H   H78       1.0  0.43340  0.73410  0.77500  1.0000 0.1099866835
H   H79       1.0  0.76590  0.93340  0.52500  1.0000 0.1099866835
H   H80       1.0  0.23410  0.06660  0.02500  1.0000 0.1099866835
H   H81       1.0  0.03430  0.66240  0.46380  1.0000 0.1099866835
H   H82       1.0  0.96570  0.33760  0.96380  1.0000 0.1099866835
H   H83       1.0  0.83760  0.53430  0.21380  1.0000 0.1099866835
H   H84       1.0  0.16240  0.46570  0.71380  1.0000 0.1099866835
H   H85       1.0  0.46570  0.16240  0.28620  1.0000 0.1099866835
H   H86       1.0  0.53430  0.83760  0.78620  1.0000 0.1099866835
H   H87       1.0  0.66240  0.03430  0.53620  1.0000 0.1099866835
H   H88       1.0  0.33760  0.96570  0.03620  1.0000 0.1099866835
H   H89       1.0  0.17610  0.77710  0.59440  1.0000 0.1009463735
H   H90       1.0  0.82390  0.22290  0.09440  1.0000 0.1009463735
H   H91       1.0  0.72290  0.67610  0.34440  1.0000 0.1009463735
H   H92       1.0  0.27710  0.32390  0.84440  1.0000 0.1009463735
H   H93       1.0  0.32390  0.27710  0.15560  1.0000 0.1009463735
H   H94       1.0  0.67610  0.72290  0.65560  1.0000 0.1009463735
H   H95       1.0  0.77710  0.17610  0.40560  1.0000 0.1009463735
H   H96       1.0  0.22290  0.82390  0.90560  1.0000 0.1009463735
H   H97       1.0  0.14900  0.59870  0.43800  1.0000 0.1278391739
H   H98       1.0  0.85100  0.40130  0.93800  1.0000 0.1278391739
H   H99       1.0  0.90130  0.64900  0.18800  1.0000 0.1278391739
H   H100      1.0  0.09870  0.35100  0.68800  1.0000 0.1278391739
H   H101      1.0  0.35100  0.09870  0.31200  1.0000 0.1278391739
H   H102      1.0  0.64900  0.90130  0.81200  1.0000 0.1278391739
H   H103      1.0  0.59870  0.14900  0.56200  1.0000 0.1278391739
H   H104      1.0  0.40130  0.85100  0.06200  1.0000 0.1278391739
H   H105      1.0  0.25960  0.50480  0.42670  1.0000 0.093900251
H   H106      1.0  0.74040  0.49520  0.92670  1.0000 0.093900251
H   H107      1.0  0.99520  0.75960  0.17670  1.0000 0.093900251
H   H108      1.0  0.00480  0.24040  0.67670  1.0000 0.093900251
H   H109      1.0  0.24040  0.00480  0.32330  1.0000 0.093900251
H   H110      1.0  0.75960  0.99520  0.82330  1.0000 0.093900251
H   H111      1.0  0.50480  0.25960  0.57330  1.0000 0.093900251
H   H112      1.0  0.49520  0.74040  0.07330  1.0000 0.093900251
H   H113      1.0  0.34400  0.56120  0.59110  1.0000 0.1009463735
H   H114      1.0  0.65600  0.43880  0.09110  1.0000 0.1009463735
H   H115      1.0  0.93880  0.84400  0.34110  1.0000 0.1009463735
H   H116      1.0  0.06120  0.15600  0.84110  1.0000 0.1009463735
H   H117      1.0  0.15600  0.06120  0.15890  1.0000 0.1009463735
H   H118      1.0  0.84400  0.93880  0.65890  1.0000 0.1009463735
H   H119      1.0  0.56120  0.34400  0.40890  1.0000 0.1009463735
H   H120      1.0  0.43880  0.65600  0.90890  1.0000 0.1009463735
H   H121      1.0  0.23790  0.65630  0.60710  1.0000 0.1278391739
H   H122      1.0  0.76210  0.34370  0.10710  1.0000 0.1278391739
H   H123      1.0  0.84370  0.73790  0.35710  1.0000 0.1278391739
H   H124      1.0  0.15630  0.26210  0.85710  1.0000 0.1278391739
H   H125      1.0  0.26210  0.15630  0.14290  1.0000 0.1278391739
H   H126      1.0  0.73790  0.84370  0.64290  1.0000 0.1278391739
H   H127      1.0  0.65630  0.23790  0.39290  1.0000 0.1278391739
H   H128      1.0  0.34370  0.76210  0.89290  1.0000 0.1278391739
H   H129      1.0  0.25520  0.97420  0.60410  1.0000 0.2593907628
H   H130      1.0  0.74480  0.02580  0.10410  1.0000 0.2593907628
H   H131      1.0  0.52580  0.75520  0.35410  1.0000 0.2593907628
H   H132      1.0  0.47420  0.24480  0.85410  1.0000 0.2593907628
H   H133      1.0  0.24480  0.47420  0.14590  1.0000 0.2593907628
H   H134      1.0  0.75520  0.52580  0.64590  1.0000 0.2593907628
H   H135      1.0  0.97420  0.25520  0.39590  1.0000 0.2593907628
H   H136      1.0  0.02580  0.74480  0.89590  1.0000 0.2593907628
H   H137      1.0  0.26140  0.90420  0.64930  1.0000 0.2593907628
H   H138      1.0  0.73860  0.09580  0.14930  1.0000 0.2593907628
H   H139      1.0  0.59580  0.76140  0.39930  1.0000 0.2593907628
H   H140      1.0  0.40420  0.23860  0.89930  1.0000 0.2593907628
H   H141      1.0  0.23860  0.40420  0.10070  1.0000 0.2593907628
H   H142      1.0  0.76140  0.59580  0.60070  1.0000 0.2593907628
H   H143      1.0  0.90420  0.26140  0.35070  1.0000 0.2593907628
H   H144      1.0  0.09580  0.73860  0.85070  1.0000 0.2593907628
C   C1        1.0  0.41250  0.35930  0.63900  1.0000 0.068863628
C   C2        1.0  0.58750  0.64070  0.13900  1.0000 0.068863628
C   C3        1.0  0.14070  0.91250  0.38900  1.0000 0.068863628
C   C4        1.0  0.85930  0.08750  0.88900  1.0000 0.068863628
C   C5        1.0  0.08750  0.85930  0.11100  1.0000 0.068863628
C   C6        1.0  0.91250  0.14070  0.61100  1.0000 0.068863628
C   C7        1.0  0.35930  0.41250  0.36100  1.0000 0.068863628
C   C8        1.0  0.64070  0.58750  0.86100  1.0000 0.068863628
C   C9        1.0  0.38300  0.29840  0.67900  1.0000 -0.1990489673
C   C10       1.0  0.61700  0.70160  0.17900  1.0000 -0.1990489673
C   C11       1.0  0.20160  0.88300  0.42900  1.0000 -0.1990489673
C   C12       1.0  0.79840  0.11700  0.92900  1.0000 -0.1990489673
C   C13       1.0  0.11700  0.79840  0.07100  1.0000 -0.1990489673
C   C14       1.0  0.88300  0.20160  0.57100  1.0000 -0.1990489673
C   C15       1.0  0.29840  0.38300  0.32100  1.0000 -0.1990489673
C   C16       1.0  0.70160  0.61700  0.82100  1.0000 -0.1990489673
C   C17       1.0  0.30870  0.25620  0.66530  1.0000 0.1177073119
C   C18       1.0  0.69130  0.74380  0.16530  1.0000 0.1177073119
C   C19       1.0  0.24380  0.80870  0.41530  1.0000 0.1177073119
C   C20       1.0  0.75620  0.19130  0.91530  1.0000 0.1177073119
C   C21       1.0  0.19130  0.75620  0.08470  1.0000 0.1177073119
C   C22       1.0  0.80870  0.24380  0.58470  1.0000 0.1177073119
C   C23       1.0  0.25620  0.30870  0.33470  1.0000 0.1177073119
C   C24       1.0  0.74380  0.69130  0.83470  1.0000 0.1177073119
C   C25       1.0  0.26450  0.28510  0.61400  1.0000 -0.1909479883
C   C26       1.0  0.73550  0.71490  0.11400  1.0000 -0.1909479883
C   C27       1.0  0.21490  0.76450  0.36400  1.0000 -0.1909479883
C   C28       1.0  0.78510  0.23550  0.86400  1.0000 -0.1909479883
C   C29       1.0  0.23550  0.78510  0.13600  1.0000 -0.1909479883
C   C30       1.0  0.76450  0.21490  0.63600  1.0000 -0.1909479883
C   C31       1.0  0.28510  0.26450  0.38600  1.0000 -0.1909479883
C   C32       1.0  0.71490  0.73550  0.88600  1.0000 -0.1909479883
C   C33       1.0  0.29990  0.34390  0.57650  1.0000 0.0370698355
C   C34       1.0  0.70010  0.65610  0.07650  1.0000 0.0370698355
C   C35       1.0  0.15610  0.79990  0.32650  1.0000 0.0370698355
C   C36       1.0  0.84390  0.20010  0.82650  1.0000 0.0370698355
C   C37       1.0  0.20010  0.84390  0.17350  1.0000 0.0370698355
C   C38       1.0  0.79990  0.15610  0.67350  1.0000 0.0370698355
C   C39       1.0  0.34390  0.29990  0.42350  1.0000 0.0370698355
C   C40       1.0  0.65610  0.70010  0.92350  1.0000 0.0370698355
C   C41       1.0  0.27720  0.18350  0.70240  1.0000 0.068863628
C   C42       1.0  0.72280  0.81650  0.20240  1.0000 0.068863628
C   C43       1.0  0.31650  0.77720  0.45240  1.0000 0.068863628
C   C44       1.0  0.68350  0.22280  0.95240  1.0000 0.068863628
C   C45       1.0  0.22280  0.68350  0.04760  1.0000 0.068863628
C   C46       1.0  0.77720  0.31650  0.54760  1.0000 0.068863628
C   C47       1.0  0.18350  0.27720  0.29760  1.0000 0.068863628
C   C48       1.0  0.81650  0.72280  0.79760  1.0000 0.068863628
C   C49       1.0  0.30620  0.16820  0.76190  1.0000 -0.1655259181
C   C50       1.0  0.69380  0.83180  0.26190  1.0000 -0.1655259181
C   C51       1.0  0.33180  0.80620  0.51190  1.0000 -0.1655259181
C   C52       1.0  0.66820  0.19380  0.01190  1.0000 -0.1655259181
C   C53       1.0  0.19380  0.66820  0.98810  1.0000 -0.1655259181
C   C54       1.0  0.80620  0.33180  0.48810  1.0000 -0.1655259181
C   C55       1.0  0.16820  0.30620  0.23810  1.0000 -0.1655259181
C   C56       1.0  0.83180  0.69380  0.73810  1.0000 -0.1655259181
C   C57       1.0  0.27670  0.09940  0.79470  1.0000 -0.1035035516
C   C58       1.0  0.72330  0.90060  0.29470  1.0000 -0.1035035516
C   C59       1.0  0.40060  0.77670  0.54470  1.0000 -0.1035035516
C   C60       1.0  0.59940  0.22330  0.04470  1.0000 -0.1035035516
C   C61       1.0  0.22330  0.59940  0.95530  1.0000 -0.1035035516
C   C62       1.0  0.77670  0.40060  0.45530  1.0000 -0.1035035516
C   C63       1.0  0.09940  0.27670  0.20530  1.0000 -0.1035035516
C   C64       1.0  0.90060  0.72330  0.70530  1.0000 -0.1035035516
C   C65       1.0  0.21760  0.04480  0.76920  1.0000 -0.1593730144
C   C66       1.0  0.78240  0.95520  0.26920  1.0000 -0.1593730144
C   C67       1.0  0.45520  0.71760  0.51920  1.0000 -0.1593730144
C   C68       1.0  0.54480  0.28240  0.01920  1.0000 -0.1593730144
C   C69       1.0  0.28240  0.54480  0.98080  1.0000 -0.1593730144
C   C70       1.0  0.71760  0.45520  0.48080  1.0000 -0.1593730144
C   C71       1.0  0.04480  0.21760  0.23080  1.0000 -0.1593730144
C   C72       1.0  0.95520  0.78240  0.73080  1.0000 -0.1593730144
C   C73       1.0  0.18800  0.06100  0.70950  1.0000 0.0151328694
C   C74       1.0  0.81200  0.93900  0.20950  1.0000 0.0151328694
C   C75       1.0  0.43900  0.68800  0.45950  1.0000 0.0151328694
C   C76       1.0  0.56100  0.31200  0.95950  1.0000 0.0151328694
C   C77       1.0  0.31200  0.56100  0.04050  1.0000 0.0151328694
C   C78       1.0  0.68800  0.43900  0.54050  1.0000 0.0151328694
C   C79       1.0  0.06100  0.18800  0.29050  1.0000 0.0151328694
C   C80       1.0  0.93900  0.81200  0.79050  1.0000 0.0151328694
C   C81       1.0  0.21740  0.12960  0.67730  1.0000 -0.1909479883
C   C82       1.0  0.78260  0.87040  0.17730  1.0000 -0.1909479883
C   C83       1.0  0.37040  0.71740  0.42730  1.0000 -0.1909479883
C   C84       1.0  0.62960  0.28260  0.92730  1.0000 -0.1909479883
C   C85       1.0  0.28260  0.62960  0.07270  1.0000 -0.1909479883
C   C86       1.0  0.71740  0.37040  0.57270  1.0000 -0.1909479883
C   C87       1.0  0.12960  0.21740  0.32270  1.0000 -0.1909479883
C   C88       1.0  0.87040  0.78260  0.82270  1.0000 -0.1909479883
C   C89       1.0  0.12650  0.00540  0.67990  1.0000 0.1804571625
C   C90       1.0  0.87350  0.99460  0.17990  1.0000 0.1804571625
C   C91       1.0  0.49460  0.62650  0.42990  1.0000 0.1804571625
C   C92       1.0  0.50540  0.37350  0.92990  1.0000 0.1804571625
C   C93       1.0  0.37350  0.50540  0.07010  1.0000 0.1804571625
C   C94       1.0  0.62650  0.49460  0.57010  1.0000 0.1804571625
C   C95       1.0  0.00540  0.12650  0.32010  1.0000 0.1804571625
C   C96       1.0  0.99460  0.87350  0.82010  1.0000 0.1804571625
C   C97       1.0  0.07550  0.90830  0.61830  1.0000 0.1804571625
C   C98       1.0  0.92450  0.09170  0.11830  1.0000 0.1804571625
C   C99       1.0  0.59170  0.57550  0.36830  1.0000 0.1804571625
C   C100      1.0  0.40830  0.42450  0.86830  1.0000 0.1804571625
C   C101      1.0  0.42450  0.40830  0.13170  1.0000 0.1804571625
C   C102      1.0  0.57550  0.59170  0.63170  1.0000 0.1804571625
C   C103      1.0  0.90830  0.07550  0.38170  1.0000 0.1804571625
C   C104      1.0  0.09170  0.92450  0.88170  1.0000 0.1804571625
C   C105      1.0  0.06730  0.83860  0.57440  1.0000 0.0370698355
C   C106      1.0  0.93270  0.16140  0.07440  1.0000 0.0370698355
C   C107      1.0  0.66140  0.56730  0.32440  1.0000 0.0370698355
C   C108      1.0  0.33860  0.43270  0.82440  1.0000 0.0370698355
C   C109      1.0  0.43270  0.33860  0.17560  1.0000 0.0370698355
C   C110      1.0  0.56730  0.66140  0.67560  1.0000 0.0370698355
C   C111      1.0  0.83860  0.06730  0.42560  1.0000 0.0370698355
C   C112      1.0  0.16140  0.93270  0.92560  1.0000 0.0370698355
C   C113      1.0  0.99500  0.83490  0.53790  1.0000 -0.1522343244
C   C114      1.0  0.00500  0.16510  0.03790  1.0000 -0.1522343244
C   C115      1.0  0.66510  0.49500  0.28790  1.0000 -0.1522343244
C   C116      1.0  0.33490  0.50500  0.78790  1.0000 -0.1522343244
C   C117      1.0  0.50500  0.33490  0.21210  1.0000 -0.1522343244
C   C118      1.0  0.49500  0.66510  0.71210  1.0000 -0.1522343244
C   C119      1.0  0.83490  0.99500  0.46210  1.0000 -0.1522343244
C   C120      1.0  0.16510  0.00500  0.96210  1.0000 -0.1522343244
C   C121      1.0  0.98360  0.76880  0.49870  1.0000 -0.1035035516
C   C122      1.0  0.01640  0.23120  0.99870  1.0000 -0.1035035516
C   C123      1.0  0.73120  0.48360  0.24870  1.0000 -0.1035035516
C   C124      1.0  0.26880  0.51640  0.74870  1.0000 -0.1035035516
C   C125      1.0  0.51640  0.26880  0.25130  1.0000 -0.1035035516
C   C126      1.0  0.48360  0.73120  0.75130  1.0000 -0.1035035516
C   C127      1.0  0.76880  0.98360  0.50130  1.0000 -0.1035035516
C   C128      1.0  0.23120  0.01640  0.00130  1.0000 -0.1035035516
C   C129      1.0  0.04280  0.70660  0.49260  1.0000 -0.1593730144
C   C130      1.0  0.95720  0.29340  0.99260  1.0000 -0.1593730144
C   C131      1.0  0.79340  0.54280  0.24260  1.0000 -0.1593730144
C   C132      1.0  0.20660  0.45720  0.74260  1.0000 -0.1593730144
C   C133      1.0  0.45720  0.20660  0.25740  1.0000 -0.1593730144
C   C134      1.0  0.54280  0.79340  0.75740  1.0000 -0.1593730144
C   C135      1.0  0.70660  0.04280  0.50740  1.0000 -0.1593730144
C   C136      1.0  0.29340  0.95720  0.00740  1.0000 -0.1593730144
C   C137      1.0  0.11560  0.70800  0.52870  1.0000 0.068863628
C   C138      1.0  0.88440  0.29200  0.02870  1.0000 0.068863628
C   C139      1.0  0.79200  0.61560  0.27870  1.0000 0.068863628
C   C140      1.0  0.20800  0.38440  0.77870  1.0000 0.068863628
C   C141      1.0  0.38440  0.20800  0.22130  1.0000 0.068863628
C   C142      1.0  0.61560  0.79200  0.72130  1.0000 0.068863628
C   C143      1.0  0.70800  0.11560  0.47130  1.0000 0.068863628
C   C144      1.0  0.29200  0.88440  0.97130  1.0000 0.068863628
C   C145      1.0  0.12690  0.77500  0.56960  1.0000 -0.1909479883
C   C146      1.0  0.87310  0.22500  0.06960  1.0000 -0.1909479883
C   C147      1.0  0.72500  0.62690  0.31960  1.0000 -0.1909479883
C   C148      1.0  0.27500  0.37310  0.81960  1.0000 -0.1909479883
C   C149      1.0  0.37310  0.27500  0.18040  1.0000 -0.1909479883
C   C150      1.0  0.62690  0.72500  0.68040  1.0000 -0.1909479883
C   C151      1.0  0.77500  0.12690  0.43040  1.0000 -0.1909479883
C   C152      1.0  0.22500  0.87310  0.93040  1.0000 -0.1909479883
C   C153      1.0  0.18170  0.64210  0.52210  1.0000 0.1099866835
C   C154      1.0  0.81830  0.35790  0.02210  1.0000 0.1099866835
C   C155      1.0  0.85790  0.68170  0.27210  1.0000 0.1099866835
C   C156      1.0  0.14210  0.31830  0.77210  1.0000 0.1099866835
C   C157      1.0  0.31830  0.14210  0.22790  1.0000 0.1099866835
C   C158      1.0  0.68170  0.85790  0.72790  1.0000 0.1099866835
C   C159      1.0  0.64210  0.18170  0.47790  1.0000 0.1099866835
C   C160      1.0  0.35790  0.81830  0.97790  1.0000 0.1099866835
C   C161      1.0  0.18930  0.59340  0.47000  1.0000 -0.1990489673
C   C162      1.0  0.81070  0.40660  0.97000  1.0000 -0.1990489673
C   C163      1.0  0.90660  0.68930  0.22000  1.0000 -0.1990489673
C   C164      1.0  0.09340  0.31070  0.72000  1.0000 -0.1990489673
C   C165      1.0  0.31070  0.09340  0.28000  1.0000 -0.1990489673
C   C166      1.0  0.68930  0.90660  0.78000  1.0000 -0.1990489673
C   C167      1.0  0.59340  0.18930  0.53000  1.0000 -0.1990489673
C   C168      1.0  0.40660  0.81070  0.03000  1.0000 -0.1990489673
C   C169      1.0  0.25540  0.53640  0.46370  1.0000 0.0765353448
C   C170      1.0  0.74460  0.46360  0.96370  1.0000 0.0765353448
C   C171      1.0  0.96360  0.75540  0.21370  1.0000 0.0765353448
C   C172      1.0  0.03640  0.24460  0.71370  1.0000 0.0765353448
C   C173      1.0  0.24460  0.03640  0.28630  1.0000 0.0765353448
C   C174      1.0  0.75540  0.96360  0.78630  1.0000 0.0765353448
C   C175      1.0  0.53640  0.25540  0.53630  1.0000 0.0765353448
C   C176      1.0  0.46360  0.74460  0.03630  1.0000 0.0765353448
C   C177      1.0  0.30400  0.56960  0.55910  1.0000 0.068863628
C   C178      1.0  0.69600  0.43040  0.05910  1.0000 0.068863628
C   C179      1.0  0.93040  0.80400  0.30910  1.0000 0.068863628
C   C180      1.0  0.06960  0.19600  0.80910  1.0000 0.068863628
C   C181      1.0  0.19600  0.06960  0.19090  1.0000 0.068863628
C   C182      1.0  0.80400  0.93040  0.69090  1.0000 0.068863628
C   C183      1.0  0.56960  0.30400  0.44090  1.0000 0.068863628
C   C184      1.0  0.43040  0.69600  0.94090  1.0000 0.068863628
C   C185      1.0  0.24130  0.62690  0.56900  1.0000 -0.1990489673
C   C186      1.0  0.75870  0.37310  0.06900  1.0000 -0.1990489673
C   C187      1.0  0.87310  0.74130  0.31900  1.0000 -0.1990489673
C   C188      1.0  0.12690  0.25870  0.81900  1.0000 -0.1990489673
C   C189      1.0  0.25870  0.12690  0.18100  1.0000 -0.1990489673
C   C190      1.0  0.74130  0.87310  0.68100  1.0000 -0.1990489673
C   C191      1.0  0.62690  0.24130  0.43100  1.0000 -0.1990489673
C   C192      1.0  0.37310  0.75870  0.93100  1.0000 -0.1990489673
N   N1        1.0  0.37470  0.38040  0.58700  1.0000 -0.2293383444
N   N2        1.0  0.62530  0.61960  0.08700  1.0000 -0.2293383444
N   N3        1.0  0.11960  0.87470  0.33700  1.0000 -0.2293383444
N   N4        1.0  0.88040  0.12530  0.83700  1.0000 -0.2293383444
N   N5        1.0  0.12530  0.88040  0.16300  1.0000 -0.2293383444
N   N6        1.0  0.87470  0.11960  0.66300  1.0000 -0.2293383444
N   N7        1.0  0.38040  0.37470  0.41300  1.0000 -0.2293383444
N   N8        1.0  0.61960  0.62530  0.91300  1.0000 -0.2293383444
N   N9        1.0  0.04440  0.00610  0.68370  1.0000 -0.2293383444
N   N10       1.0  0.95560  0.99390  0.18370  1.0000 -0.2293383444
N   N11       1.0  0.49390  0.54440  0.43370  1.0000 -0.2293383444
N   N12       1.0  0.50610  0.45560  0.93370  1.0000 -0.2293383444
N   N13       1.0  0.45560  0.50610  0.06630  1.0000 -0.2293383444
N   N14       1.0  0.54440  0.49390  0.56630  1.0000 -0.2293383444
N   N15       1.0  0.00610  0.04440  0.31630  1.0000 -0.2293383444
N   N16       1.0  0.99390  0.95560  0.81630  1.0000 -0.2293383444
N   N17       1.0  0.01220  0.94510  0.64520  1.0000 -0.2704465549
N   N18       1.0  0.98780  0.05490  0.14520  1.0000 -0.2704465549
N   N19       1.0  0.55490  0.51220  0.39520  1.0000 -0.2704465549
N   N20       1.0  0.44510  0.48780  0.89520  1.0000 -0.2704465549
N   N21       1.0  0.48780  0.44510  0.10480  1.0000 -0.2704465549
N   N22       1.0  0.51220  0.55490  0.60480  1.0000 -0.2704465549
N   N23       1.0  0.94510  0.01220  0.35480  1.0000 -0.2704465549
N   N24       1.0  0.05490  0.98780  0.85480  1.0000 -0.2704465549
N   N25       1.0  0.14870  0.94450  0.63890  1.0000 0.0621557821
N   N26       1.0  0.85130  0.05550  0.13890  1.0000 0.0621557821
N   N27       1.0  0.55550  0.64870  0.38890  1.0000 0.0621557821
N   N28       1.0  0.44450  0.35130  0.88890  1.0000 0.0621557821
N   N29       1.0  0.35130  0.44450  0.11110  1.0000 0.0621557821
N   N30       1.0  0.64870  0.55550  0.61110  1.0000 0.0621557821
N   N31       1.0  0.94450  0.14870  0.36110  1.0000 0.0621557821
N   N32       1.0  0.05550  0.85130  0.86110  1.0000 0.0621557821
N   N33       1.0  0.23050  0.92600  0.61780  1.0000 -0.4983783376
N   N34       1.0  0.76950  0.07400  0.11780  1.0000 -0.4983783376
N   N35       1.0  0.57400  0.73050  0.36780  1.0000 -0.4983783376
N   N36       1.0  0.42600  0.26950  0.86780  1.0000 -0.4983783376
N   N37       1.0  0.26950  0.42600  0.13220  1.0000 -0.4983783376
N   N38       1.0  0.73050  0.57400  0.63220  1.0000 -0.4983783376
N   N39       1.0  0.92600  0.23050  0.38220  1.0000 -0.4983783376
N   N40       1.0  0.07400  0.76950  0.88220  1.0000 -0.4983783376
N   N41       1.0  0.31300  0.52450  0.50750  1.0000 -0.2378327858
N   N42       1.0  0.68700  0.47550  0.00750  1.0000 -0.2378327858
N   N43       1.0  0.97550  0.81300  0.25750  1.0000 -0.2378327858
N   N44       1.0  0.02450  0.18700  0.75750  1.0000 -0.2378327858
N   N45       1.0  0.18700  0.02450  0.24250  1.0000 -0.2378327858
N   N46       1.0  0.81300  0.97550  0.74250  1.0000 -0.2378327858
N   N47       1.0  0.52450  0.31300  0.49250  1.0000 -0.2378327858
N   N48       1.0  0.47550  0.68700  0.99250  1.0000 -0.2378327858
Cl  Cl1       1.0  0.12082  0.12082  0.50000  1.0000 1.0175279964
Cl  Cl2       1.0  0.87918  0.87918  0.00000  1.0000 1.0175279964
Cl  Cl3       1.0  0.62082  0.37918  0.75000  1.0000 1.0175279964
Cl  Cl4       1.0  0.37918  0.62082  0.25000  1.0000 1.0175279964
O   O1        1.0  0.17700  0.11280  0.45600  1.0000 -0.3646585654
O   O2        1.0  0.11280  0.17700  0.54400  1.0000 -0.3646585654
O   O3        1.0  0.05810  0.13480  0.46550  1.0000 -0.3411028992
O   O4        1.0  0.13480  0.05810  0.53450  1.0000 -0.3411028992
O   O5        1.0  0.82300  0.88720  0.95600  1.0000 -0.3646585654
O   O6        1.0  0.88720  0.82300  0.04400  1.0000 -0.3646585654
O   O7        1.0  0.94190  0.86520  0.96550  1.0000 -0.3411028992
O   O8        1.0  0.86520  0.94190  0.03450  1.0000 -0.3411028992
O   O9        1.0  0.61280  0.32300  0.70600  1.0000 -0.3646585654
O   O10       1.0  0.67700  0.38720  0.79400  1.0000 -0.3646585654
O   O11       1.0  0.63480  0.44190  0.71550  1.0000 -0.3411028992
O   O12       1.0  0.55810  0.36520  0.78450  1.0000 -0.3411028992
O   O13       1.0  0.38720  0.67700  0.20600  1.0000 -0.3646585654
O   O14       1.0  0.32300  0.61280  0.29400  1.0000 -0.3646585654
O   O15       1.0  0.36520  0.55810  0.21550  1.0000 -0.3411028992
O   O16       1.0  0.44190  0.63480  0.28450  1.0000 -0.3411028992
