# DDEC6 charges by PACMAN v1.1 (https://github.com/mtap-research/PACMAN-charge/)
data_2010[Cu][bor]3[ION]2
_chemical_formula_sum              "Cu62 H144 C96 S56 Br8 N192 O32"
_cell_length_a       25.7385
_cell_length_b       25.7385
_cell_length_c       25.7385
_cell_angle_alpha    60
_cell_angle_beta     60
_cell_angle_gamma    60

_symmetry_space_group_name_H-M    "P 1"
_symmetry_Int_Tables_number       1

loop_
  _symmetry_equiv_pos_as_xyz
  'x, y, z'

loop_
  _atom_site_type_symbol
  _atom_site_label
  _atom_site_symmetry_multiplicity
  _atom_site_fract_x
  _atom_site_fract_y
  _atom_site_fract_z
  _atom_site_occupancy
  _atom_site_charge
Cu  Cu1       1.0  0.44379  0.85207  0.85207  1.0000 0.238929846
Cu  Cu2       1.0  0.85207  0.44379  0.85207  1.0000 0.238929846
Cu  Cu3       1.0  0.85207  0.85207  0.44379  1.0000 0.238929846
Cu  Cu4       1.0  0.85207  0.85207  0.85207  1.0000 0.238929846
Cu  Cu5       1.0  0.35207  0.94379  0.35207  1.0000 0.238929846
Cu  Cu6       1.0  0.94379  0.35207  0.35207  1.0000 0.238929846
Cu  Cu7       1.0  0.35207  0.35207  0.94379  1.0000 0.238929846
Cu  Cu8       1.0  0.35207  0.35207  0.35207  1.0000 0.238929846
Cu  Cu9       1.0  0.36623  0.80541  0.97483  1.0000 0.2994437758
Cu  Cu10      1.0  0.80541  0.36623  0.85353  1.0000 0.2994437758
Cu  Cu11      1.0  0.97483  0.85353  0.36623  1.0000 0.2994437758
Cu  Cu12      1.0  0.85353  0.97483  0.80541  1.0000 0.2994437758
Cu  Cu13      1.0  0.97483  0.36623  0.80541  1.0000 0.2994437758
Cu  Cu14      1.0  0.85353  0.80541  0.36623  1.0000 0.2994437758
Cu  Cu15      1.0  0.36623  0.97483  0.85353  1.0000 0.2994437758
Cu  Cu16      1.0  0.80541  0.85353  0.97483  1.0000 0.2994437758
Cu  Cu17      1.0  0.80541  0.97483  0.36623  1.0000 0.2994437758
Cu  Cu18      1.0  0.36623  0.85353  0.80541  1.0000 0.2994437758
Cu  Cu19      1.0  0.85353  0.36623  0.97483  1.0000 0.2994437758
Cu  Cu20      1.0  0.97483  0.80541  0.85353  1.0000 0.2994437758
Cu  Cu21      1.0  0.30541  0.86623  0.47483  1.0000 0.2994437758
Cu  Cu22      1.0  0.86623  0.30541  0.35353  1.0000 0.2994437758
Cu  Cu23      1.0  0.35353  0.47483  0.86623  1.0000 0.2994437758
Cu  Cu24      1.0  0.47483  0.35353  0.30541  1.0000 0.2994437758
Cu  Cu25      1.0  0.86623  0.47483  0.30541  1.0000 0.2994437758
Cu  Cu26      1.0  0.30541  0.35353  0.86623  1.0000 0.2994437758
Cu  Cu27      1.0  0.47483  0.86623  0.35353  1.0000 0.2994437758
Cu  Cu28      1.0  0.35353  0.30541  0.47483  1.0000 0.2994437758
Cu  Cu29      1.0  0.47483  0.30541  0.86623  1.0000 0.2994437758
Cu  Cu30      1.0  0.35353  0.86623  0.30541  1.0000 0.2994437758
Cu  Cu31      1.0  0.86623  0.35353  0.47483  1.0000 0.2994437758
Cu  Cu32      1.0  0.30541  0.47483  0.35353  1.0000 0.2994437758
Cu  Cu33      1.0  0.33309  0.77625  0.13007  1.0000 0.2904251664
Cu  Cu34      1.0  0.77625  0.33309  0.76059  1.0000 0.2904251664
Cu  Cu35      1.0  0.13007  0.76059  0.33309  1.0000 0.2904251664
Cu  Cu36      1.0  0.76059  0.13007  0.77625  1.0000 0.2904251664
Cu  Cu37      1.0  0.13007  0.33309  0.77625  1.0000 0.2904251664
Cu  Cu38      1.0  0.76059  0.77625  0.33309  1.0000 0.2904251664
Cu  Cu39      1.0  0.33309  0.13007  0.76059  1.0000 0.2904251664
Cu  Cu40      1.0  0.77625  0.76059  0.13007  1.0000 0.2904251664
Cu  Cu41      1.0  0.77625  0.13007  0.33309  1.0000 0.2904251664
Cu  Cu42      1.0  0.33309  0.76059  0.77625  1.0000 0.2904251664
Cu  Cu43      1.0  0.76059  0.33309  0.13007  1.0000 0.2904251664
Cu  Cu44      1.0  0.13007  0.77625  0.76059  1.0000 0.2904251664
Cu  Cu45      1.0  0.27625  0.83309  0.63007  1.0000 0.2904251664
Cu  Cu46      1.0  0.83309  0.27625  0.26059  1.0000 0.2904251664
Cu  Cu47      1.0  0.26059  0.63007  0.83309  1.0000 0.2904251664
Cu  Cu48      1.0  0.63007  0.26059  0.27625  1.0000 0.2904251664
Cu  Cu49      1.0  0.83309  0.63007  0.27625  1.0000 0.2904251664
Cu  Cu50      1.0  0.27625  0.26059  0.83309  1.0000 0.2904251664
Cu  Cu51      1.0  0.63007  0.83309  0.26059  1.0000 0.2904251664
Cu  Cu52      1.0  0.26059  0.27625  0.63007  1.0000 0.2904251664
Cu  Cu53      1.0  0.63007  0.27625  0.83309  1.0000 0.2904251664
Cu  Cu54      1.0  0.26059  0.83309  0.27625  1.0000 0.2904251664
Cu  Cu55      1.0  0.83309  0.26059  0.63007  1.0000 0.2904251664
Cu  Cu56      1.0  0.27625  0.63007  0.26059  1.0000 0.2904251664
Cu  Cu57      1.0  0.25000  0.75000  0.25000  1.0000 0.1835085502
Cu  Cu58      1.0  0.75000  0.25000  0.75000  1.0000 0.1835085502
Cu  Cu59      1.0  0.25000  0.25000  0.75000  1.0000 0.1835085502
Cu  Cu60      1.0  0.75000  0.75000  0.25000  1.0000 0.1852377287
Cu  Cu61      1.0  0.75000  0.25000  0.25000  1.0000 0.1835085502
Cu  Cu62      1.0  0.25000  0.75000  0.75000  1.0000 0.1835085502
H   H1        1.0  0.19020  0.71660  0.11160  1.0000 0.3107337772
H   H2        1.0  0.71660  0.19020  0.98160  1.0000 0.3107337772
H   H3        1.0  0.11160  0.98160  0.19020  1.0000 0.3107337772
H   H4        1.0  0.98160  0.11160  0.71660  1.0000 0.3107337772
H   H5        1.0  0.11160  0.19020  0.71660  1.0000 0.3107337772
H   H6        1.0  0.98160  0.71660  0.19020  1.0000 0.3107337772
H   H7        1.0  0.19020  0.11160  0.98160  1.0000 0.3107337772
H   H8        1.0  0.71660  0.98160  0.11160  1.0000 0.3107337772
H   H9        1.0  0.71660  0.11160  0.19020  1.0000 0.3107337772
H   H10       1.0  0.19020  0.98160  0.71660  1.0000 0.3107337772
H   H11       1.0  0.98160  0.19020  0.11160  1.0000 0.3107337772
H   H12       1.0  0.11160  0.71660  0.98160  1.0000 0.3107337772
H   H13       1.0  0.21660  0.69020  0.61160  1.0000 0.3107337772
H   H14       1.0  0.69020  0.21660  0.48160  1.0000 0.3107337772
H   H15       1.0  0.48160  0.61160  0.69020  1.0000 0.3107337772
H   H16       1.0  0.61160  0.48160  0.21660  1.0000 0.3107337772
H   H17       1.0  0.69020  0.61160  0.21660  1.0000 0.3107337772
H   H18       1.0  0.21660  0.48160  0.69020  1.0000 0.3107337772
H   H19       1.0  0.61160  0.69020  0.48160  1.0000 0.3107337772
H   H20       1.0  0.48160  0.21660  0.61160  1.0000 0.3107337772
H   H21       1.0  0.61160  0.21660  0.69020  1.0000 0.3107337772
H   H22       1.0  0.48160  0.69020  0.21660  1.0000 0.3107337772
H   H23       1.0  0.69020  0.48160  0.61160  1.0000 0.3107337772
H   H24       1.0  0.21660  0.61160  0.48160  1.0000 0.3107337772
H   H25       1.0  0.28520  0.76080  0.95200  1.0000 0.2994437758
H   H26       1.0  0.76080  0.28520  0.00200  1.0000 0.2994437758
H   H27       1.0  0.95200  0.00200  0.28520  1.0000 0.2994437758
H   H28       1.0  0.00200  0.95200  0.76080  1.0000 0.2994437758
H   H29       1.0  0.95200  0.28520  0.76080  1.0000 0.2994437758
H   H30       1.0  0.00200  0.76080  0.28520  1.0000 0.2994437758
H   H31       1.0  0.28520  0.95200  0.00200  1.0000 0.2994437758
H   H32       1.0  0.76080  0.00200  0.95200  1.0000 0.2994437758
H   H33       1.0  0.76080  0.95200  0.28520  1.0000 0.2994437758
H   H34       1.0  0.28520  0.00200  0.76080  1.0000 0.2994437758
H   H35       1.0  0.00200  0.28520  0.95200  1.0000 0.2994437758
H   H36       1.0  0.95200  0.76080  0.00200  1.0000 0.2994437758
H   H37       1.0  0.26080  0.78520  0.45200  1.0000 0.2994437758
H   H38       1.0  0.78520  0.26080  0.50200  1.0000 0.2994437758
H   H39       1.0  0.50200  0.45200  0.78520  1.0000 0.2994437758
H   H40       1.0  0.45200  0.50200  0.26080  1.0000 0.2994437758
H   H41       1.0  0.78520  0.45200  0.26080  1.0000 0.2994437758
H   H42       1.0  0.26080  0.50200  0.78520  1.0000 0.2994437758
H   H43       1.0  0.45200  0.78520  0.50200  1.0000 0.2994437758
H   H44       1.0  0.50200  0.26080  0.45200  1.0000 0.2994437758
H   H45       1.0  0.45200  0.26080  0.78520  1.0000 0.2994437758
H   H46       1.0  0.50200  0.78520  0.26080  1.0000 0.2994437758
H   H47       1.0  0.78520  0.50200  0.45200  1.0000 0.2994437758
H   H48       1.0  0.26080  0.45200  0.50200  1.0000 0.2994437758
H   H49       1.0  0.22940  0.73840  0.99260  1.0000 0.3107337772
H   H50       1.0  0.73840  0.22940  0.03960  1.0000 0.3107337772
H   H51       1.0  0.99260  0.03960  0.22940  1.0000 0.3107337772
H   H52       1.0  0.03960  0.99260  0.73840  1.0000 0.3107337772
H   H53       1.0  0.99260  0.22940  0.73840  1.0000 0.3107337772
H   H54       1.0  0.03960  0.73840  0.22940  1.0000 0.3107337772
H   H55       1.0  0.22940  0.99260  0.03960  1.0000 0.3107337772
H   H56       1.0  0.73840  0.03960  0.99260  1.0000 0.3107337772
H   H57       1.0  0.73840  0.99260  0.22940  1.0000 0.3107337772
H   H58       1.0  0.22940  0.03960  0.73840  1.0000 0.3107337772
H   H59       1.0  0.03960  0.22940  0.99260  1.0000 0.3107337772
H   H60       1.0  0.99260  0.73840  0.03960  1.0000 0.3107337772
H   H61       1.0  0.23840  0.72940  0.49260  1.0000 0.3107337772
H   H62       1.0  0.72940  0.23840  0.53960  1.0000 0.3107337772
H   H63       1.0  0.53960  0.49260  0.72940  1.0000 0.3107337772
H   H64       1.0  0.49260  0.53960  0.23840  1.0000 0.3107337772
H   H65       1.0  0.72940  0.49260  0.23840  1.0000 0.3107337772
H   H66       1.0  0.23840  0.53960  0.72940  1.0000 0.3107337772
H   H67       1.0  0.49260  0.72940  0.53960  1.0000 0.3107337772
H   H68       1.0  0.53960  0.23840  0.49260  1.0000 0.3107337772
H   H69       1.0  0.49260  0.23840  0.72940  1.0000 0.3107337772
H   H70       1.0  0.53960  0.72940  0.23840  1.0000 0.3107337772
H   H71       1.0  0.72940  0.53960  0.49260  1.0000 0.3107337772
H   H72       1.0  0.23840  0.49260  0.53960  1.0000 0.3107337772
H   H73       1.0  0.44860  0.63040  0.93040  1.0000 0.3292368447
H   H74       1.0  0.63040  0.44860  0.99060  1.0000 0.3292368447
H   H75       1.0  0.93040  0.99060  0.44860  1.0000 0.3292368447
H   H76       1.0  0.99060  0.93040  0.63040  1.0000 0.3292368447
H   H77       1.0  0.93040  0.44860  0.63040  1.0000 0.3292368447
H   H78       1.0  0.99060  0.63040  0.44860  1.0000 0.3292368447
H   H79       1.0  0.44860  0.93040  0.99060  1.0000 0.3292368447
H   H80       1.0  0.63040  0.99060  0.93040  1.0000 0.3292368447
H   H81       1.0  0.63040  0.93040  0.44860  1.0000 0.3292368447
H   H82       1.0  0.44860  0.99060  0.63040  1.0000 0.3292368447
H   H83       1.0  0.99060  0.44860  0.93040  1.0000 0.3292368447
H   H84       1.0  0.93040  0.63040  0.99060  1.0000 0.3292368447
H   H85       1.0  0.13040  0.94860  0.43040  1.0000 0.3292368447
H   H86       1.0  0.94860  0.13040  0.49060  1.0000 0.3292368447
H   H87       1.0  0.49060  0.43040  0.94860  1.0000 0.3292368447
H   H88       1.0  0.43040  0.49060  0.13040  1.0000 0.3292368447
H   H89       1.0  0.94860  0.43040  0.13040  1.0000 0.3292368447
H   H90       1.0  0.13040  0.49060  0.94860  1.0000 0.3292368447
H   H91       1.0  0.43040  0.94860  0.49060  1.0000 0.3292368447
H   H92       1.0  0.49060  0.13040  0.43040  1.0000 0.3292368447
H   H93       1.0  0.43040  0.13040  0.94860  1.0000 0.3292368447
H   H94       1.0  0.49060  0.94860  0.13040  1.0000 0.3292368447
H   H95       1.0  0.94860  0.49060  0.43040  1.0000 0.3292368447
H   H96       1.0  0.13040  0.43040  0.49060  1.0000 0.3292368447
H   H97       1.0  0.37350  0.61050  0.86330  1.0000 0.2904251664
H   H98       1.0  0.61050  0.37350  0.15270  1.0000 0.2904251664
H   H99       1.0  0.86330  0.15270  0.37350  1.0000 0.2904251664
H   H100      1.0  0.15270  0.86330  0.61050  1.0000 0.2904251664
H   H101      1.0  0.86330  0.37350  0.61050  1.0000 0.2904251664
H   H102      1.0  0.15270  0.61050  0.37350  1.0000 0.2904251664
H   H103      1.0  0.37350  0.86330  0.15270  1.0000 0.2904251664
H   H104      1.0  0.61050  0.15270  0.86330  1.0000 0.2904251664
H   H105      1.0  0.61050  0.86330  0.37350  1.0000 0.2904251664
H   H106      1.0  0.37350  0.15270  0.61050  1.0000 0.2904251664
H   H107      1.0  0.15270  0.37350  0.86330  1.0000 0.2904251664
H   H108      1.0  0.86330  0.61050  0.15270  1.0000 0.2904251664
H   H109      1.0  0.11050  0.87350  0.36330  1.0000 0.2904251664
H   H110      1.0  0.87350  0.11050  0.65270  1.0000 0.2904251664
H   H111      1.0  0.65270  0.36330  0.87350  1.0000 0.2904251664
H   H112      1.0  0.36330  0.65270  0.11050  1.0000 0.2904251664
H   H113      1.0  0.87350  0.36330  0.11050  1.0000 0.2904251664
H   H114      1.0  0.11050  0.65270  0.87350  1.0000 0.2904251664
H   H115      1.0  0.36330  0.87350  0.65270  1.0000 0.2904251664
H   H116      1.0  0.65270  0.11050  0.36330  1.0000 0.2904251664
H   H117      1.0  0.36330  0.11050  0.87350  1.0000 0.2904251664
H   H118      1.0  0.65270  0.87350  0.11050  1.0000 0.2904251664
H   H119      1.0  0.87350  0.65270  0.36330  1.0000 0.2904251664
H   H120      1.0  0.11050  0.36330  0.65270  1.0000 0.2904251664
H   H121      1.0  0.41070  0.57190  0.90770  1.0000 0.3392683887
H   H122      1.0  0.57190  0.41070  0.10970  1.0000 0.3392683887
H   H123      1.0  0.90770  0.10970  0.41070  1.0000 0.3392683887
H   H124      1.0  0.10970  0.90770  0.57190  1.0000 0.3392683887
H   H125      1.0  0.90770  0.41070  0.57190  1.0000 0.3392683887
H   H126      1.0  0.10970  0.57190  0.41070  1.0000 0.3392683887
H   H127      1.0  0.41070  0.90770  0.10970  1.0000 0.3392683887
H   H128      1.0  0.57190  0.10970  0.90770  1.0000 0.3392683887
H   H129      1.0  0.57190  0.90770  0.41070  1.0000 0.3392683887
H   H130      1.0  0.41070  0.10970  0.57190  1.0000 0.3392683887
H   H131      1.0  0.10970  0.41070  0.90770  1.0000 0.3392683887
H   H132      1.0  0.90770  0.57190  0.10970  1.0000 0.3392683887
H   H133      1.0  0.07190  0.91070  0.40770  1.0000 0.3392683887
H   H134      1.0  0.91070  0.07190  0.60970  1.0000 0.3392683887
H   H135      1.0  0.60970  0.40770  0.91070  1.0000 0.3392683887
H   H136      1.0  0.40770  0.60970  0.07190  1.0000 0.3392683887
H   H137      1.0  0.91070  0.40770  0.07190  1.0000 0.3392683887
H   H138      1.0  0.07190  0.60970  0.91070  1.0000 0.3392683887
H   H139      1.0  0.40770  0.91070  0.60970  1.0000 0.3392683887
H   H140      1.0  0.60970  0.07190  0.40770  1.0000 0.3392683887
H   H141      1.0  0.40770  0.07190  0.91070  1.0000 0.3392683887
H   H142      1.0  0.60970  0.91070  0.07190  1.0000 0.3392683887
H   H143      1.0  0.91070  0.60970  0.40770  1.0000 0.3392683887
H   H144      1.0  0.07190  0.40770  0.60970  1.0000 0.3392683887
C   C1        1.0  0.23836  0.73338  0.13982  1.0000 0.3292368447
C   C2        1.0  0.73338  0.23836  0.88844  1.0000 0.3292368447
C   C3        1.0  0.13982  0.88844  0.23836  1.0000 0.3392683887
C   C4        1.0  0.88844  0.13982  0.73338  1.0000 0.3292368447
C   C5        1.0  0.13982  0.23836  0.73338  1.0000 0.3292368447
C   C6        1.0  0.88844  0.73338  0.23836  1.0000 0.3292368447
C   C7        1.0  0.23836  0.13982  0.88844  1.0000 0.3292368447
C   C8        1.0  0.73338  0.88844  0.13982  1.0000 0.3292368447
C   C9        1.0  0.73338  0.13982  0.23836  1.0000 0.3292368447
C   C10       1.0  0.23836  0.88844  0.73338  1.0000 0.3292368447
C   C11       1.0  0.88844  0.23836  0.13982  1.0000 0.3392683887
C   C12       1.0  0.13982  0.73338  0.88844  1.0000 0.3292368447
C   C13       1.0  0.23338  0.73836  0.63982  1.0000 0.3292368447
C   C14       1.0  0.73836  0.23338  0.38844  1.0000 0.3292368447
C   C15       1.0  0.38844  0.63982  0.73836  1.0000 0.3292368447
C   C16       1.0  0.63982  0.38844  0.23338  1.0000 0.3292368447
C   C17       1.0  0.73836  0.63982  0.23338  1.0000 0.3392683887
C   C18       1.0  0.23338  0.38844  0.73836  1.0000 0.3292368447
C   C19       1.0  0.63982  0.73836  0.38844  1.0000 0.3292368447
C   C20       1.0  0.38844  0.23338  0.63982  1.0000 0.3292368447
C   C21       1.0  0.63982  0.23338  0.73836  1.0000 0.3392683887
C   C22       1.0  0.38844  0.73836  0.23338  1.0000 0.3292368447
C   C23       1.0  0.73836  0.38844  0.63982  1.0000 0.3292368447
C   C24       1.0  0.23338  0.63982  0.38844  1.0000 0.3292368447
C   C25       1.0  0.25994  0.74884  0.04110  1.0000 0.5176835446
C   C26       1.0  0.74884  0.25994  0.95012  1.0000 0.5176835446
C   C27       1.0  0.04110  0.95012  0.25994  1.0000 0.5135232489
C   C28       1.0  0.95012  0.04110  0.74884  1.0000 0.5176835446
C   C29       1.0  0.04110  0.25994  0.74884  1.0000 0.5176835446
C   C30       1.0  0.95012  0.74884  0.25994  1.0000 0.5176835446
C   C31       1.0  0.25994  0.04110  0.95012  1.0000 0.5176835446
C   C32       1.0  0.74884  0.95012  0.04110  1.0000 0.5135232489
C   C33       1.0  0.74884  0.04110  0.25994  1.0000 0.5176835446
C   C34       1.0  0.25994  0.95012  0.74884  1.0000 0.5135232489
C   C35       1.0  0.95012  0.25994  0.04110  1.0000 0.5135232489
C   C36       1.0  0.04110  0.74884  0.95012  1.0000 0.5176835446
C   C37       1.0  0.24884  0.75994  0.54110  1.0000 0.5135232489
C   C38       1.0  0.75994  0.24884  0.45012  1.0000 0.5176835446
C   C39       1.0  0.45012  0.54110  0.75994  1.0000 0.5176835446
C   C40       1.0  0.54110  0.45012  0.24884  1.0000 0.5176835446
C   C41       1.0  0.75994  0.54110  0.24884  1.0000 0.5135232489
C   C42       1.0  0.24884  0.45012  0.75994  1.0000 0.5176835446
C   C43       1.0  0.54110  0.75994  0.45012  1.0000 0.5135232489
C   C44       1.0  0.45012  0.24884  0.54110  1.0000 0.5176835446
C   C45       1.0  0.54110  0.24884  0.75994  1.0000 0.5176835446
C   C46       1.0  0.45012  0.75994  0.24884  1.0000 0.5135232489
C   C47       1.0  0.75994  0.45012  0.54110  1.0000 0.5176835446
C   C48       1.0  0.24884  0.54110  0.45012  1.0000 0.5135232489
C   C49       1.0  0.42246  0.72362  0.88748  1.0000 0.3392683887
C   C50       1.0  0.72362  0.42246  0.96644  1.0000 0.3392683887
C   C51       1.0  0.88748  0.96644  0.42246  1.0000 0.3392683887
C   C52       1.0  0.96644  0.88748  0.72362  1.0000 0.3392683887
C   C53       1.0  0.88748  0.42246  0.72362  1.0000 0.3392683887
C   C54       1.0  0.96644  0.72362  0.42246  1.0000 0.3392683887
C   C55       1.0  0.42246  0.88748  0.96644  1.0000 0.3392683887
C   C56       1.0  0.72362  0.96644  0.88748  1.0000 0.3392683887
C   C57       1.0  0.72362  0.88748  0.42246  1.0000 0.3392683887
C   C58       1.0  0.42246  0.96644  0.72362  1.0000 0.3392683887
C   C59       1.0  0.96644  0.42246  0.88748  1.0000 0.3392683887
C   C60       1.0  0.88748  0.72362  0.96644  1.0000 0.3392683887
C   C61       1.0  0.22362  0.92246  0.38748  1.0000 0.3392683887
C   C62       1.0  0.92246  0.22362  0.46644  1.0000 0.3392683887
C   C63       1.0  0.46644  0.38748  0.92246  1.0000 0.3392683887
C   C64       1.0  0.38748  0.46644  0.22362  1.0000 0.3392683887
C   C65       1.0  0.92246  0.38748  0.22362  1.0000 0.3392683887
C   C66       1.0  0.22362  0.46644  0.92246  1.0000 0.3392683887
C   C67       1.0  0.38748  0.92246  0.46644  1.0000 0.3392683887
C   C68       1.0  0.46644  0.22362  0.38748  1.0000 0.3392683887
C   C69       1.0  0.38748  0.22362  0.92246  1.0000 0.3392683887
C   C70       1.0  0.46644  0.92246  0.22362  1.0000 0.3392683887
C   C71       1.0  0.92246  0.46644  0.38748  1.0000 0.3392683887
C   C72       1.0  0.22362  0.38748  0.46644  1.0000 0.3392683887
C   C73       1.0  0.39757  0.66123  0.87717  1.0000 0.5176835446
C   C74       1.0  0.66123  0.39757  0.06403  1.0000 0.5176835446
C   C75       1.0  0.87717  0.06403  0.39757  1.0000 0.5176835446
C   C76       1.0  0.06403  0.87717  0.66123  1.0000 0.5176835446
C   C77       1.0  0.87717  0.39757  0.66123  1.0000 0.5176835446
C   C78       1.0  0.06403  0.66123  0.39757  1.0000 0.5176835446
C   C79       1.0  0.39757  0.87717  0.06403  1.0000 0.5176835446
C   C80       1.0  0.66123  0.06403  0.87717  1.0000 0.5176835446
C   C81       1.0  0.66123  0.87717  0.39757  1.0000 0.5176835446
C   C82       1.0  0.39757  0.06403  0.66123  1.0000 0.5176835446
C   C83       1.0  0.06403  0.39757  0.87717  1.0000 0.5176835446
C   C84       1.0  0.87717  0.66123  0.06403  1.0000 0.5176835446
C   C85       1.0  0.16123  0.89757  0.37717  1.0000 0.5176835446
C   C86       1.0  0.89757  0.16123  0.56403  1.0000 0.5176835446
C   C87       1.0  0.56403  0.37717  0.89757  1.0000 0.5176835446
C   C88       1.0  0.37717  0.56403  0.16123  1.0000 0.5176835446
C   C89       1.0  0.89757  0.37717  0.16123  1.0000 0.5176835446
C   C90       1.0  0.16123  0.56403  0.89757  1.0000 0.5176835446
C   C91       1.0  0.37717  0.89757  0.56403  1.0000 0.5176835446
C   C92       1.0  0.56403  0.16123  0.37717  1.0000 0.5176835446
C   C93       1.0  0.37717  0.16123  0.89757  1.0000 0.5176835446
C   C94       1.0  0.56403  0.89757  0.16123  1.0000 0.5176835446
C   C95       1.0  0.89757  0.56403  0.37717  1.0000 0.5176835446
C   C96       1.0  0.16123  0.37717  0.56403  1.0000 0.5176835446
S   S1        1.0  0.20011  0.71455  0.22191  1.0000 -0.4110802952
S   S2        1.0  0.71455  0.20011  0.86343  1.0000 -0.4110802952
S   S3        1.0  0.22191  0.86343  0.20011  1.0000 -0.4110802952
S   S4        1.0  0.86343  0.22191  0.71455  1.0000 -0.4110802952
S   S5        1.0  0.22191  0.20011  0.71455  1.0000 -0.4110802952
S   S6        1.0  0.86343  0.71455  0.20011  1.0000 -0.4110802952
S   S7        1.0  0.20011  0.22191  0.86343  1.0000 -0.4110802952
S   S8        1.0  0.71455  0.86343  0.22191  1.0000 -0.4110802952
S   S9        1.0  0.71455  0.22191  0.20011  1.0000 -0.4110802952
S   S10       1.0  0.20011  0.86343  0.71455  1.0000 -0.4110802952
S   S11       1.0  0.86343  0.20011  0.22191  1.0000 -0.4110802952
S   S12       1.0  0.22191  0.71455  0.86343  1.0000 -0.4110802952
S   S13       1.0  0.21455  0.70011  0.72191  1.0000 -0.4110802952
S   S14       1.0  0.70011  0.21455  0.36343  1.0000 -0.4110802952
S   S15       1.0  0.36343  0.72191  0.70011  1.0000 -0.4110802952
S   S16       1.0  0.72191  0.36343  0.21455  1.0000 -0.4110802952
S   S17       1.0  0.70011  0.72191  0.21455  1.0000 -0.4110802952
S   S18       1.0  0.21455  0.36343  0.70011  1.0000 -0.4110802952
S   S19       1.0  0.72191  0.70011  0.36343  1.0000 -0.4110802952
S   S20       1.0  0.36343  0.21455  0.72191  1.0000 -0.4110802952
S   S21       1.0  0.72191  0.21455  0.70011  1.0000 -0.4110802952
S   S22       1.0  0.36343  0.70011  0.21455  1.0000 -0.4110802952
S   S23       1.0  0.70011  0.36343  0.72191  1.0000 -0.4110802952
S   S24       1.0  0.21455  0.72191  0.36343  1.0000 -0.4110802952
S   S25       1.0  0.45584  0.74762  0.91290  1.0000 -0.3330233116
S   S26       1.0  0.74762  0.45584  0.88364  1.0000 -0.3330233116
S   S27       1.0  0.91290  0.88364  0.45584  1.0000 -0.3330233116
S   S28       1.0  0.88364  0.91290  0.74762  1.0000 -0.3330233116
S   S29       1.0  0.91290  0.45584  0.74762  1.0000 -0.3330233116
S   S30       1.0  0.88364  0.74762  0.45584  1.0000 -0.3330233116
S   S31       1.0  0.45584  0.91290  0.88364  1.0000 -0.3330233116
S   S32       1.0  0.74762  0.88364  0.91290  1.0000 -0.3330233116
S   S33       1.0  0.74762  0.91290  0.45584  1.0000 -0.3330233116
S   S34       1.0  0.45584  0.88364  0.74762  1.0000 -0.3330233116
S   S35       1.0  0.88364  0.45584  0.91290  1.0000 -0.3330233116
S   S36       1.0  0.91290  0.74762  0.88364  1.0000 -0.3330233116
S   S37       1.0  0.24762  0.95584  0.41290  1.0000 -0.3330233116
S   S38       1.0  0.95584  0.24762  0.38364  1.0000 -0.3330233116
S   S39       1.0  0.38364  0.41290  0.95584  1.0000 -0.3330233116
S   S40       1.0  0.41290  0.38364  0.24762  1.0000 -0.3330233116
S   S41       1.0  0.95584  0.41290  0.24762  1.0000 -0.3330233116
S   S42       1.0  0.24762  0.38364  0.95584  1.0000 -0.3330233116
S   S43       1.0  0.41290  0.95584  0.38364  1.0000 -0.3330233116
S   S44       1.0  0.38364  0.24762  0.41290  1.0000 -0.3330233116
S   S45       1.0  0.41290  0.24762  0.95584  1.0000 -0.3330233116
S   S46       1.0  0.38364  0.95584  0.24762  1.0000 -0.3330233116
S   S47       1.0  0.95584  0.38364  0.41290  1.0000 -0.3330233116
S   S48       1.0  0.24762  0.41290  0.38364  1.0000 -0.3330233116
S   S49       1.0  0.00000  0.00000  0.00000  1.0000 0.7498669109
S   S50       1.0  0.50000  0.50000  0.50000  1.0000 0.7428059062
S   S51       1.0  0.50000  0.50000  0.00000  1.0000 1.4082683604
S   S52       1.0  0.00000  0.00000  0.50000  1.0000 1.4082683604
S   S53       1.0  0.50000  0.00000  0.50000  1.0000 1.4082683604
S   S54       1.0  0.00000  0.50000  0.00000  1.0000 1.4082683604
S   S55       1.0  0.00000  0.50000  0.50000  1.0000 1.4082683604
S   S56       1.0  0.50000  0.00000  0.00000  1.0000 1.4082683604
Br  Br1       1.0  0.29574  0.90142  0.90142  1.0000 -0.4918791869
Br  Br2       1.0  0.90142  0.29574  0.90142  1.0000 -0.496120574
Br  Br3       1.0  0.90142  0.90142  0.29574  1.0000 -0.496120574
Br  Br4       1.0  0.90142  0.90142  0.90142  1.0000 -0.4918791869
Br  Br5       1.0  0.40142  0.79574  0.40142  1.0000 -0.4918791869
Br  Br6       1.0  0.79574  0.40142  0.40142  1.0000 -0.496120574
Br  Br7       1.0  0.40142  0.40142  0.79574  1.0000 -0.4918791869
Br  Br8       1.0  0.40142  0.40142  0.40142  1.0000 -0.4918791869
N   N1        1.0  0.28583  0.75525  0.10521  1.0000 -0.2311085131
N   N2        1.0  0.75525  0.28583  0.85371  1.0000 -0.2311085131
N   N3        1.0  0.10521  0.85371  0.28583  1.0000 -0.2311085131
N   N4        1.0  0.85371  0.10521  0.75525  1.0000 -0.2311085131
N   N5        1.0  0.10521  0.28583  0.75525  1.0000 -0.2311085131
N   N6        1.0  0.85371  0.75525  0.28583  1.0000 -0.2311085131
N   N7        1.0  0.28583  0.10521  0.85371  1.0000 -0.2311085131
N   N8        1.0  0.75525  0.85371  0.10521  1.0000 -0.2311085131
N   N9        1.0  0.75525  0.10521  0.28583  1.0000 -0.2311085131
N   N10       1.0  0.28583  0.85371  0.75525  1.0000 -0.2311085131
N   N11       1.0  0.85371  0.28583  0.10521  1.0000 -0.2311085131
N   N12       1.0  0.10521  0.75525  0.85371  1.0000 -0.2311085131
N   N13       1.0  0.25525  0.78583  0.60521  1.0000 -0.2311085131
N   N14       1.0  0.78583  0.25525  0.35371  1.0000 -0.2311085131
N   N15       1.0  0.35371  0.60521  0.78583  1.0000 -0.2311085131
N   N16       1.0  0.60521  0.35371  0.25525  1.0000 -0.2311085131
N   N17       1.0  0.78583  0.60521  0.25525  1.0000 -0.2311085131
N   N18       1.0  0.25525  0.35371  0.78583  1.0000 -0.2311085131
N   N19       1.0  0.60521  0.78583  0.35371  1.0000 -0.2311085131
N   N20       1.0  0.35371  0.25525  0.60521  1.0000 -0.2311085131
N   N21       1.0  0.60521  0.25525  0.78583  1.0000 -0.2311085131
N   N22       1.0  0.35371  0.78583  0.25525  1.0000 -0.2311085131
N   N23       1.0  0.78583  0.35371  0.60521  1.0000 -0.2311085131
N   N24       1.0  0.25525  0.60521  0.35371  1.0000 -0.2311085131
N   N25       1.0  0.30041  0.76435  0.04163  1.0000 -0.2897186845
N   N26       1.0  0.76435  0.30041  0.89361  1.0000 -0.2897186845
N   N27       1.0  0.04163  0.89361  0.30041  1.0000 -0.2897186845
N   N28       1.0  0.89361  0.04163  0.76435  1.0000 -0.2897186845
N   N29       1.0  0.04163  0.30041  0.76435  1.0000 -0.2897186845
N   N30       1.0  0.89361  0.76435  0.30041  1.0000 -0.2897186845
N   N31       1.0  0.30041  0.04163  0.89361  1.0000 -0.2897186845
N   N32       1.0  0.76435  0.89361  0.04163  1.0000 -0.2897186845
N   N33       1.0  0.76435  0.04163  0.30041  1.0000 -0.2897186845
N   N34       1.0  0.30041  0.89361  0.76435  1.0000 -0.2897186845
N   N35       1.0  0.89361  0.30041  0.04163  1.0000 -0.2897186845
N   N36       1.0  0.04163  0.76435  0.89361  1.0000 -0.2897186845
N   N37       1.0  0.26435  0.80041  0.54163  1.0000 -0.2897186845
N   N38       1.0  0.80041  0.26435  0.39361  1.0000 -0.2897186845
N   N39       1.0  0.39361  0.54163  0.80041  1.0000 -0.2897186845
N   N40       1.0  0.54163  0.39361  0.26435  1.0000 -0.2897186845
N   N41       1.0  0.80041  0.54163  0.26435  1.0000 -0.2897186845
N   N42       1.0  0.26435  0.39361  0.80041  1.0000 -0.2897186845
N   N43       1.0  0.54163  0.80041  0.39361  1.0000 -0.2897186845
N   N44       1.0  0.39361  0.26435  0.54163  1.0000 -0.2897186845
N   N45       1.0  0.54163  0.26435  0.80041  1.0000 -0.2897186845
N   N46       1.0  0.39361  0.80041  0.26435  1.0000 -0.2897186845
N   N47       1.0  0.80041  0.39361  0.54163  1.0000 -0.2897186845
N   N48       1.0  0.26435  0.54163  0.39361  1.0000 -0.2897186845
N   N49       1.0  0.22053  0.72925  0.10057  1.0000 -0.3330233116
N   N50       1.0  0.72925  0.22053  0.94965  1.0000 -0.3368069165
N   N51       1.0  0.10057  0.94965  0.22053  1.0000 -0.3368069165
N   N52       1.0  0.94965  0.10057  0.72925  1.0000 -0.3368069165
N   N53       1.0  0.10057  0.22053  0.72925  1.0000 -0.3368069165
N   N54       1.0  0.94965  0.72925  0.22053  1.0000 -0.3368069165
N   N55       1.0  0.22053  0.10057  0.94965  1.0000 -0.3330233116
N   N56       1.0  0.72925  0.94965  0.10057  1.0000 -0.3368069165
N   N57       1.0  0.72925  0.10057  0.22053  1.0000 -0.3368069165
N   N58       1.0  0.22053  0.94965  0.72925  1.0000 -0.3330233116
N   N59       1.0  0.94965  0.22053  0.10057  1.0000 -0.3368069165
N   N60       1.0  0.10057  0.72925  0.94965  1.0000 -0.3368069165
N   N61       1.0  0.22925  0.72053  0.60057  1.0000 -0.3368069165
N   N62       1.0  0.72053  0.22925  0.44965  1.0000 -0.3368069165
N   N63       1.0  0.44965  0.60057  0.72053  1.0000 -0.3368069165
N   N64       1.0  0.60057  0.44965  0.22925  1.0000 -0.3368069165
N   N65       1.0  0.72053  0.60057  0.22925  1.0000 -0.3368069165
N   N66       1.0  0.22925  0.44965  0.72053  1.0000 -0.3368069165
N   N67       1.0  0.60057  0.72053  0.44965  1.0000 -0.3368069165
N   N68       1.0  0.44965  0.22925  0.60057  1.0000 -0.3368069165
N   N69       1.0  0.60057  0.22925  0.72053  1.0000 -0.3368069165
N   N70       1.0  0.44965  0.72053  0.22925  1.0000 -0.3368069165
N   N71       1.0  0.72053  0.44965  0.60057  1.0000 -0.3368069165
N   N72       1.0  0.22925  0.60057  0.44965  1.0000 -0.3368069165
N   N73       1.0  0.25794  0.74938  0.98880  1.0000 -0.6210227491
N   N74       1.0  0.74938  0.25794  0.00388  1.0000 -0.6210227491
N   N75       1.0  0.98880  0.00388  0.25794  1.0000 -0.6210227491
N   N76       1.0  0.00388  0.98880  0.74938  1.0000 -0.6210227491
N   N77       1.0  0.98880  0.25794  0.74938  1.0000 -0.6210227491
N   N78       1.0  0.00388  0.74938  0.25794  1.0000 -0.6210227491
N   N79       1.0  0.25794  0.98880  0.00388  1.0000 -0.6210227491
N   N80       1.0  0.74938  0.00388  0.98880  1.0000 -0.6210227491
N   N81       1.0  0.74938  0.98880  0.25794  1.0000 -0.6210227491
N   N82       1.0  0.25794  0.00388  0.74938  1.0000 -0.6210227491
N   N83       1.0  0.00388  0.25794  0.98880  1.0000 -0.6210227491
N   N84       1.0  0.98880  0.74938  0.00388  1.0000 -0.6210227491
N   N85       1.0  0.24938  0.75794  0.48880  1.0000 -0.6210227491
N   N86       1.0  0.75794  0.24938  0.50388  1.0000 -0.6210227491
N   N87       1.0  0.50388  0.48880  0.75794  1.0000 -0.6210227491
N   N88       1.0  0.48880  0.50388  0.24938  1.0000 -0.6210227491
N   N89       1.0  0.75794  0.48880  0.24938  1.0000 -0.6210227491
N   N90       1.0  0.24938  0.50388  0.75794  1.0000 -0.6210227491
N   N91       1.0  0.48880  0.75794  0.50388  1.0000 -0.6210227491
N   N92       1.0  0.50388  0.24938  0.48880  1.0000 -0.6210227491
N   N93       1.0  0.48880  0.24938  0.75794  1.0000 -0.6210227491
N   N94       1.0  0.50388  0.75794  0.24938  1.0000 -0.6210227491
N   N95       1.0  0.75794  0.50388  0.48880  1.0000 -0.6210227491
N   N96       1.0  0.24938  0.48880  0.50388  1.0000 -0.6210227491
N   N97       1.0  0.38940  0.75992  0.84874  1.0000 -0.2311085131
N   N98       1.0  0.75992  0.38940  0.00194  1.0000 -0.2311085131
N   N99       1.0  0.84874  0.00194  0.38940  1.0000 -0.2311085131
N   N100      1.0  0.00194  0.84874  0.75992  1.0000 -0.2311085131
N   N101      1.0  0.84874  0.38940  0.75992  1.0000 -0.2311085131
N   N102      1.0  0.00194  0.75992  0.38940  1.0000 -0.2311085131
N   N103      1.0  0.38940  0.84874  0.00194  1.0000 -0.2311085131
N   N104      1.0  0.75992  0.00194  0.84874  1.0000 -0.2311085131
N   N105      1.0  0.75992  0.84874  0.38940  1.0000 -0.2311085131
N   N106      1.0  0.38940  0.00194  0.75992  1.0000 -0.2311085131
N   N107      1.0  0.00194  0.38940  0.84874  1.0000 -0.2311085131
N   N108      1.0  0.84874  0.75992  0.00194  1.0000 -0.2311085131
N   N109      1.0  0.25992  0.88940  0.34874  1.0000 -0.2311085131
N   N110      1.0  0.88940  0.25992  0.50194  1.0000 -0.2311085131
N   N111      1.0  0.50194  0.34874  0.88940  1.0000 -0.2311085131
N   N112      1.0  0.34874  0.50194  0.25992  1.0000 -0.2311085131
N   N113      1.0  0.88940  0.34874  0.25992  1.0000 -0.2311085131
N   N114      1.0  0.25992  0.50194  0.88940  1.0000 -0.2311085131
N   N115      1.0  0.34874  0.88940  0.50194  1.0000 -0.2311085131
N   N116      1.0  0.50194  0.25992  0.34874  1.0000 -0.2311085131
N   N117      1.0  0.34874  0.25992  0.88940  1.0000 -0.2311085131
N   N118      1.0  0.50194  0.88940  0.25992  1.0000 -0.2311085131
N   N119      1.0  0.88940  0.50194  0.34874  1.0000 -0.2311085131
N   N120      1.0  0.25992  0.34874  0.50194  1.0000 -0.2311085131
N   N121      1.0  0.37304  0.71972  0.84146  1.0000 -0.2897186845
N   N122      1.0  0.71972  0.37304  0.06578  1.0000 -0.2897186845
N   N123      1.0  0.84146  0.06578  0.37304  1.0000 -0.2897186845
N   N124      1.0  0.06578  0.84146  0.71972  1.0000 -0.2897186845
N   N125      1.0  0.84146  0.37304  0.71972  1.0000 -0.2897186845
N   N126      1.0  0.06578  0.71972  0.37304  1.0000 -0.2897186845
N   N127      1.0  0.37304  0.84146  0.06578  1.0000 -0.2897186845
N   N128      1.0  0.71972  0.06578  0.84146  1.0000 -0.2897186845
N   N129      1.0  0.71972  0.84146  0.37304  1.0000 -0.2897186845
N   N130      1.0  0.37304  0.06578  0.71972  1.0000 -0.2897186845
N   N131      1.0  0.06578  0.37304  0.84146  1.0000 -0.2897186845
N   N132      1.0  0.84146  0.71972  0.06578  1.0000 -0.2897186845
N   N133      1.0  0.21972  0.87304  0.34146  1.0000 -0.2897186845
N   N134      1.0  0.87304  0.21972  0.56578  1.0000 -0.2897186845
N   N135      1.0  0.56578  0.34146  0.87304  1.0000 -0.2897186845
N   N136      1.0  0.34146  0.56578  0.21972  1.0000 -0.2897186845
N   N137      1.0  0.87304  0.34146  0.21972  1.0000 -0.2897186845
N   N138      1.0  0.21972  0.56578  0.87304  1.0000 -0.2897186845
N   N139      1.0  0.34146  0.87304  0.56578  1.0000 -0.2897186845
N   N140      1.0  0.56578  0.21972  0.34146  1.0000 -0.2897186845
N   N141      1.0  0.34146  0.21972  0.87304  1.0000 -0.2897186845
N   N142      1.0  0.56578  0.87304  0.21972  1.0000 -0.2897186845
N   N143      1.0  0.87304  0.56578  0.34146  1.0000 -0.2897186845
N   N144      1.0  0.21972  0.34146  0.56578  1.0000 -0.2897186845
N   N145      1.0  0.42855  0.66263  0.90543  1.0000 -0.3146783884
N   N146      1.0  0.66263  0.42855  0.00339  1.0000 -0.3146783884
N   N147      1.0  0.90543  0.00339  0.42855  1.0000 -0.3156648496
N   N148      1.0  0.00339  0.90543  0.66263  1.0000 -0.3146783884
N   N149      1.0  0.90543  0.42855  0.66263  1.0000 -0.3146783884
N   N150      1.0  0.00339  0.66263  0.42855  1.0000 -0.3146783884
N   N151      1.0  0.42855  0.90543  0.00339  1.0000 -0.3146783884
N   N152      1.0  0.66263  0.00339  0.90543  1.0000 -0.3146783884
N   N153      1.0  0.66263  0.90543  0.42855  1.0000 -0.3146783884
N   N154      1.0  0.42855  0.00339  0.66263  1.0000 -0.3146783884
N   N155      1.0  0.00339  0.42855  0.90543  1.0000 -0.3146783884
N   N156      1.0  0.90543  0.66263  0.00339  1.0000 -0.3146783884
N   N157      1.0  0.16263  0.92855  0.40543  1.0000 -0.3146783884
N   N158      1.0  0.92855  0.16263  0.50339  1.0000 -0.3146783884
N   N159      1.0  0.50339  0.40543  0.92855  1.0000 -0.3146783884
N   N160      1.0  0.40543  0.50339  0.16263  1.0000 -0.3146783884
N   N161      1.0  0.92855  0.40543  0.16263  1.0000 -0.3156648496
N   N162      1.0  0.16263  0.50339  0.92855  1.0000 -0.3146783884
N   N163      1.0  0.40543  0.92855  0.50339  1.0000 -0.3146783884
N   N164      1.0  0.50339  0.16263  0.40543  1.0000 -0.3156648496
N   N165      1.0  0.40543  0.16263  0.92855  1.0000 -0.3146783884
N   N166      1.0  0.50339  0.92855  0.16263  1.0000 -0.3146783884
N   N167      1.0  0.92855  0.50339  0.40543  1.0000 -0.3146783884
N   N168      1.0  0.16263  0.40543  0.50339  1.0000 -0.3146783884
N   N169      1.0  0.39344  0.60818  0.88348  1.0000 -0.6210227491
N   N170      1.0  0.60818  0.39344  0.11490  1.0000 -0.6210227491
N   N171      1.0  0.88348  0.11490  0.39344  1.0000 -0.6210227491
N   N172      1.0  0.11490  0.88348  0.60818  1.0000 -0.6210227491
N   N173      1.0  0.88348  0.39344  0.60818  1.0000 -0.6210227491
N   N174      1.0  0.11490  0.60818  0.39344  1.0000 -0.6210227491
N   N175      1.0  0.39344  0.88348  0.11490  1.0000 -0.6210227491
N   N176      1.0  0.60818  0.11490  0.88348  1.0000 -0.6210227491
N   N177      1.0  0.60818  0.88348  0.39344  1.0000 -0.6210227491
N   N178      1.0  0.39344  0.11490  0.60818  1.0000 -0.6210227491
N   N179      1.0  0.11490  0.39344  0.88348  1.0000 -0.6210227491
N   N180      1.0  0.88348  0.60818  0.11490  1.0000 -0.6210227491
N   N181      1.0  0.10818  0.89344  0.38348  1.0000 -0.6210227491
N   N182      1.0  0.89344  0.10818  0.61490  1.0000 -0.6210227491
N   N183      1.0  0.61490  0.38348  0.89344  1.0000 -0.6210227491
N   N184      1.0  0.38348  0.61490  0.10818  1.0000 -0.6210227491
N   N185      1.0  0.89344  0.38348  0.10818  1.0000 -0.6210227491
N   N186      1.0  0.10818  0.61490  0.89344  1.0000 -0.6210227491
N   N187      1.0  0.38348  0.89344  0.61490  1.0000 -0.6210227491
N   N188      1.0  0.61490  0.10818  0.38348  1.0000 -0.6210227491
N   N189      1.0  0.38348  0.10818  0.89344  1.0000 -0.6210227491
N   N190      1.0  0.61490  0.89344  0.10818  1.0000 -0.6210227491
N   N191      1.0  0.89344  0.61490  0.38348  1.0000 -0.6210227491
N   N192      1.0  0.10818  0.38348  0.61490  1.0000 -0.6210227491
O   O1        1.0  0.97643  0.97643  0.97643  1.0000 -0.5741104999
O   O2        1.0  0.97643  0.97643  0.07071  1.0000 -0.4838842669
O   O3        1.0  0.07071  0.97643  0.97643  1.0000 -0.5760928908
O   O4        1.0  0.97643  0.07071  0.97643  1.0000 -0.4838842669
O   O5        1.0  0.47643  0.47643  0.47643  1.0000 -0.5584246635
O   O6        1.0  0.47643  0.47643  0.57071  1.0000 -0.5584246635
O   O7        1.0  0.47643  0.57071  0.47643  1.0000 -0.5584246635
O   O8        1.0  0.57071  0.47643  0.47643  1.0000 -0.4729962864
O   O9        1.0  0.49811  0.45685  0.06471  1.0000 -0.6923599113
O   O10       1.0  0.45685  0.49811  0.98033  1.0000 -0.6923599113
O   O11       1.0  0.48033  0.56471  0.99811  1.0000 -0.6923599113
O   O12       1.0  0.56471  0.48033  0.95685  1.0000 -0.6923599113
O   O13       1.0  0.06471  0.98033  0.49811  1.0000 -0.6923599113
O   O14       1.0  0.98033  0.06471  0.45685  1.0000 -0.6923599113
O   O15       1.0  0.95685  0.99811  0.56471  1.0000 -0.6923599113
O   O16       1.0  0.99811  0.95685  0.48033  1.0000 -0.6923599113
O   O17       1.0  0.45685  0.06471  0.49811  1.0000 -0.6923599113
O   O18       1.0  0.49811  0.98033  0.45685  1.0000 -0.6923599113
O   O19       1.0  0.56471  0.99811  0.48033  1.0000 -0.6923599113
O   O20       1.0  0.48033  0.95685  0.56471  1.0000 -0.6923599113
O   O21       1.0  0.98033  0.49811  0.06471  1.0000 -0.6923599113
O   O22       1.0  0.06471  0.45685  0.98033  1.0000 -0.6923599113
O   O23       1.0  0.99811  0.56471  0.95685  1.0000 -0.6923599113
O   O24       1.0  0.95685  0.48033  0.99811  1.0000 -0.6923599113
O   O25       1.0  0.06471  0.49811  0.45685  1.0000 -0.6923599113
O   O26       1.0  0.98033  0.45685  0.49811  1.0000 -0.6923599113
O   O27       1.0  0.99811  0.48033  0.56471  1.0000 -0.6923599113
O   O28       1.0  0.95685  0.56471  0.48033  1.0000 -0.6923599113
O   O29       1.0  0.49811  0.06471  0.98033  1.0000 -0.6923599113
O   O30       1.0  0.45685  0.98033  0.06471  1.0000 -0.6923599113
O   O31       1.0  0.56471  0.95685  0.99811  1.0000 -0.6923599113
O   O32       1.0  0.48033  0.99811  0.95685  1.0000 -0.6923599113
