# DDEC6 charges by PACMAN v1.1 (https://github.com/mtap-research/PACMAN-charge/)
data_2010[Cd][nuc]3[ION]5
_chemical_formula_sum              "Cd4 H144 C192 N48 Cl4 O16"
_cell_length_a       15.844
_cell_length_b       15.844
_cell_length_c       21.837
_cell_angle_alpha    90
_cell_angle_beta     90
_cell_angle_gamma    90

_symmetry_space_group_name_H-M    "P 1"
_symmetry_Int_Tables_number       1

loop_
  _symmetry_equiv_pos_as_xyz
  'x, y, z'

loop_
  _atom_site_type_symbol
  _atom_site_label
  _atom_site_symmetry_multiplicity
  _atom_site_fract_x
  _atom_site_fract_y
  _atom_site_fract_z
  _atom_site_occupancy
  _atom_site_charge
Cd  Cd1       1.0  0.05772  0.94228  0.25000  1.0000 0.6494704537
Cd  Cd2       1.0  0.94228  0.05772  0.75000  1.0000 0.6494704537
Cd  Cd3       1.0  0.55772  0.55772  0.50000  1.0000 0.6494704537
Cd  Cd4       1.0  0.44228  0.44228  0.00000  1.0000 0.6494704537
H   H1        1.0  0.53610  0.61140  0.34970  1.0000 0.0989344545
H   H2        1.0  0.46390  0.38860  0.84970  1.0000 0.0989344545
H   H3        1.0  0.88860  0.03610  0.59970  1.0000 0.0989344545
H   H4        1.0  0.11140  0.96390  0.09970  1.0000 0.0989344545
H   H5        1.0  0.96390  0.11140  0.90030  1.0000 0.0989344545
H   H6        1.0  0.03610  0.88860  0.40030  1.0000 0.0989344545
H   H7        1.0  0.61140  0.53610  0.65030  1.0000 0.0989344545
H   H8        1.0  0.38860  0.46390  0.15030  1.0000 0.0989344545
H   H9        1.0  0.58400  0.71350  0.28560  1.0000 0.1296666614
H   H10       1.0  0.41600  0.28650  0.78560  1.0000 0.1296666614
H   H11       1.0  0.78650  0.08400  0.53560  1.0000 0.1296666614
H   H12       1.0  0.21350  0.91600  0.03560  1.0000 0.1296666614
H   H13       1.0  0.91600  0.21350  0.96440  1.0000 0.1296666614
H   H14       1.0  0.08400  0.78650  0.46440  1.0000 0.1296666614
H   H15       1.0  0.71350  0.58400  0.71440  1.0000 0.1296666614
H   H16       1.0  0.28650  0.41600  0.21440  1.0000 0.1296666614
H   H17       1.0  0.78470  0.74030  0.39560  1.0000 0.1296666614
H   H18       1.0  0.21530  0.25970  0.89560  1.0000 0.1296666614
H   H19       1.0  0.75970  0.28470  0.64560  1.0000 0.1296666614
H   H20       1.0  0.24030  0.71530  0.14560  1.0000 0.1296666614
H   H21       1.0  0.71530  0.24030  0.85440  1.0000 0.1296666614
H   H22       1.0  0.28470  0.75970  0.35440  1.0000 0.1296666614
H   H23       1.0  0.74030  0.78470  0.60440  1.0000 0.1296666614
H   H24       1.0  0.25970  0.21530  0.10440  1.0000 0.1296666614
H   H25       1.0  0.72750  0.64080  0.45860  1.0000 0.0989344545
H   H26       1.0  0.27250  0.35920  0.95860  1.0000 0.0989344545
H   H27       1.0  0.85920  0.22750  0.70860  1.0000 0.0989344545
H   H28       1.0  0.14080  0.77250  0.20860  1.0000 0.0989344545
H   H29       1.0  0.77250  0.14080  0.79140  1.0000 0.0989344545
H   H30       1.0  0.22750  0.85920  0.29140  1.0000 0.0989344545
H   H31       1.0  0.64080  0.72750  0.54140  1.0000 0.0989344545
H   H32       1.0  0.35920  0.27250  0.04140  1.0000 0.0989344545
H   H33       1.0  0.65250  0.79670  0.22060  1.0000 0.0989344545
H   H34       1.0  0.34750  0.20330  0.72060  1.0000 0.0989344545
H   H35       1.0  0.70330  0.15250  0.47060  1.0000 0.0989344545
H   H36       1.0  0.29670  0.84750  0.97060  1.0000 0.0989344545
H   H37       1.0  0.84750  0.29670  0.02940  1.0000 0.0989344545
H   H38       1.0  0.15250  0.70330  0.52940  1.0000 0.0989344545
H   H39       1.0  0.79670  0.65250  0.77940  1.0000 0.0989344545
H   H40       1.0  0.20330  0.34750  0.27940  1.0000 0.0989344545
H   H41       1.0  0.70480  0.90740  0.16520  1.0000 0.0989344545
H   H42       1.0  0.29520  0.09260  0.66520  1.0000 0.0989344545
H   H43       1.0  0.59260  0.20480  0.41520  1.0000 0.0989344545
H   H44       1.0  0.40740  0.79520  0.91520  1.0000 0.0989344545
H   H45       1.0  0.79520  0.40740  0.08480  1.0000 0.0989344545
H   H46       1.0  0.20480  0.59260  0.58480  1.0000 0.0989344545
H   H47       1.0  0.90740  0.70480  0.83480  1.0000 0.0989344545
H   H48       1.0  0.09260  0.29520  0.33480  1.0000 0.0989344545
H   H49       1.0  0.80070  0.00050  0.20750  1.0000 0.1086360622
H   H50       1.0  0.19930  0.99950  0.70750  1.0000 0.1086360622
H   H51       1.0  0.49950  0.30070  0.45750  1.0000 0.1086360622
H   H52       1.0  0.50050  0.69930  0.95750  1.0000 0.1086360622
H   H53       1.0  0.69930  0.50050  0.04250  1.0000 0.1086360622
H   H54       1.0  0.30070  0.49950  0.54250  1.0000 0.1086360622
H   H55       1.0  0.00050  0.80070  0.79250  1.0000 0.1086360622
H   H56       1.0  0.99950  0.19930  0.29250  1.0000 0.1086360622
H   H57       1.0  0.79590  0.86450  0.36290  1.0000 0.1086360622
H   H58       1.0  0.20410  0.13550  0.86290  1.0000 0.1086360622
H   H59       1.0  0.63550  0.29590  0.61290  1.0000 0.1086360622
H   H60       1.0  0.36450  0.70410  0.11290  1.0000 0.1086360622
H   H61       1.0  0.70410  0.36450  0.88710  1.0000 0.1086360622
H   H62       1.0  0.29590  0.63550  0.38710  1.0000 0.1086360622
H   H63       1.0  0.86450  0.79590  0.63710  1.0000 0.1086360622
H   H64       1.0  0.13550  0.20410  0.13710  1.0000 0.1086360622
H   H65       1.0  0.04310  0.11910  0.45970  1.0000 0.1086360622
H   H66       1.0  0.95690  0.88090  0.95970  1.0000 0.1086360622
H   H67       1.0  0.38090  0.54310  0.70970  1.0000 0.1086360622
H   H68       1.0  0.61910  0.45690  0.20970  1.0000 0.1086360622
H   H69       1.0  0.45690  0.61910  0.79030  1.0000 0.1086360622
H   H70       1.0  0.54310  0.38090  0.29030  1.0000 0.1086360622
H   H71       1.0  0.11910  0.04310  0.54030  1.0000 0.1086360622
H   H72       1.0  0.88090  0.95690  0.04030  1.0000 0.1086360622
H   H73       1.0  0.06150  0.22880  0.52960  1.0000 0.1086360622
H   H74       1.0  0.93850  0.77120  0.02960  1.0000 0.1086360622
H   H75       1.0  0.27120  0.56150  0.77960  1.0000 0.1086360622
H   H76       1.0  0.72880  0.43850  0.27960  1.0000 0.1086360622
H   H77       1.0  0.43850  0.72880  0.72040  1.0000 0.1086360622
H   H78       1.0  0.56150  0.27120  0.22040  1.0000 0.1086360622
H   H79       1.0  0.22880  0.06150  0.47040  1.0000 0.1086360622
H   H80       1.0  0.77120  0.93850  0.97040  1.0000 0.1086360622
H   H81       1.0  0.96160  0.33350  0.53790  1.0000 0.1086360622
H   H82       1.0  0.03840  0.66650  0.03790  1.0000 0.1086360622
H   H83       1.0  0.16650  0.46160  0.78790  1.0000 0.1086360622
H   H84       1.0  0.83350  0.53840  0.28790  1.0000 0.1086360622
H   H85       1.0  0.53840  0.83350  0.71210  1.0000 0.1086360622
H   H86       1.0  0.46160  0.16650  0.21210  1.0000 0.1086360622
H   H87       1.0  0.33350  0.96160  0.46210  1.0000 0.1086360622
H   H88       1.0  0.66650  0.03840  0.96210  1.0000 0.1086360622
H   H89       1.0  0.82580  0.22410  0.40540  1.0000 0.0989344545
H   H90       1.0  0.17420  0.77590  0.90540  1.0000 0.0989344545
H   H91       1.0  0.27590  0.32580  0.65540  1.0000 0.0989344545
H   H92       1.0  0.72410  0.67420  0.15540  1.0000 0.0989344545
H   H93       1.0  0.67420  0.72410  0.84460  1.0000 0.0989344545
H   H94       1.0  0.32580  0.27590  0.34460  1.0000 0.0989344545
H   H95       1.0  0.22410  0.82580  0.59460  1.0000 0.0989344545
H   H96       1.0  0.77590  0.17420  0.09460  1.0000 0.0989344545
H   H97       1.0  0.84480  0.39580  0.56350  1.0000 0.1296666614
H   H98       1.0  0.15520  0.60420  0.06350  1.0000 0.1296666614
H   H99       1.0  0.10420  0.34480  0.81350  1.0000 0.1296666614
H   H100      1.0  0.89580  0.65520  0.31350  1.0000 0.1296666614
H   H101      1.0  0.65520  0.89580  0.68650  1.0000 0.1296666614
H   H102      1.0  0.34480  0.10420  0.18650  1.0000 0.1296666614
H   H103      1.0  0.39580  0.84480  0.43650  1.0000 0.1296666614
H   H104      1.0  0.60420  0.15520  0.93650  1.0000 0.1296666614
H   H105      1.0  0.73400  0.48780  0.57330  1.0000 0.0989344545
H   H106      1.0  0.26600  0.51220  0.07330  1.0000 0.0989344545
H   H107      1.0  0.01220  0.23400  0.82330  1.0000 0.0989344545
H   H108      1.0  0.98780  0.76600  0.32330  1.0000 0.0989344545
H   H109      1.0  0.76600  0.98780  0.67670  1.0000 0.0989344545
H   H110      1.0  0.23400  0.01220  0.17670  1.0000 0.0989344545
H   H111      1.0  0.48780  0.73400  0.42670  1.0000 0.0989344545
H   H112      1.0  0.51220  0.26600  0.92670  1.0000 0.0989344545
H   H113      1.0  0.66270  0.44450  0.40630  1.0000 0.0989344545
H   H114      1.0  0.33730  0.55550  0.90630  1.0000 0.0989344545
H   H115      1.0  0.05550  0.16270  0.65630  1.0000 0.0989344545
H   H116      1.0  0.94450  0.83730  0.15630  1.0000 0.0989344545
H   H117      1.0  0.83730  0.94450  0.84370  1.0000 0.0989344545
H   H118      1.0  0.16270  0.05550  0.34370  1.0000 0.0989344545
H   H119      1.0  0.44450  0.66270  0.59370  1.0000 0.0989344545
H   H120      1.0  0.55550  0.33730  0.09370  1.0000 0.0989344545
H   H121      1.0  0.76700  0.34830  0.39280  1.0000 0.1296666614
H   H122      1.0  0.23300  0.65170  0.89280  1.0000 0.1296666614
H   H123      1.0  0.15170  0.26700  0.64280  1.0000 0.1296666614
H   H124      1.0  0.84830  0.73300  0.14280  1.0000 0.1296666614
H   H125      1.0  0.73300  0.84830  0.85720  1.0000 0.1296666614
H   H126      1.0  0.26700  0.15170  0.35720  1.0000 0.1296666614
H   H127      1.0  0.34830  0.76700  0.60720  1.0000 0.1296666614
H   H128      1.0  0.65170  0.23300  0.10720  1.0000 0.1296666614
H   H129      1.0  0.74320  0.02520  0.39120  1.0000 0.251593744
H   H130      1.0  0.25680  0.97480  0.89120  1.0000 0.251593744
H   H131      1.0  0.47480  0.24320  0.64120  1.0000 0.251593744
H   H132      1.0  0.52520  0.75680  0.14120  1.0000 0.251593744
H   H133      1.0  0.75680  0.52520  0.85880  1.0000 0.251593744
H   H134      1.0  0.24320  0.47480  0.35880  1.0000 0.251593744
H   H135      1.0  0.02520  0.74320  0.60880  1.0000 0.251593744
H   H136      1.0  0.97480  0.25680  0.10880  1.0000 0.251593744
H   H137      1.0  0.74010  0.10150  0.35440  1.0000 0.251593744
H   H138      1.0  0.25990  0.89850  0.85440  1.0000 0.251593744
H   H139      1.0  0.39850  0.24010  0.60440  1.0000 0.251593744
H   H140      1.0  0.60150  0.75990  0.10440  1.0000 0.251593744
H   H141      1.0  0.75990  0.60150  0.89560  1.0000 0.251593744
H   H142      1.0  0.24010  0.39850  0.39560  1.0000 0.251593744
H   H143      1.0  0.10150  0.74010  0.64560  1.0000 0.251593744
H   H144      1.0  0.89850  0.25990  0.14560  1.0000 0.251593744
C   C1        1.0  0.58490  0.64050  0.36040  1.0000 0.0690357085
C   C2        1.0  0.41510  0.35950  0.86040  1.0000 0.0690357085
C   C3        1.0  0.85950  0.08490  0.61040  1.0000 0.0690357085
C   C4        1.0  0.14050  0.91510  0.11040  1.0000 0.0690357085
C   C5        1.0  0.91510  0.14050  0.88960  1.0000 0.0690357085
C   C6        1.0  0.08490  0.85950  0.38960  1.0000 0.0690357085
C   C7        1.0  0.64050  0.58490  0.63960  1.0000 0.0690357085
C   C8        1.0  0.35950  0.41510  0.13960  1.0000 0.0690357085
C   C9        1.0  0.61370  0.70150  0.32130  1.0000 -0.1998783247
C   C10       1.0  0.38630  0.29850  0.82130  1.0000 -0.1998783247
C   C11       1.0  0.79850  0.11370  0.57130  1.0000 -0.1998783247
C   C12       1.0  0.20150  0.88630  0.07130  1.0000 -0.1998783247
C   C13       1.0  0.88630  0.20150  0.92870  1.0000 -0.1998783247
C   C14       1.0  0.11370  0.79850  0.42870  1.0000 -0.1998783247
C   C15       1.0  0.70150  0.61370  0.67870  1.0000 -0.1998783247
C   C16       1.0  0.29850  0.38630  0.17870  1.0000 -0.1998783247
C   C17       1.0  0.68840  0.74630  0.33490  1.0000 0.1177170413
C   C18       1.0  0.31160  0.25370  0.83490  1.0000 0.1177170413
C   C19       1.0  0.75370  0.18840  0.58490  1.0000 0.1177170413
C   C20       1.0  0.24630  0.81160  0.08490  1.0000 0.1177170413
C   C21       1.0  0.81160  0.24630  0.91510  1.0000 0.1177170413
C   C22       1.0  0.18840  0.75370  0.41510  1.0000 0.1177170413
C   C23       1.0  0.74630  0.68840  0.66510  1.0000 0.1177170413
C   C24       1.0  0.25370  0.31160  0.16510  1.0000 0.1177170413
C   C25       1.0  0.73190  0.71790  0.38640  1.0000 -0.1998783247
C   C26       1.0  0.26810  0.28210  0.88640  1.0000 -0.1998783247
C   C27       1.0  0.78210  0.23190  0.63640  1.0000 -0.1998783247
C   C28       1.0  0.21790  0.76810  0.13640  1.0000 -0.1998783247
C   C29       1.0  0.76810  0.21790  0.86360  1.0000 -0.1998783247
C   C30       1.0  0.23190  0.78210  0.36360  1.0000 -0.1998783247
C   C31       1.0  0.71790  0.73190  0.61360  1.0000 -0.1998783247
C   C32       1.0  0.28210  0.26810  0.11360  1.0000 -0.1998783247
C   C33       1.0  0.69760  0.65720  0.42390  1.0000 0.0364140087
C   C34       1.0  0.30240  0.34280  0.92390  1.0000 0.0364140087
C   C35       1.0  0.84280  0.19760  0.67390  1.0000 0.0364140087
C   C36       1.0  0.15720  0.80240  0.17390  1.0000 0.0364140087
C   C37       1.0  0.80240  0.15720  0.82610  1.0000 0.0364140087
C   C38       1.0  0.19760  0.84280  0.32610  1.0000 0.0364140087
C   C39       1.0  0.65720  0.69760  0.57610  1.0000 0.0364140087
C   C40       1.0  0.34280  0.30240  0.07610  1.0000 0.0364140087
C   C41       1.0  0.71920  0.81870  0.29730  1.0000 0.0690357085
C   C42       1.0  0.28080  0.18130  0.79730  1.0000 0.0690357085
C   C43       1.0  0.68130  0.21920  0.54730  1.0000 0.0690357085
C   C44       1.0  0.31870  0.78080  0.04730  1.0000 0.0690357085
C   C45       1.0  0.78080  0.31870  0.95270  1.0000 0.0690357085
C   C46       1.0  0.21920  0.68130  0.45270  1.0000 0.0690357085
C   C47       1.0  0.81870  0.71920  0.70270  1.0000 0.0690357085
C   C48       1.0  0.18130  0.28080  0.20270  1.0000 0.0690357085
C   C49       1.0  0.69210  0.83270  0.23820  1.0000 -0.1577292424
C   C50       1.0  0.30790  0.16730  0.73820  1.0000 -0.1577292424
C   C51       1.0  0.66730  0.19210  0.48820  1.0000 -0.1577292424
C   C52       1.0  0.33270  0.80790  0.98820  1.0000 -0.1577292424
C   C53       1.0  0.80790  0.33270  0.01180  1.0000 -0.1577292424
C   C54       1.0  0.19210  0.66730  0.51180  1.0000 -0.1577292424
C   C55       1.0  0.83270  0.69210  0.76180  1.0000 -0.1577292424
C   C56       1.0  0.16730  0.30790  0.26180  1.0000 -0.1577292424
C   C57       1.0  0.72310  0.89930  0.20520  1.0000 -0.1013135746
C   C58       1.0  0.27690  0.10070  0.70520  1.0000 -0.1013135746
C   C59       1.0  0.60070  0.22310  0.45520  1.0000 -0.1013135746
C   C60       1.0  0.39930  0.77690  0.95520  1.0000 -0.1013135746
C   C61       1.0  0.77690  0.39930  0.04480  1.0000 -0.1013135746
C   C62       1.0  0.22310  0.60070  0.54480  1.0000 -0.1013135746
C   C63       1.0  0.89930  0.72310  0.79480  1.0000 -0.1013135746
C   C64       1.0  0.10070  0.27690  0.29480  1.0000 -0.1013135746
C   C65       1.0  0.78110  0.95480  0.23010  1.0000 -0.1577292424
C   C66       1.0  0.21890  0.04520  0.73010  1.0000 -0.1577292424
C   C67       1.0  0.54520  0.28110  0.48010  1.0000 -0.1577292424
C   C68       1.0  0.45480  0.71890  0.98010  1.0000 -0.1577292424
C   C69       1.0  0.71890  0.45480  0.01990  1.0000 -0.1577292424
C   C70       1.0  0.28110  0.54520  0.51990  1.0000 -0.1577292424
C   C71       1.0  0.95480  0.78110  0.76990  1.0000 -0.1577292424
C   C72       1.0  0.04520  0.21890  0.26990  1.0000 -0.1577292424
C   C73       1.0  0.81000  0.94060  0.29010  1.0000 0.0129926762
C   C74       1.0  0.19000  0.05940  0.79010  1.0000 0.0129926762
C   C75       1.0  0.55940  0.31000  0.54010  1.0000 0.0129926762
C   C76       1.0  0.44060  0.69000  0.04010  1.0000 0.0129926762
C   C77       1.0  0.69000  0.44060  0.95990  1.0000 0.0129926762
C   C78       1.0  0.31000  0.55940  0.45990  1.0000 0.0129926762
C   C79       1.0  0.94060  0.81000  0.70990  1.0000 0.0129926762
C   C80       1.0  0.05940  0.19000  0.20990  1.0000 0.0129926762
C   C81       1.0  0.77790  0.87330  0.32290  1.0000 -0.1889872052
C   C82       1.0  0.22210  0.12670  0.82290  1.0000 -0.1889872052
C   C83       1.0  0.62670  0.27790  0.57290  1.0000 -0.1889872052
C   C84       1.0  0.37330  0.72210  0.07290  1.0000 -0.1889872052
C   C85       1.0  0.72210  0.37330  0.92710  1.0000 -0.1889872052
C   C86       1.0  0.27790  0.62670  0.42710  1.0000 -0.1889872052
C   C87       1.0  0.87330  0.77790  0.67710  1.0000 -0.1889872052
C   C88       1.0  0.12670  0.22210  0.17710  1.0000 -0.1889872052
C   C89       1.0  0.87250  0.99620  0.31970  1.0000 0.1803063095
C   C90       1.0  0.12750  0.00380  0.81970  1.0000 0.1803063095
C   C91       1.0  0.50380  0.37250  0.56970  1.0000 0.1803063095
C   C92       1.0  0.49620  0.62750  0.06970  1.0000 0.1803063095
C   C93       1.0  0.62750  0.49620  0.93030  1.0000 0.1803063095
C   C94       1.0  0.37250  0.50380  0.43030  1.0000 0.1803063095
C   C95       1.0  0.99620  0.87250  0.68030  1.0000 0.1803063095
C   C96       1.0  0.00380  0.12750  0.18030  1.0000 0.1803063095
C   C97       1.0  0.92370  0.09160  0.38220  1.0000 0.1803063095
C   C98       1.0  0.07630  0.90840  0.88220  1.0000 0.1803063095
C   C99       1.0  0.40840  0.42370  0.63220  1.0000 0.1803063095
C   C100      1.0  0.59160  0.57630  0.13220  1.0000 0.1803063095
C   C101      1.0  0.57630  0.59160  0.86780  1.0000 0.1803063095
C   C102      1.0  0.42370  0.40840  0.36780  1.0000 0.1803063095
C   C103      1.0  0.09160  0.92370  0.61780  1.0000 0.1803063095
C   C104      1.0  0.90840  0.07630  0.11780  1.0000 0.1803063095
C   C105      1.0  0.93150  0.16070  0.42600  1.0000 0.0337416321
C   C106      1.0  0.06850  0.83930  0.92600  1.0000 0.0337416321
C   C107      1.0  0.33930  0.43150  0.67600  1.0000 0.0337416321
C   C108      1.0  0.66070  0.56850  0.17600  1.0000 0.0337416321
C   C109      1.0  0.56850  0.66070  0.82400  1.0000 0.0337416321
C   C110      1.0  0.43150  0.33930  0.32400  1.0000 0.0337416321
C   C111      1.0  0.16070  0.93150  0.57400  1.0000 0.0337416321
C   C112      1.0  0.83930  0.06850  0.07400  1.0000 0.0337416321
C   C113      1.0  0.00300  0.16170  0.46280  1.0000 -0.1463030376
C   C114      1.0  0.99700  0.83830  0.96280  1.0000 -0.1463030376
C   C115      1.0  0.33830  0.50300  0.71280  1.0000 -0.1463030376
C   C116      1.0  0.66170  0.49700  0.21280  1.0000 -0.1463030376
C   C117      1.0  0.49700  0.66170  0.78720  1.0000 -0.1463030376
C   C118      1.0  0.50300  0.33830  0.28720  1.0000 -0.1463030376
C   C119      1.0  0.16170  0.00300  0.53720  1.0000 -0.1463030376
C   C120      1.0  0.83830  0.99700  0.03720  1.0000 -0.1463030376
C   C121      1.0  0.01390  0.22770  0.50470  1.0000 -0.1103603863
C   C122      1.0  0.98610  0.77230  0.00470  1.0000 -0.1103603863
C   C123      1.0  0.27230  0.51390  0.75470  1.0000 -0.1103603863
C   C124      1.0  0.72770  0.48610  0.25470  1.0000 -0.1103603863
C   C125      1.0  0.48610  0.72770  0.74530  1.0000 -0.1103603863
C   C126      1.0  0.51390  0.27230  0.24530  1.0000 -0.1103603863
C   C127      1.0  0.22770  0.01390  0.49530  1.0000 -0.1103603863
C   C128      1.0  0.77230  0.98610  0.99530  1.0000 -0.1103603863
C   C129      1.0  0.95460  0.29060  0.50930  1.0000 -0.1577292424
C   C130      1.0  0.04540  0.70940  0.00930  1.0000 -0.1577292424
C   C131      1.0  0.20940  0.45460  0.75930  1.0000 -0.1577292424
C   C132      1.0  0.79060  0.54540  0.25930  1.0000 -0.1577292424
C   C133      1.0  0.54540  0.79060  0.74070  1.0000 -0.1577292424
C   C134      1.0  0.45460  0.20940  0.24070  1.0000 -0.1577292424
C   C135      1.0  0.29060  0.95460  0.49070  1.0000 -0.1577292424
C   C136      1.0  0.70940  0.04540  0.99070  1.0000 -0.1577292424
C   C137      1.0  0.88440  0.29050  0.47130  1.0000 0.0690357085
C   C138      1.0  0.11560  0.70950  0.97130  1.0000 0.0690357085
C   C139      1.0  0.20950  0.38440  0.72130  1.0000 0.0690357085
C   C140      1.0  0.79050  0.61560  0.22130  1.0000 0.0690357085
C   C141      1.0  0.61560  0.79050  0.77870  1.0000 0.0690357085
C   C142      1.0  0.38440  0.20950  0.27870  1.0000 0.0690357085
C   C143      1.0  0.29050  0.88440  0.52870  1.0000 0.0690357085
C   C144      1.0  0.70950  0.11560  0.02870  1.0000 0.0690357085
C   C145      1.0  0.87330  0.22490  0.43040  1.0000 -0.1889872052
C   C146      1.0  0.12670  0.77510  0.93040  1.0000 -0.1889872052
C   C147      1.0  0.27510  0.37330  0.68040  1.0000 -0.1889872052
C   C148      1.0  0.72490  0.62670  0.18040  1.0000 -0.1889872052
C   C149      1.0  0.62670  0.72490  0.81960  1.0000 -0.1889872052
C   C150      1.0  0.37330  0.27510  0.31960  1.0000 -0.1889872052
C   C151      1.0  0.22490  0.87330  0.56960  1.0000 -0.1889872052
C   C152      1.0  0.77510  0.12670  0.06960  1.0000 -0.1889872052
C   C153      1.0  0.81770  0.35800  0.47770  1.0000 0.1177170413
C   C154      1.0  0.18230  0.64200  0.97770  1.0000 0.1177170413
C   C155      1.0  0.14200  0.31770  0.72770  1.0000 0.1177170413
C   C156      1.0  0.85800  0.68230  0.22770  1.0000 0.1177170413
C   C157      1.0  0.68230  0.85800  0.77230  1.0000 0.1177170413
C   C158      1.0  0.31770  0.14200  0.27230  1.0000 0.1177170413
C   C159      1.0  0.35800  0.81770  0.52230  1.0000 0.1177170413
C   C160      1.0  0.64200  0.18230  0.02230  1.0000 0.1177170413
C   C161      1.0  0.80730  0.40320  0.53110  1.0000 -0.1998783247
C   C162      1.0  0.19270  0.59680  0.03110  1.0000 -0.1998783247
C   C163      1.0  0.09680  0.30730  0.78110  1.0000 -0.1998783247
C   C164      1.0  0.90320  0.69270  0.28110  1.0000 -0.1998783247
C   C165      1.0  0.69270  0.90320  0.71890  1.0000 -0.1998783247
C   C166      1.0  0.30730  0.09680  0.21890  1.0000 -0.1998783247
C   C167      1.0  0.40320  0.80730  0.46890  1.0000 -0.1998783247
C   C168      1.0  0.59680  0.19270  0.96890  1.0000 -0.1998783247
C   C169      1.0  0.74090  0.45950  0.53630  1.0000 0.0690357085
C   C170      1.0  0.25910  0.54050  0.03630  1.0000 0.0690357085
C   C171      1.0  0.04050  0.24090  0.78630  1.0000 0.0690357085
C   C172      1.0  0.95950  0.75910  0.28630  1.0000 0.0690357085
C   C173      1.0  0.75910  0.95950  0.71370  1.0000 0.0690357085
C   C174      1.0  0.24090  0.04050  0.21370  1.0000 0.0690357085
C   C175      1.0  0.45950  0.74090  0.46370  1.0000 0.0690357085
C   C176      1.0  0.54050  0.25910  0.96370  1.0000 0.0690357085
C   C177      1.0  0.69890  0.43350  0.43880  1.0000 0.0631297879
C   C178      1.0  0.30110  0.56650  0.93880  1.0000 0.0631297879
C   C179      1.0  0.06650  0.19890  0.68880  1.0000 0.0631297879
C   C180      1.0  0.93350  0.80110  0.18880  1.0000 0.0631297879
C   C181      1.0  0.80110  0.93350  0.81120  1.0000 0.0631297879
C   C182      1.0  0.19890  0.06650  0.31120  1.0000 0.0631297879
C   C183      1.0  0.43350  0.69890  0.56120  1.0000 0.0631297879
C   C184      1.0  0.56650  0.30110  0.06120  1.0000 0.0631297879
C   C185      1.0  0.76170  0.37580  0.43030  1.0000 -0.1998783247
C   C186      1.0  0.23830  0.62420  0.93030  1.0000 -0.1998783247
C   C187      1.0  0.12420  0.26170  0.68030  1.0000 -0.1998783247
C   C188      1.0  0.87580  0.73830  0.18030  1.0000 -0.1998783247
C   C189      1.0  0.73830  0.87580  0.81970  1.0000 -0.1998783247
C   C190      1.0  0.26170  0.12420  0.31970  1.0000 -0.1998783247
C   C191      1.0  0.37580  0.76170  0.56970  1.0000 -0.1998783247
C   C192      1.0  0.62420  0.23830  0.06970  1.0000 -0.1998783247
N   N1        1.0  0.62250  0.62040  0.41260  1.0000 -0.2348875053
N   N2        1.0  0.37750  0.37960  0.91260  1.0000 -0.2358266104
N   N3        1.0  0.87960  0.12250  0.66260  1.0000 -0.2348875053
N   N4        1.0  0.12040  0.87750  0.16260  1.0000 -0.2348875053
N   N5        1.0  0.87750  0.12040  0.83740  1.0000 -0.2348875053
N   N6        1.0  0.12250  0.87960  0.33740  1.0000 -0.2358266104
N   N7        1.0  0.62040  0.62250  0.58740  1.0000 -0.2358266104
N   N8        1.0  0.37960  0.37750  0.08740  1.0000 -0.2348875053
N   N9        1.0  0.95430  0.99400  0.31580  1.0000 -0.2358266104
N   N10       1.0  0.04570  0.00600  0.81580  1.0000 -0.2358266104
N   N11       1.0  0.50600  0.45430  0.56580  1.0000 -0.2358266104
N   N12       1.0  0.49400  0.54570  0.06580  1.0000 -0.2358266104
N   N13       1.0  0.54570  0.49400  0.93420  1.0000 -0.2358266104
N   N14       1.0  0.45430  0.50600  0.43420  1.0000 -0.2358266104
N   N15       1.0  0.99400  0.95430  0.68420  1.0000 -0.2358266104
N   N16       1.0  0.00600  0.04570  0.18420  1.0000 -0.2358266104
N   N17       1.0  0.98720  0.05520  0.35500  1.0000 -0.2809389927
N   N18       1.0  0.01280  0.94480  0.85500  1.0000 -0.2809389927
N   N19       1.0  0.44480  0.48720  0.60500  1.0000 -0.2809389927
N   N20       1.0  0.55520  0.51280  0.10500  1.0000 -0.2809389927
N   N21       1.0  0.51280  0.55520  0.89500  1.0000 -0.2809389927
N   N22       1.0  0.48720  0.44480  0.39500  1.0000 -0.2809389927
N   N23       1.0  0.05520  0.98720  0.64500  1.0000 -0.2809389927
N   N24       1.0  0.94480  0.01280  0.14500  1.0000 -0.2809389927
N   N25       1.0  0.85020  0.05620  0.36110  1.0000 0.0631297879
N   N26       1.0  0.14980  0.94380  0.86110  1.0000 0.0631297879
N   N27       1.0  0.44380  0.35020  0.61110  1.0000 0.0631297879
N   N28       1.0  0.55620  0.64980  0.11110  1.0000 0.0631297879
N   N29       1.0  0.64980  0.55620  0.88890  1.0000 0.0631297879
N   N30       1.0  0.35020  0.44380  0.38890  1.0000 0.0631297879
N   N31       1.0  0.05620  0.85020  0.63890  1.0000 0.0631297879
N   N32       1.0  0.94380  0.14980  0.13890  1.0000 0.0631297879
N   N33       1.0  0.76900  0.07380  0.38290  1.0000 -0.4850018121
N   N34       1.0  0.23100  0.92620  0.88290  1.0000 -0.4850018121
N   N35       1.0  0.42620  0.26900  0.63290  1.0000 -0.4850018121
N   N36       1.0  0.57380  0.73100  0.13290  1.0000 -0.4850018121
N   N37       1.0  0.73100  0.57380  0.86710  1.0000 -0.4850018121
N   N38       1.0  0.26900  0.42620  0.36710  1.0000 -0.4850018121
N   N39       1.0  0.07380  0.76900  0.61710  1.0000 -0.4850018121
N   N40       1.0  0.92620  0.23100  0.11710  1.0000 -0.4850018121
N   N41       1.0  0.68630  0.47550  0.49130  1.0000 -0.2348875053
N   N42       1.0  0.31370  0.52450  0.99130  1.0000 -0.2348875053
N   N43       1.0  0.02450  0.18630  0.74130  1.0000 -0.2348875053
N   N44       1.0  0.97550  0.81370  0.24130  1.0000 -0.2348875053
N   N45       1.0  0.81370  0.97550  0.75870  1.0000 -0.2348875053
N   N46       1.0  0.18630  0.02450  0.25870  1.0000 -0.2348875053
N   N47       1.0  0.47550  0.68630  0.50870  1.0000 -0.2348875053
N   N48       1.0  0.52450  0.31370  0.00870  1.0000 -0.2348875053
Cl  Cl1       1.0  0.62078  0.37922  0.75000  1.0000 0.9870673321
Cl  Cl2       1.0  0.37922  0.62078  0.25000  1.0000 0.9870673321
Cl  Cl3       1.0  0.87922  0.87922  0.50000  1.0000 0.9870673321
Cl  Cl4       1.0  0.12078  0.12078  0.00000  1.0000 0.9870673321
O   O1        1.0  0.61390  0.32360  0.79340  1.0000 -0.3497847118
O   O2        1.0  0.67640  0.38610  0.70660  1.0000 -0.3497847118
O   O3        1.0  0.63710  0.44250  0.78250  1.0000 -0.3271102108
O   O4        1.0  0.55750  0.36290  0.71750  1.0000 -0.3271102108
O   O5        1.0  0.38610  0.67640  0.29340  1.0000 -0.3497847118
O   O6        1.0  0.32360  0.61390  0.20660  1.0000 -0.3497847118
O   O7        1.0  0.36290  0.55750  0.28250  1.0000 -0.3271102108
O   O8        1.0  0.44250  0.63710  0.21750  1.0000 -0.3271102108
O   O9        1.0  0.82360  0.88610  0.54340  1.0000 -0.3497847118
O   O10       1.0  0.88610  0.82360  0.45660  1.0000 -0.3497847118
O   O11       1.0  0.94250  0.86290  0.53250  1.0000 -0.3271102108
O   O12       1.0  0.86290  0.94250  0.46750  1.0000 -0.3271102108
O   O13       1.0  0.17640  0.11390  0.04340  1.0000 -0.3497847118
O   O14       1.0  0.11390  0.17640  0.95660  1.0000 -0.3497847118
O   O15       1.0  0.05750  0.13710  0.03250  1.0000 -0.3271102108
O   O16       1.0  0.13710  0.05750  0.96750  1.0000 -0.3271102108
