# DDEC6 charges by PACMAN v1.1 (https://github.com/mtap-research/PACMAN-charge/)
data_2010[Cd][nuc]3[ION]10
_chemical_formula_sum              "Cd4 H144 C192 N48 Cl4 O16"
_cell_length_a       15.8635
_cell_length_b       15.8635
_cell_length_c       21.463
_cell_angle_alpha    90
_cell_angle_beta     90
_cell_angle_gamma    90

_symmetry_space_group_name_H-M    "P 1"
_symmetry_Int_Tables_number       1

loop_
  _symmetry_equiv_pos_as_xyz
  'x, y, z'

loop_
  _atom_site_type_symbol
  _atom_site_label
  _atom_site_symmetry_multiplicity
  _atom_site_fract_x
  _atom_site_fract_y
  _atom_site_fract_z
  _atom_site_occupancy
  _atom_site_charge
Cd  Cd1       1.0  0.94063  0.05937  0.75000  1.0000 0.6469358674
Cd  Cd2       1.0  0.05937  0.94063  0.25000  1.0000 0.6469358674
Cd  Cd3       1.0  0.44063  0.44063  0.00000  1.0000 0.6469358674
Cd  Cd4       1.0  0.55937  0.55937  0.50000  1.0000 0.6469358674
H   H1        1.0  0.61160  0.53880  0.65200  1.0000 0.1000178105
H   H2        1.0  0.38840  0.46120  0.15200  1.0000 0.1000178105
H   H3        1.0  0.96120  0.11160  0.90200  1.0000 0.1000178105
H   H4        1.0  0.03880  0.88840  0.40200  1.0000 0.1000178105
H   H5        1.0  0.88840  0.03880  0.59800  1.0000 0.1000178105
H   H6        1.0  0.11160  0.96120  0.09800  1.0000 0.1000178105
H   H7        1.0  0.53880  0.61160  0.34800  1.0000 0.1000178105
H   H8        1.0  0.46120  0.38840  0.84800  1.0000 0.1000178105
H   H9        1.0  0.71480  0.58810  0.71800  1.0000 0.1282162762
H   H10       1.0  0.28520  0.41190  0.21800  1.0000 0.1282162762
H   H11       1.0  0.91190  0.21480  0.96800  1.0000 0.1282162762
H   H12       1.0  0.08810  0.78520  0.46800  1.0000 0.1282162762
H   H13       1.0  0.78520  0.08810  0.53200  1.0000 0.1282162762
H   H14       1.0  0.21480  0.91190  0.03200  1.0000 0.1282162762
H   H15       1.0  0.58810  0.71480  0.28200  1.0000 0.1282162762
H   H16       1.0  0.41190  0.28520  0.78200  1.0000 0.1282162762
H   H17       1.0  0.74040  0.78910  0.60410  1.0000 0.1282162762
H   H18       1.0  0.25960  0.21090  0.10410  1.0000 0.1282162762
H   H19       1.0  0.71090  0.24040  0.85410  1.0000 0.1282162762
H   H20       1.0  0.28910  0.75960  0.35410  1.0000 0.1282162762
H   H21       1.0  0.75960  0.28910  0.64590  1.0000 0.1282162762
H   H22       1.0  0.24040  0.71090  0.14590  1.0000 0.1282162762
H   H23       1.0  0.78910  0.74040  0.39590  1.0000 0.1282162762
H   H24       1.0  0.21090  0.25960  0.89590  1.0000 0.1282162762
H   H25       1.0  0.64000  0.73200  0.54020  1.0000 0.1000178105
H   H26       1.0  0.36000  0.26800  0.04020  1.0000 0.1000178105
H   H27       1.0  0.76800  0.14000  0.79020  1.0000 0.1000178105
H   H28       1.0  0.23200  0.86000  0.29020  1.0000 0.1000178105
H   H29       1.0  0.86000  0.23200  0.70980  1.0000 0.1000178105
H   H30       1.0  0.14000  0.76800  0.20980  1.0000 0.1000178105
H   H31       1.0  0.73200  0.64000  0.45980  1.0000 0.1000178105
H   H32       1.0  0.26800  0.36000  0.95980  1.0000 0.1000178105
H   H33       1.0  0.79940  0.65160  0.78120  1.0000 0.1000178105
H   H34       1.0  0.20060  0.34840  0.28120  1.0000 0.1000178105
H   H35       1.0  0.84840  0.29940  0.03120  1.0000 0.1000178105
H   H36       1.0  0.15160  0.70060  0.53120  1.0000 0.1000178105
H   H37       1.0  0.70060  0.15160  0.46880  1.0000 0.1000178105
H   H38       1.0  0.29940  0.84840  0.96880  1.0000 0.1000178105
H   H39       1.0  0.65160  0.79940  0.21880  1.0000 0.1000178105
H   H40       1.0  0.34840  0.20060  0.71880  1.0000 0.1000178105
H   H41       1.0  0.91550  0.69940  0.83620  1.0000 0.1000178105
H   H42       1.0  0.08450  0.30060  0.33620  1.0000 0.1000178105
H   H43       1.0  0.80060  0.41550  0.08620  1.0000 0.1000178105
H   H44       1.0  0.19940  0.58450  0.58620  1.0000 0.1000178105
H   H45       1.0  0.58450  0.19940  0.41380  1.0000 0.1000178105
H   H46       1.0  0.41550  0.80060  0.91380  1.0000 0.1000178105
H   H47       1.0  0.69940  0.91550  0.16380  1.0000 0.1000178105
H   H48       1.0  0.30060  0.08450  0.66380  1.0000 0.1000178105
H   H49       1.0  0.00710  0.80090  0.79190  1.0000 0.1108330108
H   H50       1.0  0.99290  0.19910  0.29190  1.0000 0.1000178105
H   H51       1.0  0.69910  0.50710  0.04190  1.0000 0.1108330108
H   H52       1.0  0.30090  0.49290  0.54190  1.0000 0.1000178105
H   H53       1.0  0.49290  0.30090  0.45810  1.0000 0.1000178105
H   H54       1.0  0.50710  0.69910  0.95810  1.0000 0.1108330108
H   H55       1.0  0.80090  0.00710  0.20810  1.0000 0.1000178105
H   H56       1.0  0.19910  0.99290  0.70810  1.0000 0.1000178105
H   H57       1.0  0.86020  0.80580  0.63800  1.0000 0.1108330108
H   H58       1.0  0.13980  0.19420  0.13800  1.0000 0.1108330108
H   H59       1.0  0.69420  0.36020  0.88800  1.0000 0.1108330108
H   H60       1.0  0.30580  0.63980  0.38800  1.0000 0.1108330108
H   H61       1.0  0.63980  0.30580  0.61200  1.0000 0.1108330108
H   H62       1.0  0.36020  0.69420  0.11200  1.0000 0.1108330108
H   H63       1.0  0.80580  0.86020  0.36200  1.0000 0.1108330108
H   H64       1.0  0.19420  0.13980  0.86200  1.0000 0.1108330108
H   H65       1.0  0.12240  0.04750  0.53930  1.0000 0.1108330108
H   H66       1.0  0.87760  0.95250  0.03930  1.0000 0.1108330108
H   H67       1.0  0.45250  0.62240  0.78930  1.0000 0.1108330108
H   H68       1.0  0.54750  0.37760  0.28930  1.0000 0.1108330108
H   H69       1.0  0.37760  0.54750  0.71070  1.0000 0.1108330108
H   H70       1.0  0.62240  0.45250  0.21070  1.0000 0.1108330108
H   H71       1.0  0.04750  0.12240  0.46070  1.0000 0.1108330108
H   H72       1.0  0.95250  0.87760  0.96070  1.0000 0.1108330108
H   H73       1.0  0.23540  0.06840  0.47300  1.0000 0.1108330108
H   H74       1.0  0.76460  0.93160  0.97300  1.0000 0.1108330108
H   H75       1.0  0.43160  0.73540  0.72300  1.0000 0.1108330108
H   H76       1.0  0.56840  0.26460  0.22300  1.0000 0.1108330108
H   H77       1.0  0.26460  0.56840  0.77700  1.0000 0.1108330108
H   H78       1.0  0.73540  0.43160  0.27700  1.0000 0.1108330108
H   H79       1.0  0.06840  0.23540  0.52700  1.0000 0.1108330108
H   H80       1.0  0.93160  0.76460  0.02700  1.0000 0.1108330108
H   H81       1.0  0.33900  0.96690  0.46240  1.0000 0.1108330108
H   H82       1.0  0.66100  0.03310  0.96240  1.0000 0.1108330108
H   H83       1.0  0.53310  0.83900  0.71240  1.0000 0.1108330108
H   H84       1.0  0.46690  0.16100  0.21240  1.0000 0.1108330108
H   H85       1.0  0.16100  0.46690  0.78760  1.0000 0.1108330108
H   H86       1.0  0.83900  0.53310  0.28760  1.0000 0.1108330108
H   H87       1.0  0.96690  0.33900  0.53760  1.0000 0.1108330108
H   H88       1.0  0.03310  0.66100  0.03760  1.0000 0.1108330108
H   H89       1.0  0.22360  0.82560  0.59340  1.0000 0.1000178105
H   H90       1.0  0.77640  0.17440  0.09340  1.0000 0.1000178105
H   H91       1.0  0.67440  0.72360  0.84340  1.0000 0.1000178105
H   H92       1.0  0.32560  0.27640  0.34340  1.0000 0.1000178105
H   H93       1.0  0.27640  0.32560  0.65660  1.0000 0.1000178105
H   H94       1.0  0.72360  0.67440  0.15660  1.0000 0.1000178105
H   H95       1.0  0.82560  0.22360  0.40660  1.0000 0.1000178105
H   H96       1.0  0.17440  0.77640  0.90660  1.0000 0.1000178105
H   H97       1.0  0.40080  0.85120  0.43500  1.0000 0.1282162762
H   H98       1.0  0.59920  0.14880  0.93500  1.0000 0.1282162762
H   H99       1.0  0.64880  0.90080  0.68500  1.0000 0.1282162762
H   H100      1.0  0.35120  0.09920  0.18500  1.0000 0.1282162762
H   H101      1.0  0.09920  0.35120  0.81500  1.0000 0.1282162762
H   H102      1.0  0.90080  0.64880  0.31500  1.0000 0.1282162762
H   H103      1.0  0.85120  0.40080  0.56500  1.0000 0.1282162762
H   H104      1.0  0.14880  0.59920  0.06500  1.0000 0.1282162762
H   H105      1.0  0.49430  0.73990  0.42480  1.0000 0.0946861378
H   H106      1.0  0.50570  0.26010  0.92480  1.0000 0.0946861378
H   H107      1.0  0.76010  0.99430  0.67480  1.0000 0.0946861378
H   H108      1.0  0.23990  0.00570  0.17480  1.0000 0.0946861378
H   H109      1.0  0.00570  0.23990  0.82520  1.0000 0.0946861378
H   H110      1.0  0.99430  0.76010  0.32520  1.0000 0.0946861378
H   H111      1.0  0.73990  0.49430  0.57520  1.0000 0.0946861378
H   H112      1.0  0.26010  0.50570  0.07520  1.0000 0.0946861378
H   H113      1.0  0.43930  0.65800  0.59210  1.0000 0.1000178105
H   H114      1.0  0.56070  0.34200  0.09210  1.0000 0.1000178105
H   H115      1.0  0.84200  0.93930  0.84210  1.0000 0.1000178105
H   H116      1.0  0.15800  0.06070  0.34210  1.0000 0.1000178105
H   H117      1.0  0.06070  0.15800  0.65790  1.0000 0.1000178105
H   H118      1.0  0.93930  0.84200  0.15790  1.0000 0.1000178105
H   H119      1.0  0.65800  0.43930  0.40790  1.0000 0.1000178105
H   H120      1.0  0.34200  0.56070  0.90790  1.0000 0.1000178105
H   H121      1.0  0.34610  0.76790  0.60740  1.0000 0.1282162762
H   H122      1.0  0.65390  0.23210  0.10740  1.0000 0.1282162762
H   H123      1.0  0.73210  0.84610  0.85740  1.0000 0.1282162762
H   H124      1.0  0.26790  0.15390  0.35740  1.0000 0.1282162762
H   H125      1.0  0.15390  0.26790  0.64260  1.0000 0.1282162762
H   H126      1.0  0.84610  0.73210  0.14260  1.0000 0.1282162762
H   H127      1.0  0.76790  0.34610  0.39260  1.0000 0.1282162762
H   H128      1.0  0.23210  0.65390  0.89260  1.0000 0.1282162762
H   H129      1.0  0.10220  0.74140  0.64890  1.0000 0.2553527526
H   H130      1.0  0.89780  0.25860  0.14890  1.0000 0.2553527526
H   H131      1.0  0.75860  0.60220  0.89890  1.0000 0.2553527526
H   H132      1.0  0.24140  0.39780  0.39890  1.0000 0.2553527526
H   H133      1.0  0.39780  0.24140  0.60110  1.0000 0.2553527526
H   H134      1.0  0.60220  0.75860  0.10110  1.0000 0.2553527526
H   H135      1.0  0.74140  0.10220  0.35110  1.0000 0.2553527526
H   H136      1.0  0.25860  0.89780  0.85110  1.0000 0.2553527526
H   H137      1.0  0.02760  0.74380  0.60720  1.0000 0.2653072498
H   H138      1.0  0.97240  0.25620  0.10720  1.0000 0.2653072498
H   H139      1.0  0.75620  0.52760  0.85720  1.0000 0.2653072498
H   H140      1.0  0.24380  0.47240  0.35720  1.0000 0.2653072498
H   H141      1.0  0.47240  0.24380  0.64280  1.0000 0.2653072498
H   H142      1.0  0.52760  0.75620  0.14280  1.0000 0.2653072498
H   H143      1.0  0.74380  0.02760  0.39280  1.0000 0.2653072498
H   H144      1.0  0.25620  0.97240  0.89280  1.0000 0.2653072498
C   C1        1.0  0.64070  0.58900  0.64090  1.0000 0.0618387072
C   C2        1.0  0.35930  0.41100  0.14090  1.0000 0.0618387072
C   C3        1.0  0.91100  0.14070  0.89090  1.0000 0.0618387072
C   C4        1.0  0.08900  0.85930  0.39090  1.0000 0.0618387072
C   C5        1.0  0.85930  0.08900  0.60910  1.0000 0.0618387072
C   C6        1.0  0.14070  0.91100  0.10910  1.0000 0.0618387072
C   C7        1.0  0.58900  0.64070  0.35910  1.0000 0.0618387072
C   C8        1.0  0.41100  0.35930  0.85910  1.0000 0.0618387072
C   C9        1.0  0.70210  0.61820  0.68090  1.0000 -0.1980764163
C   C10       1.0  0.29790  0.38180  0.18090  1.0000 -0.1980764163
C   C11       1.0  0.88180  0.20210  0.93090  1.0000 -0.1980764163
C   C12       1.0  0.11820  0.79790  0.43090  1.0000 -0.1980764163
C   C13       1.0  0.79790  0.11820  0.56910  1.0000 -0.1980764163
C   C14       1.0  0.20210  0.88180  0.06910  1.0000 -0.1980764163
C   C15       1.0  0.61820  0.70210  0.31910  1.0000 -0.1980764163
C   C16       1.0  0.38180  0.29790  0.81910  1.0000 -0.1980764163
C   C17       1.0  0.74570  0.69210  0.66650  1.0000 0.1169381014
C   C18       1.0  0.25430  0.30790  0.16650  1.0000 0.1169381014
C   C19       1.0  0.80790  0.24570  0.91650  1.0000 0.1169381014
C   C20       1.0  0.19210  0.75430  0.41650  1.0000 0.1169381014
C   C21       1.0  0.75430  0.19210  0.58350  1.0000 0.1169381014
C   C22       1.0  0.24570  0.80790  0.08350  1.0000 0.1169381014
C   C23       1.0  0.69210  0.74570  0.33350  1.0000 0.1169381014
C   C24       1.0  0.30790  0.25430  0.83350  1.0000 0.1169381014
C   C25       1.0  0.71730  0.73540  0.61380  1.0000 -0.1980764163
C   C26       1.0  0.28270  0.26460  0.11380  1.0000 -0.1980764163
C   C27       1.0  0.76460  0.21730  0.86380  1.0000 -0.1980764163
C   C28       1.0  0.23540  0.78270  0.36380  1.0000 -0.1980764163
C   C29       1.0  0.78270  0.23540  0.63620  1.0000 -0.1980764163
C   C30       1.0  0.21730  0.76460  0.13620  1.0000 -0.1980764163
C   C31       1.0  0.73540  0.71730  0.38620  1.0000 -0.1980764163
C   C32       1.0  0.26460  0.28270  0.88620  1.0000 -0.1980764163
C   C33       1.0  0.65670  0.70140  0.57620  1.0000 0.0382372423
C   C34       1.0  0.34330  0.29860  0.07620  1.0000 0.0382372423
C   C35       1.0  0.79860  0.15670  0.82620  1.0000 0.0382372423
C   C36       1.0  0.20140  0.84330  0.32620  1.0000 0.0382372423
C   C37       1.0  0.84330  0.20140  0.67380  1.0000 0.0382372423
C   C38       1.0  0.15670  0.79860  0.17380  1.0000 0.0382372423
C   C39       1.0  0.70140  0.65670  0.42380  1.0000 0.0382372423
C   C40       1.0  0.29860  0.34330  0.92380  1.0000 0.0382372423
C   C41       1.0  0.81830  0.72250  0.70370  1.0000 0.069569968
C   C42       1.0  0.18170  0.27750  0.20370  1.0000 0.069569968
C   C43       1.0  0.77750  0.31830  0.95370  1.0000 0.069569968
C   C44       1.0  0.22250  0.68170  0.45370  1.0000 0.069569968
C   C45       1.0  0.68170  0.22250  0.54630  1.0000 0.069569968
C   C46       1.0  0.31830  0.77750  0.04630  1.0000 0.069569968
C   C47       1.0  0.72250  0.81830  0.29630  1.0000 0.069569968
C   C48       1.0  0.27750  0.18170  0.79630  1.0000 0.069569968
C   C49       1.0  0.83560  0.69240  0.76290  1.0000 -0.160205924
C   C50       1.0  0.16440  0.30760  0.26290  1.0000 -0.160205924
C   C51       1.0  0.80760  0.33560  0.01290  1.0000 -0.160205924
C   C52       1.0  0.19240  0.66440  0.51290  1.0000 -0.160205924
C   C53       1.0  0.66440  0.19240  0.48710  1.0000 -0.160205924
C   C54       1.0  0.33560  0.80760  0.98710  1.0000 -0.160205924
C   C55       1.0  0.69240  0.83560  0.23710  1.0000 -0.160205924
C   C56       1.0  0.30760  0.16440  0.73710  1.0000 -0.160205924
C   C57       1.0  0.90450  0.72090  0.79560  1.0000 -0.1050336786
C   C58       1.0  0.09550  0.27910  0.29560  1.0000 -0.1050336786
C   C59       1.0  0.77910  0.40450  0.04560  1.0000 -0.1050336786
C   C60       1.0  0.22090  0.59550  0.54560  1.0000 -0.1050336786
C   C61       1.0  0.59550  0.22090  0.45440  1.0000 -0.1050336786
C   C62       1.0  0.40450  0.77910  0.95440  1.0000 -0.1050336786
C   C63       1.0  0.72090  0.90450  0.20440  1.0000 -0.1050336786
C   C64       1.0  0.27910  0.09550  0.70440  1.0000 -0.1050336786
C   C65       1.0  0.95910  0.78160  0.76960  1.0000 -0.160205924
C   C66       1.0  0.04090  0.21840  0.26960  1.0000 -0.160205924
C   C67       1.0  0.71840  0.45910  0.01960  1.0000 -0.160205924
C   C68       1.0  0.28160  0.54090  0.51960  1.0000 -0.160205924
C   C69       1.0  0.54090  0.28160  0.48040  1.0000 -0.160205924
C   C70       1.0  0.45910  0.71840  0.98040  1.0000 -0.160205924
C   C71       1.0  0.78160  0.95910  0.23040  1.0000 -0.160205924
C   C72       1.0  0.21840  0.04090  0.73040  1.0000 -0.160205924
C   C73       1.0  0.94090  0.81240  0.71060  1.0000 0.0180840395
C   C74       1.0  0.05910  0.18760  0.21060  1.0000 0.0180840395
C   C75       1.0  0.68760  0.44090  0.96060  1.0000 0.0180840395
C   C76       1.0  0.31240  0.55910  0.46060  1.0000 0.0180840395
C   C77       1.0  0.55910  0.31240  0.53940  1.0000 0.0180840395
C   C78       1.0  0.44090  0.68760  0.03940  1.0000 0.0180840395
C   C79       1.0  0.81240  0.94090  0.28940  1.0000 0.0180840395
C   C80       1.0  0.18760  0.05910  0.78940  1.0000 0.0180840395
C   C81       1.0  0.87190  0.78370  0.67830  1.0000 -0.188237963
C   C82       1.0  0.12810  0.21630  0.17830  1.0000 -0.188237963
C   C83       1.0  0.71630  0.37190  0.92830  1.0000 -0.188237963
C   C84       1.0  0.28370  0.62810  0.42830  1.0000 -0.188237963
C   C85       1.0  0.62810  0.28370  0.57170  1.0000 -0.188237963
C   C86       1.0  0.37190  0.71630  0.07170  1.0000 -0.188237963
C   C87       1.0  0.78370  0.87190  0.32170  1.0000 -0.188237963
C   C88       1.0  0.21630  0.12810  0.82170  1.0000 -0.188237963
C   C89       1.0  0.99620  0.87470  0.68000  1.0000 0.1792897371
C   C90       1.0  0.00380  0.12530  0.18000  1.0000 0.1792897371
C   C91       1.0  0.62530  0.49620  0.93000  1.0000 0.1792897371
C   C92       1.0  0.37470  0.50380  0.43000  1.0000 0.1792897371
C   C93       1.0  0.50380  0.37470  0.57000  1.0000 0.1792897371
C   C94       1.0  0.49620  0.62530  0.07000  1.0000 0.1792897371
C   C95       1.0  0.87470  0.99620  0.32000  1.0000 0.1792897371
C   C96       1.0  0.12530  0.00380  0.82000  1.0000 0.1792897371
C   C97       1.0  0.09270  0.92590  0.61730  1.0000 0.1792897371
C   C98       1.0  0.90730  0.07410  0.11730  1.0000 0.1792897371
C   C99       1.0  0.57410  0.59270  0.86730  1.0000 0.1792897371
C   C100      1.0  0.42590  0.40730  0.36730  1.0000 0.1792897371
C   C101      1.0  0.40730  0.42590  0.63270  1.0000 0.1792897371
C   C102      1.0  0.59270  0.57410  0.13270  1.0000 0.1792897371
C   C103      1.0  0.92590  0.09270  0.38270  1.0000 0.1792897371
C   C104      1.0  0.07410  0.90730  0.88270  1.0000 0.1792897371
C   C105      1.0  0.16240  0.93450  0.57310  1.0000 0.0382372423
C   C106      1.0  0.83760  0.06550  0.07310  1.0000 0.0382372423
C   C107      1.0  0.56550  0.66240  0.82310  1.0000 0.0382372423
C   C108      1.0  0.43450  0.33760  0.32310  1.0000 0.0382372423
C   C109      1.0  0.33760  0.43450  0.67690  1.0000 0.0382372423
C   C110      1.0  0.66240  0.56550  0.17690  1.0000 0.0382372423
C   C111      1.0  0.93450  0.16240  0.42690  1.0000 0.0382372423
C   C112      1.0  0.06550  0.83760  0.92690  1.0000 0.0382372423
C   C113      1.0  0.16590  0.00650  0.53670  1.0000 -0.1505401895
C   C114      1.0  0.83410  0.99350  0.03670  1.0000 -0.1505401895
C   C115      1.0  0.49350  0.66590  0.78670  1.0000 -0.1505401895
C   C116      1.0  0.50650  0.33410  0.28670  1.0000 -0.1505401895
C   C117      1.0  0.33410  0.50650  0.71330  1.0000 -0.1505401895
C   C118      1.0  0.66590  0.49350  0.21330  1.0000 -0.1505401895
C   C119      1.0  0.00650  0.16590  0.46330  1.0000 -0.1505401895
C   C120      1.0  0.99350  0.83410  0.96330  1.0000 -0.1505401895
C   C121      1.0  0.23240  0.01830  0.49710  1.0000 -0.1037127466
C   C122      1.0  0.76760  0.98170  0.99710  1.0000 -0.1037127466
C   C123      1.0  0.48170  0.73240  0.74710  1.0000 -0.1037127466
C   C124      1.0  0.51830  0.26760  0.24710  1.0000 -0.1037127466
C   C125      1.0  0.26760  0.51830  0.75290  1.0000 -0.1037127466
C   C126      1.0  0.73240  0.48170  0.25290  1.0000 -0.1037127466
C   C127      1.0  0.01830  0.23240  0.50290  1.0000 -0.1037127466
C   C128      1.0  0.98170  0.76760  0.00290  1.0000 -0.1037127466
C   C129      1.0  0.29470  0.95880  0.49160  1.0000 -0.160205924
C   C130      1.0  0.70530  0.04120  0.99160  1.0000 -0.160205924
C   C131      1.0  0.54120  0.79470  0.74160  1.0000 -0.160205924
C   C132      1.0  0.45880  0.20530  0.24160  1.0000 -0.160205924
C   C133      1.0  0.20530  0.45880  0.75840  1.0000 -0.160205924
C   C134      1.0  0.79470  0.54120  0.25840  1.0000 -0.160205924
C   C135      1.0  0.95880  0.29470  0.50840  1.0000 -0.160205924
C   C136      1.0  0.04120  0.70530  0.00840  1.0000 -0.160205924
C   C137      1.0  0.29320  0.88660  0.52860  1.0000 0.069569968
C   C138      1.0  0.70680  0.11340  0.02860  1.0000 0.069569968
C   C139      1.0  0.61340  0.79320  0.77860  1.0000 0.069569968
C   C140      1.0  0.38660  0.20680  0.27860  1.0000 0.069569968
C   C141      1.0  0.20680  0.38660  0.72140  1.0000 0.069569968
C   C142      1.0  0.79320  0.61340  0.22140  1.0000 0.069569968
C   C143      1.0  0.88660  0.29320  0.47140  1.0000 0.069569968
C   C144      1.0  0.11340  0.70680  0.97140  1.0000 0.069569968
C   C145      1.0  0.22620  0.87510  0.56860  1.0000 -0.1980764163
C   C146      1.0  0.77380  0.12490  0.06860  1.0000 -0.1980764163
C   C147      1.0  0.62490  0.72620  0.81860  1.0000 -0.1980764163
C   C148      1.0  0.37510  0.27380  0.31860  1.0000 -0.1980764163
C   C149      1.0  0.27380  0.37510  0.68140  1.0000 -0.1980764163
C   C150      1.0  0.72620  0.62490  0.18140  1.0000 -0.1980764163
C   C151      1.0  0.87510  0.22620  0.43140  1.0000 -0.1980764163
C   C152      1.0  0.12490  0.77380  0.93140  1.0000 -0.1980764163
C   C153      1.0  0.35940  0.81950  0.52190  1.0000 0.1108330108
C   C154      1.0  0.64060  0.18050  0.02190  1.0000 0.1108330108
C   C155      1.0  0.68050  0.85940  0.77190  1.0000 0.1108330108
C   C156      1.0  0.31950  0.14060  0.27190  1.0000 0.1108330108
C   C157      1.0  0.14060  0.31950  0.72810  1.0000 0.1108330108
C   C158      1.0  0.85940  0.68050  0.22810  1.0000 0.1108330108
C   C159      1.0  0.81950  0.35940  0.47810  1.0000 0.1108330108
C   C160      1.0  0.18050  0.64060  0.97810  1.0000 0.1108330108
C   C161      1.0  0.40680  0.81160  0.46780  1.0000 -0.1980764163
C   C162      1.0  0.59320  0.18840  0.96780  1.0000 -0.1980764163
C   C163      1.0  0.68840  0.90680  0.71780  1.0000 -0.1980764163
C   C164      1.0  0.31160  0.09320  0.21780  1.0000 -0.1980764163
C   C165      1.0  0.09320  0.31160  0.78220  1.0000 -0.1980764163
C   C166      1.0  0.90680  0.68840  0.28220  1.0000 -0.1980764163
C   C167      1.0  0.81160  0.40680  0.53220  1.0000 -0.1980764163
C   C168      1.0  0.18840  0.59320  0.03220  1.0000 -0.1980764163
C   C169      1.0  0.46300  0.74500  0.46240  1.0000 0.069569968
C   C170      1.0  0.53700  0.25500  0.96240  1.0000 0.069569968
C   C171      1.0  0.75500  0.96300  0.71240  1.0000 0.069569968
C   C172      1.0  0.24500  0.03700  0.21240  1.0000 0.069569968
C   C173      1.0  0.03700  0.24500  0.78760  1.0000 0.069569968
C   C174      1.0  0.96300  0.75500  0.28760  1.0000 0.069569968
C   C175      1.0  0.74500  0.46300  0.53760  1.0000 0.069569968
C   C176      1.0  0.25500  0.53700  0.03760  1.0000 0.069569968
C   C177      1.0  0.43140  0.69770  0.55940  1.0000 0.069569968
C   C178      1.0  0.56860  0.30230  0.05940  1.0000 0.069569968
C   C179      1.0  0.80230  0.93140  0.80940  1.0000 0.069569968
C   C180      1.0  0.19770  0.06860  0.30940  1.0000 0.069569968
C   C181      1.0  0.06860  0.19770  0.69060  1.0000 0.069569968
C   C182      1.0  0.93140  0.80230  0.19060  1.0000 0.069569968
C   C183      1.0  0.69770  0.43140  0.44060  1.0000 0.069569968
C   C184      1.0  0.30230  0.56860  0.94060  1.0000 0.069569968
C   C185      1.0  0.37460  0.76270  0.56870  1.0000 -0.1980764163
C   C186      1.0  0.62540  0.23730  0.06870  1.0000 -0.1980764163
C   C187      1.0  0.73730  0.87460  0.81870  1.0000 -0.1980764163
C   C188      1.0  0.26270  0.12540  0.31870  1.0000 -0.1980764163
C   C189      1.0  0.12540  0.26270  0.68130  1.0000 -0.1980764163
C   C190      1.0  0.87460  0.73730  0.18130  1.0000 -0.1980764163
C   C191      1.0  0.76270  0.37460  0.43130  1.0000 -0.1980764163
C   C192      1.0  0.23730  0.62540  0.93130  1.0000 -0.1980764163
N   N1        1.0  0.61940  0.62670  0.58770  1.0000 -0.2360447624
N   N2        1.0  0.38060  0.37330  0.08770  1.0000 -0.2360447624
N   N3        1.0  0.87330  0.11940  0.83770  1.0000 -0.2360447624
N   N4        1.0  0.12670  0.88060  0.33770  1.0000 -0.2360447624
N   N5        1.0  0.88060  0.12670  0.66230  1.0000 -0.2360447624
N   N6        1.0  0.11940  0.87330  0.16230  1.0000 -0.2360447624
N   N7        1.0  0.62670  0.61940  0.41230  1.0000 -0.2360447624
N   N8        1.0  0.37330  0.38060  0.91230  1.0000 -0.2360447624
N   N9        1.0  0.99360  0.95650  0.68310  1.0000 -0.2280669508
N   N10       1.0  0.00640  0.04350  0.18310  1.0000 -0.2280669508
N   N11       1.0  0.54350  0.49360  0.93310  1.0000 -0.2280669508
N   N12       1.0  0.45650  0.50640  0.43310  1.0000 -0.2280669508
N   N13       1.0  0.50640  0.45650  0.56690  1.0000 -0.2280669508
N   N14       1.0  0.49360  0.54350  0.06690  1.0000 -0.2280669508
N   N15       1.0  0.95650  0.99360  0.31690  1.0000 -0.2280669508
N   N16       1.0  0.04350  0.00640  0.81690  1.0000 -0.2280669508
N   N17       1.0  0.05440  0.98950  0.64410  1.0000 -0.2752738238
N   N18       1.0  0.94560  0.01050  0.14410  1.0000 -0.2752738238
N   N19       1.0  0.51050  0.55440  0.89410  1.0000 -0.2752738238
N   N20       1.0  0.48950  0.44560  0.39410  1.0000 -0.2752738238
N   N21       1.0  0.44560  0.48950  0.60590  1.0000 -0.2752738238
N   N22       1.0  0.55440  0.51050  0.10590  1.0000 -0.2752738238
N   N23       1.0  0.98950  0.05440  0.35590  1.0000 -0.2752738238
N   N24       1.0  0.01050  0.94560  0.85590  1.0000 -0.2752738238
N   N25       1.0  0.05740  0.85280  0.63884  1.0000 0.0618387072
N   N26       1.0  0.94260  0.14720  0.13884  1.0000 0.0618387072
N   N27       1.0  0.64720  0.55740  0.88884  1.0000 0.0618387072
N   N28       1.0  0.35280  0.44260  0.38884  1.0000 0.0618387072
N   N29       1.0  0.44260  0.35280  0.61116  1.0000 0.0618387072
N   N30       1.0  0.55740  0.64720  0.11116  1.0000 0.0618387072
N   N31       1.0  0.85280  0.05740  0.36116  1.0000 0.0618387072
N   N32       1.0  0.14720  0.94260  0.86116  1.0000 0.0618387072
N   N33       1.0  0.07630  0.77040  0.61780  1.0000 -0.5004308612
N   N34       1.0  0.92370  0.22960  0.11780  1.0000 -0.5004308612
N   N35       1.0  0.72960  0.57630  0.86780  1.0000 -0.5004308612
N   N36       1.0  0.27040  0.42370  0.36780  1.0000 -0.5004308612
N   N37       1.0  0.42370  0.27040  0.63220  1.0000 -0.5004308612
N   N38       1.0  0.57630  0.72960  0.13220  1.0000 -0.5004308612
N   N39       1.0  0.77040  0.07630  0.38220  1.0000 -0.5004308612
N   N40       1.0  0.22960  0.92370  0.88220  1.0000 -0.5004308612
N   N41       1.0  0.47570  0.68770  0.50700  1.0000 -0.2360447624
N   N42       1.0  0.52430  0.31230  0.00700  1.0000 -0.2360447624
N   N43       1.0  0.81230  0.97570  0.75700  1.0000 -0.2360447624
N   N44       1.0  0.18770  0.02430  0.25700  1.0000 -0.2360447624
N   N45       1.0  0.02430  0.18770  0.74300  1.0000 -0.2360447624
N   N46       1.0  0.97570  0.81230  0.24300  1.0000 -0.2360447624
N   N47       1.0  0.68770  0.47570  0.49300  1.0000 -0.2360447624
N   N48       1.0  0.31230  0.52430  0.99300  1.0000 -0.2360447624
Cl  Cl1       1.0  0.61984  0.38016  0.75000  1.0000 0.9391929181
Cl  Cl2       1.0  0.38016  0.61984  0.25000  1.0000 0.9391929181
Cl  Cl3       1.0  0.88016  0.88016  0.50000  1.0000 0.9391929181
Cl  Cl4       1.0  0.11984  0.11984  0.00000  1.0000 0.9342968336
O   O1        1.0  0.68540  0.39040  0.71410  1.0000 -0.3536346384
O   O2        1.0  0.60960  0.31460  0.78590  1.0000 -0.3536346384
O   O3        1.0  0.56310  0.36700  0.71350  1.0000 -0.3030222112
O   O4        1.0  0.63300  0.43690  0.78650  1.0000 -0.3030222112
O   O5        1.0  0.31460  0.60960  0.21410  1.0000 -0.3536346384
O   O6        1.0  0.39040  0.68540  0.28590  1.0000 -0.3536346384
O   O7        1.0  0.43690  0.63300  0.21350  1.0000 -0.3030222112
O   O8        1.0  0.36700  0.56310  0.28650  1.0000 -0.3030222112
O   O9        1.0  0.89040  0.81460  0.46410  1.0000 -0.3536346384
O   O10       1.0  0.81460  0.89040  0.53590  1.0000 -0.3536346384
O   O11       1.0  0.86700  0.93690  0.46350  1.0000 -0.3030222112
O   O12       1.0  0.93690  0.86700  0.53650  1.0000 -0.3030222112
O   O13       1.0  0.10960  0.18540  0.96410  1.0000 -0.3536346384
O   O14       1.0  0.18540  0.10960  0.03590  1.0000 -0.3536346384
O   O15       1.0  0.13300  0.06310  0.96350  1.0000 -0.3030222112
O   O16       1.0  0.06310  0.13300  0.03650  1.0000 -0.3030222112
