# DDEC6 charges by PACMAN v1.1 (https://github.com/mtap-research/PACMAN-charge/)
data_2011[FeAg][nan]3[ION]1
_chemical_formula_sum              "Fe6 Ag10 H190 C262 S4 N36 O48"
_cell_length_a       27.6841
_cell_length_b       27.6841
_cell_length_c       17.4801
_cell_angle_alpha    90
_cell_angle_beta     90
_cell_angle_gamma    120

_symmetry_space_group_name_H-M    "P 1"
_symmetry_Int_Tables_number       1

loop_
  _symmetry_equiv_pos_as_xyz
  'x, y, z'

loop_
  _atom_site_type_symbol
  _atom_site_label
  _atom_site_symmetry_multiplicity
  _atom_site_fract_x
  _atom_site_fract_y
  _atom_site_fract_z
  _atom_site_occupancy
  _atom_site_charge
Fe  Fe1       1.0  0.65195  0.99987  0.23540  1.0000 0.9537224577
Fe  Fe2       1.0  0.00516  0.65239  0.24404  1.0000 0.9907534128
Fe  Fe3       1.0  0.35532  0.35119  0.25455  1.0000 0.9907534128
Fe  Fe4       1.0  0.35699  0.99986  0.75298  1.0000 0.9833245085
Fe  Fe5       1.0  0.00413  0.34902  0.75707  1.0000 0.9907534128
Fe  Fe6       1.0  0.65391  0.65115  0.75398  1.0000 0.9833245085
Ag  Ag1       1.0  0.67183  0.33474  0.21430  1.0000 0.3226626919
Ag  Ag2       1.0  0.33745  0.66685  0.26948  1.0000 0.290706794
Ag  Ag3       1.0  0.33668  0.66556  0.78479  1.0000 0.3440934823
Ag  Ag4       1.0  0.67189  0.33500  0.72243  1.0000 0.290706794
Ag  Ag5       1.0  0.72245  0.00143  0.73558  1.0000 0.3929629431
Ag  Ag6       1.0  0.00446  0.72199  0.74482  1.0000 0.3984616305
Ag  Ag7       1.0  0.28591  0.28054  0.75271  1.0000 0.3984616305
Ag  Ag8       1.0  0.28786  0.00238  0.25463  1.0000 0.368268305
Ag  Ag9       1.0  0.00356  0.27859  0.25635  1.0000 0.3929629431
Ag  Ag10      1.0  0.72347  0.72043  0.25424  1.0000 0.3984616305
H   H1        1.0  0.68299  0.11669  0.06106  1.0000 0.112119622
H   H2        1.0  0.57602  0.11832  0.24450  1.0000 0.1191775212
H   H3        1.0  0.58472  0.21153  0.26031  1.0000 0.099964019
H   H4        1.0  0.74202  0.28868  0.15119  1.0000 0.0812689376
H   H5        1.0  0.73712  0.19818  0.13486  1.0000 0.112119622
H   H6        1.0  0.76195  0.09028  0.00530  1.0000 0.1191775212
H   H7        1.0  0.78313  0.07635  0.87368  1.0000 0.0812689376
H   H8        1.0  0.61536  0.95062  0.83730  1.0000 0.0812689376
H   H9        1.0  0.59173  0.96018  0.97145  1.0000 0.1276088457
H   H10       1.0  0.87787  0.06840  0.22068  1.0000 0.112119622
H   H11       1.0  0.96560  0.15705  0.22876  1.0000 0.0812689376
H   H12       1.0  0.87996  0.24409  0.27674  1.0000 0.0812689376
H   H13       1.0  0.78959  0.15658  0.27328  1.0000 0.1276088457
H   H14       1.0  0.88955  0.56397  0.06892  1.0000 0.1191775212
H   H15       1.0  0.84565  0.51700  0.31068  1.0000 0.1276088457
H   H16       1.0  0.75238  0.43235  0.32153  1.0000 0.0812689376
H   H17       1.0  0.76363  0.38547  0.09506  1.0000 0.099964019
H   H18       1.0  0.85673  0.46814  0.07972  1.0000 0.112119622
H   H19       1.0  0.91603  0.67275  0.01501  1.0000 0.1191775212
H   H20       1.0  0.93022  0.70859  0.88345  1.0000 0.0812689376
H   H21       1.0  0.05392  0.66401  0.84530  1.0000 0.0700506782
H   H22       1.0  0.04414  0.63012  0.97899  1.0000 0.1276088457
H   H23       1.0  0.92851  0.79439  0.32101  1.0000 0.1191775212
H   H24       1.0  0.83844  0.79169  0.32122  1.0000 0.0890203766
H   H25       1.0  0.76460  0.64448  0.18848  1.0000 0.0812689376
H   H26       1.0  0.85364  0.64467  0.18264  1.0000 0.1191775212
H   H27       1.0  0.44250  0.32506  0.07569  1.0000 0.1191775212
H   H28       1.0  0.55129  0.42930  0.25866  1.0000 0.112119622
H   H29       1.0  0.63660  0.42123  0.26764  1.0000 0.0700506782
H   H30       1.0  0.55324  0.26250  0.16312  1.0000 0.0700506782
H   H31       1.0  0.46752  0.26764  0.15012  1.0000 0.099964019
H   H32       1.0  0.26882  0.28318  0.04660  1.0000 0.1191775212
H   H33       1.0  0.23605  0.26009  0.91316  1.0000 0.0812689376
H   H34       1.0  0.40165  0.34903  0.83084  1.0000 0.0812689376
H   H35       1.0  0.43810  0.37281  0.96290  1.0000 0.1191775212
H   H36       1.0  0.20750  0.13007  0.30683  1.0000 0.1191775212
H   H37       1.0  0.21019  0.04273  0.30690  1.0000 0.0812689376
H   H38       1.0  0.36642  0.12094  0.19499  1.0000 0.0890203766
H   H39       1.0  0.36656  0.21005  0.19013  1.0000 0.1276088457
H   H40       1.0  0.11888  0.67147  0.41897  1.0000 0.112119622
H   H41       1.0  0.12239  0.57490  0.22594  1.0000 0.1276088457
H   H42       1.0  0.21563  0.58296  0.21308  1.0000 0.0890203766
H   H43       1.0  0.29088  0.73611  0.33271  1.0000 0.0890203766
H   H44       1.0  0.20083  0.73141  0.34798  1.0000 0.099964019
H   H45       1.0  0.11887  0.72545  0.50992  1.0000 0.112119622
H   H46       1.0  0.10330  0.74375  0.64128  1.0000 0.0812689376
H   H47       1.0  0.92856  0.64813  0.61122  1.0000 0.0812689376
H   H48       1.0  0.94041  0.62526  0.47934  1.0000 0.1276088457
H   H49       1.0  0.07862  0.87813  0.20928  1.0000 0.1191775212
H   H50       1.0  0.16877  0.96469  0.21231  1.0000 0.0812689376
H   H51       1.0  0.24939  0.87851  0.29000  1.0000 0.0700506782
H   H52       1.0  0.16057  0.79020  0.29306  1.0000 0.1191775212
H   H53       1.0  0.55538  0.88796  0.41120  1.0000 0.1191775212
H   H54       1.0  0.52263  0.83691  0.17444  1.0000 0.1276088457
H   H55       1.0  0.43949  0.74235  0.16575  1.0000 0.0890203766
H   H56       1.0  0.38041  0.76461  0.37814  1.0000 0.099964019
H   H57       1.0  0.46058  0.85941  0.39016  1.0000 0.1191775212
H   H58       1.0  0.60695  0.88739  0.50394  1.0000 0.1191775212
H   H59       1.0  0.64122  0.90321  0.63502  1.0000 0.0812689376
H   H60       1.0  0.72710  0.07779  0.60110  1.0000 0.0812689376
H   H61       1.0  0.69176  0.06590  0.46940  1.0000 0.1276088457
H   H62       1.0  0.80315  0.92846  0.20656  1.0000 0.112119622
H   H63       1.0  0.80208  0.83914  0.20924  1.0000 0.0812689376
H   H64       1.0  0.63799  0.75616  0.29723  1.0000 0.0812689376
H   H65       1.0  0.63548  0.84415  0.29806  1.0000 0.1276088457
H   H66       1.0  0.34550  0.45103  0.43089  1.0000 0.112119622
H   H67       1.0  0.42627  0.54156  0.22024  1.0000 0.1191775212
H   H68       1.0  0.41605  0.62516  0.20328  1.0000 0.0812689376
H   H69       1.0  0.27853  0.55871  0.35432  1.0000 0.099964019
H   H70       1.0  0.28491  0.47434  0.37331  1.0000 0.112119622
H   H71       1.0  0.29790  0.40466  0.52752  1.0000 0.112119622
H   H72       1.0  0.27816  0.36896  0.65735  1.0000 0.0812689376
H   H73       1.0  0.35182  0.26953  0.61672  1.0000 0.0890203766
H   H74       1.0  0.37674  0.30593  0.48508  1.0000 0.1478023336
H   H75       1.0  0.14142  0.21679  0.17078  1.0000 0.1191775212
H   H76       1.0  0.05301  0.21755  0.17298  1.0000 0.0890203766
H   H77       1.0  0.11727  0.34771  0.33603  1.0000 0.0812689376
H   H78       1.0  0.20754  0.34991  0.33752  1.0000 0.1276088457
H   H79       1.0  0.32762  0.88411  0.92889  1.0000 0.1276088457
H   H80       1.0  0.43648  0.88210  0.75404  1.0000 0.1191775212
H   H81       1.0  0.42708  0.78826  0.74205  1.0000 0.0890203766
H   H82       1.0  0.26368  0.71230  0.83226  1.0000 0.0890203766
H   H83       1.0  0.26999  0.80353  0.84741  1.0000 0.112119622
H   H84       1.0  0.35888  0.92035  0.04534  1.0000 0.1191775212
H   H85       1.0  0.33479  0.93449  0.17606  1.0000 0.0812689376
H   H86       1.0  0.28750  0.04853  0.09534  1.0000 0.0812689376
H   H87       1.0  0.30987  0.03681  0.96306  1.0000 0.1276088457
H   H88       1.0  0.14114  0.92698  0.68187  1.0000 0.1191775212
H   H89       1.0  0.05249  0.83781  0.67889  1.0000 0.0812689376
H   H90       1.0  0.11920  0.76258  0.82216  1.0000 0.0812689376
H   H91       1.0  0.20961  0.85014  0.82778  1.0000 0.1276088457
H   H92       1.0  0.11545  0.44680  0.93294  1.0000 0.112119622
H   H93       1.0  0.16497  0.48013  0.69368  1.0000 0.1276088457
H   H94       1.0  0.25896  0.56333  0.68270  1.0000 0.099964019
H   H95       1.0  0.24094  0.62203  0.89796  1.0000 0.112119622
H   H96       1.0  0.14663  0.54104  0.91286  1.0000 0.112119622
H   H97       1.0  0.11625  0.39811  0.02764  1.0000 0.112119622
H   H98       1.0  0.10062  0.36344  0.15806  1.0000 0.0812689376
H   H99       1.0  0.92662  0.26928  0.12121  1.0000 0.0812689376
H   H100      1.0  0.93800  0.30503  0.98925  1.0000 0.1276088457
H   H101      1.0  0.08881  0.22176  0.65687  1.0000 0.112119622
H   H102      1.0  0.17832  0.22330  0.66083  1.0000 0.0890203766
H   H103      1.0  0.23761  0.34472  0.83605  1.0000 0.0812689376
H   H104      1.0  0.14894  0.34541  0.83688  1.0000 0.1276088457
H   H105      1.0  0.56379  0.67363  0.93150  1.0000 0.112119622
H   H106      1.0  0.51689  0.67029  0.68801  1.0000 0.1276088457
H   H107      1.0  0.43263  0.67932  0.67654  1.0000 0.099964019
H   H108      1.0  0.38682  0.62494  0.90457  1.0000 0.099964019
H   H109      1.0  0.46903  0.61385  0.92063  1.0000 0.112119622
H   H110      1.0  0.56908  0.63430  0.04646  1.0000 0.112119622
H   H111      1.0  0.60659  0.65913  0.17770  1.0000 0.0812689376
H   H112      1.0  0.77169  0.73126  0.09472  1.0000 0.0812689376
H   H113      1.0  0.73797  0.70796  0.96197  1.0000 0.1276088457
H   H114      1.0  0.78170  0.86172  0.65058  1.0000 0.112119622
H   H115      1.0  0.78078  0.95015  0.65111  1.0000 0.0890203766
H   H116      1.0  0.65925  0.89103  0.82620  1.0000 0.0812689376
H   H117      1.0  0.65804  0.80153  0.83057  1.0000 0.1276088457
H   H118      1.0  0.89191  0.32787  0.57822  1.0000 0.112119622
H   H119      1.0  0.84419  0.32421  0.81925  1.0000 0.1276088457
H   H120      1.0  0.75103  0.31577  0.82925  1.0000 0.099964019
H   H121      1.0  0.76619  0.38070  0.60619  1.0000 0.0812689376
H   H122      1.0  0.85940  0.39099  0.59169  1.0000 0.112119622
H   H123      1.0  0.02435  0.28461  0.54998  1.0000 0.1191775212
H   H124      1.0  0.03434  0.26086  0.41714  1.0000 0.0812689376
H   H125      1.0  0.95378  0.34546  0.33278  1.0000 0.0812689376
H   H126      1.0  0.94122  0.37037  0.46415  1.0000 0.112119622
H   H127      1.0  0.93428  0.12103  0.74927  1.0000 0.1191775212
H   H128      1.0  0.84411  0.03505  0.74355  1.0000 0.0812689376
H   H129      1.0  0.75958  0.12578  0.71995  1.0000 0.0812689376
H   H130      1.0  0.84812  0.21443  0.71996  1.0000 0.1276088457
H   H131      1.0  0.45178  0.11470  0.57934  1.0000 0.1276088457
H   H132      1.0  0.48532  0.16509  0.81500  1.0000 0.1276088457
H   H133      1.0  0.56820  0.25955  0.82363  1.0000 0.099964019
H   H134      1.0  0.63097  0.23557  0.61547  1.0000 0.0812689376
H   H135      1.0  0.54940  0.14093  0.60255  1.0000 0.112119622
H   H136      1.0  0.37019  0.10724  0.50981  1.0000 0.1276088457
H   H137      1.0  0.33451  0.09447  0.37912  1.0000 0.0890203766
H   H138      1.0  0.32172  0.93576  0.36604  1.0000 0.0700506782
H   H139      1.0  0.35520  0.94478  0.49921  1.0000 0.1276088457
H   H140      1.0  0.20548  0.07237  0.70288  1.0000 0.112119622
H   H141      1.0  0.20650  0.16120  0.70770  1.0000 0.0812689376
H   H142      1.0  0.37184  0.24430  0.79126  1.0000 0.0812689376
H   H143      1.0  0.37397  0.15643  0.79189  1.0000 0.1276088457
H   H144      1.0  0.67587  0.56035  0.57651  1.0000 0.112119622
H   H145      1.0  0.67815  0.51625  0.81854  1.0000 0.1276088457
H   H146      1.0  0.68794  0.43234  0.82940  1.0000 0.112119622
H   H147      1.0  0.62651  0.38292  0.60478  1.0000 0.0812689376
H   H148      1.0  0.61470  0.46484  0.58949  1.0000 0.112119622
H   H149      1.0  0.63820  0.56560  0.46141  1.0000 0.112119622
H   H150      1.0  0.66359  0.60333  0.33044  1.0000 0.0812689376
H   H151      1.0  0.72973  0.76794  0.41288  1.0000 0.0812689376
H   H152      1.0  0.70641  0.73407  0.54557  1.0000 0.1191775212
H   H153      1.0  0.88129  0.81036  0.75286  1.0000 0.112119622
H   H154      1.0  0.96791  0.80779  0.75259  1.0000 0.0812689376
H   H155      1.0  0.88033  0.63261  0.72772  1.0000 0.0812689376
H   H156      1.0  0.79091  0.63091  0.72209  1.0000 0.1276088457
H   H157      1.0  0.80365  0.99888  0.27549  1.0000 0.112119622
H   H158      1.0  0.00480  0.80694  0.26011  1.0000 0.1191775212
H   H159      1.0  0.20031  0.19684  0.24104  1.0000 0.112119622
H   H160      1.0  0.20265  0.00083  0.76357  1.0000 0.112119622
H   H161      1.0  0.00737  0.19850  0.71798  1.0000 0.112119622
H   H162      1.0  0.80488  0.80531  0.71676  1.0000 0.112119622
H   H163      1.0  0.43830  0.12640  0.30639  1.0000 0.099964019
H   H164      1.0  0.56562  0.20974  0.47703  1.0000 0.112119622
H   H165      1.0  0.45603  0.04780  0.30643  1.0000 0.099964019
H   H166      1.0  0.58502  0.13209  0.47545  1.0000 0.099964019
H   H167      1.0  0.56493  0.04200  0.43284  1.0000 0.1191775212
H   H168      1.0  0.54660  0.03190  0.33309  1.0000 0.1368384243
H   H169      1.0  0.49335  0.99672  0.40516  1.0000 0.1191775212
H   H170      1.0  0.29890  0.76475  0.17409  1.0000 0.112119622
H   H171      1.0  0.43654  0.84476  0.01716  1.0000 0.112119622
H   H172      1.0  0.34075  0.84829  0.25651  1.0000 0.0890203766
H   H173      1.0  0.48008  0.92962  0.09612  1.0000 0.112119622
H   H174      1.0  0.44485  0.98375  0.19733  1.0000 0.1191775212
H   H175      1.0  0.48441  0.95785  0.24721  1.0000 0.1368384243
H   H176      1.0  0.41716  0.94255  0.28293  1.0000 0.112119622
H   H177      1.0  0.35470  0.57286  0.57312  1.0000 0.112119622
H   H178      1.0  0.44750  0.70035  0.40589  1.0000 0.112119622
H   H179      1.0  0.40501  0.52412  0.53632  1.0000 0.099964019
H   H180      1.0  0.49811  0.65180  0.36870  1.0000 0.099964019
H   H181      1.0  0.48008  0.54504  0.36535  1.0000 0.1191775212
H   H182      1.0  0.47257  0.51653  0.46009  1.0000 0.1191775212
H   H183      1.0  0.53197  0.58360  0.43773  1.0000 0.112119622
H   H184      1.0  0.65332  0.23139  0.98969  1.0000 0.112119622
H   H185      1.0  0.50049  0.23483  0.01611  1.0000 0.112119622
H   H186      1.0  0.60437  0.13192  0.02502  1.0000 0.099964019
H   H187      1.0  0.45164  0.13582  0.05340  1.0000 0.099964019
H   H188      1.0  0.51745  0.06164  0.11617  1.0000 0.1191775212
H   H189      1.0  0.49694  0.04078  0.01806  1.0000 0.1191775212
H   H190      1.0  0.45164  0.05128  0.08151  1.0000 0.112119622
C   C1        1.0  0.65172  0.09463  0.17511  1.0000 0.3508214394
C   C2        1.0  0.66905  0.08432  0.10420  1.0000 -0.4313867285
C   C3        1.0  0.66319  0.03338  0.08035  1.0000 0.3508214394
C   C4        1.0  0.77061  0.05130  0.24567  1.0000 0.3585013601
C   C5        1.0  0.65551  0.15014  0.18757  1.0000 0.0522991154
C   C6        1.0  0.61309  0.15512  0.22446  1.0000 -0.1433909699
C   C7        1.0  0.61793  0.20806  0.23308  1.0000 0.0890203766
C   C8        1.0  0.70585  0.25123  0.17181  1.0000 0.0812689376
C   C9        1.0  0.70263  0.19947  0.16201  1.0000 -0.1694412586
C   C10       1.0  0.67501  0.02644  0.99903  1.0000 0.059571727
C   C11       1.0  0.72891  0.05951  0.96953  1.0000 -0.1580432661
C   C12       1.0  0.74086  0.05178  0.89413  1.0000 0.0700506782
C   C13       1.0  0.64723  0.98119  0.87447  1.0000 0.0522991154
C   C14       1.0  0.63383  0.98657  0.95068  1.0000 -0.1580432661
C   C15       1.0  0.82567  0.10429  0.24840  1.0000 0.0522991154
C   C16       1.0  0.87648  0.10567  0.23501  1.0000 -0.1694412586
C   C17       1.0  0.92675  0.15638  0.23840  1.0000 0.0522991154
C   C18       1.0  0.87877  0.20510  0.26542  1.0000 0.059571727
C   C19       1.0  0.82751  0.15525  0.26313  1.0000 -0.1508750463
C   C20       1.0  0.50039  0.17316  0.39228  1.0000 -0.1265294521
C   C21       1.0  0.47013  0.12764  0.34362  1.0000 -0.1006855204
C   C22       1.0  0.54183  0.17451  0.43955  1.0000 -0.1006855204
C   C23       1.0  0.48029  0.08300  0.34363  1.0000 -0.1580432661
C   C24       1.0  0.55259  0.13025  0.43884  1.0000 -0.1580432661
C   C25       1.0  0.52149  0.08392  0.39140  1.0000 0.1701942676
C   C26       1.0  0.53228  0.03592  0.39076  1.0000 -0.4100656404
C   C27       1.0  0.91244  0.55489  0.18272  1.0000 0.368268305
C   C28       1.0  0.92203  0.58254  0.11187  1.0000 -0.439103575
C   C29       1.0  0.97204  0.62915  0.08869  1.0000 0.3508214394
C   C30       1.0  0.95296  0.71926  0.24806  1.0000 0.3585013601
C   C31       1.0  0.85911  0.50037  0.19382  1.0000 0.059571727
C   C32       1.0  0.82908  0.48841  0.26285  1.0000 -0.1694412586
C   C33       1.0  0.77585  0.44047  0.26897  1.0000 0.0700506782
C   C34       1.0  0.78204  0.41433  0.14221  1.0000 0.0812689376
C   C35       1.0  0.83506  0.46165  0.13361  1.0000 -0.1694412586
C   C36       1.0  0.97884  0.64832  0.00758  1.0000 0.059571727
C   C37       1.0  0.94642  0.67013  0.97883  1.0000 -0.1694412586
C   C38       1.0  0.95434  0.69028  0.90358  1.0000 0.0700506782
C   C39       1.0  0.02385  0.66587  0.88285  1.0000 0.0522991154
C   C40       1.0  0.01825  0.64657  0.95876  1.0000 -0.1580432661
C   C41       1.0  0.89952  0.72050  0.24962  1.0000 0.0522991154
C   C42       1.0  0.89400  0.76162  0.28969  1.0000 -0.1694412586
C   C43       1.0  0.84250  0.75976  0.29111  1.0000 0.059571727
C   C44       1.0  0.80101  0.67717  0.21693  1.0000 0.0700506782
C   C45       1.0  0.85174  0.67758  0.21361  1.0000 -0.1580432661
C   C46       1.0  0.45073  0.35368  0.19075  1.0000 0.368268305
C   C47       1.0  0.42342  0.33774  0.11949  1.0000 -0.4313867285
C   C48       1.0  0.37636  0.34091  0.09765  1.0000 0.3585013601
C   C49       1.0  0.28831  0.23229  0.24829  1.0000 0.3585013601
C   C50       1.0  0.50245  0.34971  0.20188  1.0000 0.059571727
C   C51       1.0  0.55060  0.39224  0.23735  1.0000 -0.1433909699
C   C52       1.0  0.59905  0.38765  0.24258  1.0000 0.0890203766
C   C53       1.0  0.55251  0.29895  0.18361  1.0000 0.099964019
C   C54       1.0  0.50389  0.30224  0.17604  1.0000 -0.1433909699
C   C55       1.0  0.35637  0.32973  0.01628  1.0000 0.059571727
C   C56       1.0  0.29897  0.29859  0.00044  1.0000 -0.1580432661
C   C57       1.0  0.28023  0.28539  0.92456  1.0000 0.059571727
C   C58       1.0  0.37290  0.33490  0.87855  1.0000 0.059571727
C   C59       1.0  0.39352  0.34815  0.95379  1.0000 -0.1694412586
C   C60       1.0  0.28634  0.17745  0.24652  1.0000 0.0522991154
C   C61       1.0  0.24219  0.12927  0.27967  1.0000 -0.1580432661
C   C62       1.0  0.24378  0.07956  0.28049  1.0000 0.0522991154
C   C63       1.0  0.33151  0.12345  0.21820  1.0000 0.0700506782
C   C64       1.0  0.33145  0.17393  0.21567  1.0000 -0.1222325048
C   C65       1.0  0.09808  0.64809  0.30326  1.0000 0.368268305
C   C66       1.0  0.08761  0.66285  0.37590  1.0000 -0.439103575
C   C67       1.0  0.03829  0.66088  0.40011  1.0000 0.3585013601
C   C68       1.0  0.05742  0.77152  0.25216  1.0000 0.368268305
C   C69       1.0  0.15341  0.65178  0.28995  1.0000 0.059571727
C   C70       1.0  0.15880  0.61075  0.24963  1.0000 -0.1580432661
C   C71       1.0  0.21174  0.61530  0.24229  1.0000 0.0890203766
C   C72       1.0  0.25395  0.70080  0.30965  1.0000 0.0890203766
C   C73       1.0  0.20235  0.69777  0.31857  1.0000 -0.1694412586
C   C74       1.0  0.03074  0.67194  0.48263  1.0000 0.059571727
C   C75       1.0  0.07642  0.70586  0.53056  1.0000 -0.1694412586
C   C76       1.0  0.06769  0.71722  0.60600  1.0000 0.0700506782
C   C77       1.0  0.97017  0.66388  0.58931  1.0000 0.059571727
C   C78       1.0  0.97703  0.65104  0.51362  1.0000 -0.1580432661
C   C79       1.0  0.11097  0.82629  0.25379  1.0000 0.059571727
C   C80       1.0  0.11461  0.87664  0.23005  1.0000 -0.1694412586
C   C81       1.0  0.16620  0.92619  0.23075  1.0000 0.0522991154
C   C82       1.0  0.21149  0.87816  0.27448  1.0000 0.059571727
C   C83       1.0  0.16074  0.82780  0.27553  1.0000 -0.1508750463
C   C84       1.0  0.55276  0.90934  0.29578  1.0000 0.3508214394
C   C85       1.0  0.57789  0.91941  0.36837  1.0000 -0.4313867285
C   C86       1.0  0.62628  0.96791  0.39201  1.0000 0.3508214394
C   C87       1.0  0.71759  0.94711  0.25100  1.0000 0.3585013601
C   C88       1.0  0.49890  0.85605  0.28350  1.0000 0.0522991154
C   C89       1.0  0.49139  0.82248  0.21915  1.0000 -0.1433909699
C   C90       1.0  0.44448  0.76857  0.21443  1.0000 0.0812689376
C   C91       1.0  0.41125  0.78101  0.33319  1.0000 0.0700506782
C   C92       1.0  0.45714  0.83493  0.34001  1.0000 -0.1508750463
C   C93       1.0  0.64489  0.97560  0.47455  1.0000 0.0522991154
C   C94       1.0  0.63131  0.92997  0.52356  1.0000 -0.1694412586
C   C95       1.0  0.65161  0.93878  0.59887  1.0000 0.0700506782
C   C96       1.0  0.69956  0.03625  0.58003  1.0000 0.059571727
C   C97       1.0  0.67957  0.02933  0.50447  1.0000 -0.1508750463
C   C98       1.0  0.71972  0.89428  0.25408  1.0000 0.0522991154
C   C99       1.0  0.76666  0.89185  0.22848  1.0000 -0.1694412586
C   C100      1.0  0.76599  0.84100  0.22891  1.0000 0.0522991154
C   C101      1.0  0.67392  0.79440  0.27795  1.0000 0.059571727
C   C102      1.0  0.67276  0.84442  0.27851  1.0000 -0.1508750463
C   C103      1.0  0.36530  0.79945  0.09106  1.0000 -0.1087524438
C   C104      1.0  0.33821  0.80064  0.15800  1.0000 -0.1006855204
C   C105      1.0  0.41599  0.84598  0.06918  1.0000 -0.1087524438
C   C106      1.0  0.36180  0.84779  0.20456  1.0000 -0.1694412586
C   C107      1.0  0.44085  0.89426  0.11410  1.0000 -0.1580432661
C   C108      1.0  0.41543  0.89672  0.18201  1.0000 0.1701942676
C   C109      1.0  0.44194  0.94819  0.23034  1.0000 -0.420720981
C   C110      1.0  0.36194  0.44989  0.31340  1.0000 0.3508214394
C   C111      1.0  0.35076  0.42655  0.38726  1.0000 -0.439103575
C   C112      1.0  0.35141  0.37842  0.41110  1.0000 0.3585013601
C   C113      1.0  0.23638  0.28442  0.25493  1.0000 0.3585013601
C   C114      1.0  0.35744  0.50124  0.29995  1.0000 0.059571727
C   C115      1.0  0.39341  0.54418  0.25013  1.0000 -0.1580432661
C   C116      1.0  0.38761  0.59169  0.24041  1.0000 0.0812689376
C   C117      1.0  0.31077  0.55462  0.32516  1.0000 0.0890203766
C   C118      1.0  0.31510  0.50690  0.33651  1.0000 -0.1694412586
C   C119      1.0  0.34107  0.35995  0.49387  1.0000 0.059571727
C   C120      1.0  0.31285  0.37703  0.54491  1.0000 -0.1770397286
C   C121      1.0  0.30049  0.35593  0.61966  1.0000 0.0700506782
C   C122      1.0  0.34168  0.30040  0.59686  1.0000 0.0700506782
C   C123      1.0  0.35562  0.32110  0.52166  1.0000 -0.1508750463
C   C124      1.0  0.18149  0.28224  0.25598  1.0000 0.059571727
C   C125      1.0  0.13708  0.24509  0.20910  1.0000 -0.1694412586
C   C126      1.0  0.08680  0.24560  0.20989  1.0000 0.0522991154
C   C127      1.0  0.12295  0.31882  0.30079  1.0000 0.059571727
C   C128      1.0  0.17411  0.31999  0.30142  1.0000 -0.1580432661
C   C129      1.0  0.35858  0.90640  0.81547  1.0000 0.3585013601
C   C130      1.0  0.34185  0.91701  0.88667  1.0000 -0.439103575
C   C131      1.0  0.34624  0.96765  0.90982  1.0000 0.3585013601
C   C132      1.0  0.23795  0.94858  0.75629  1.0000 0.3585013601
C   C133      1.0  0.35437  0.85080  0.80324  1.0000 0.0522991154
C   C134      1.0  0.39810  0.84544  0.77135  1.0000 -0.1580432661
C   C135      1.0  0.39276  0.79218  0.76443  1.0000 0.0890203766
C   C136      1.0  0.30141  0.74962  0.81526  1.0000 0.099964019
C   C137      1.0  0.30530  0.80170  0.82418  1.0000 -0.1508750463
C   C138      1.0  0.33582  0.97697  0.99178  1.0000 0.059571727
C   C139      1.0  0.34312  0.94864  0.05396  1.0000 -0.1580432661
C   C140      1.0  0.33022  0.95710  0.12891  1.0000 0.0700506782
C   C141      1.0  0.30398  0.02115  0.08404  1.0000 0.059571727
C   C142      1.0  0.31660  0.01421  0.00847  1.0000 -0.1508750463
C   C143      1.0  0.18259  0.89634  0.75660  1.0000 0.059571727
C   C144      1.0  0.13729  0.89202  0.71458  1.0000 -0.1694412586
C   C145      1.0  0.08690  0.84130  0.71245  1.0000 0.0522991154
C   C146      1.0  0.12426  0.79897  0.79230  1.0000 0.0700506782
C   C147      1.0  0.17562  0.84876  0.79531  1.0000 -0.1508750463
C   C148      1.0  0.09458  0.44885  0.81728  1.0000 0.368268305
C   C149      1.0  0.08422  0.42395  0.89011  1.0000 -0.439103575
C   C150      1.0  0.03582  0.37521  0.91366  1.0000 0.3585013601
C   C151      1.0  0.05730  0.28372  0.74801  1.0000 0.3508214394
C   C152      1.0  0.14777  0.50308  0.80462  1.0000 0.0522991154
C   C153      1.0  0.18005  0.51123  0.73862  1.0000 -0.1580432661
C   C154      1.0  0.23372  0.55837  0.73248  1.0000 0.0812689376
C   C155      1.0  0.22367  0.59110  0.85302  1.0000 0.0700506782
C   C156      1.0  0.17002  0.54474  0.86144  1.0000 -0.1694412586
C   C157      1.0  0.02808  0.35624  0.99615  1.0000 0.059571727
C   C158      1.0  0.07368  0.37186  0.04610  1.0000 -0.1770397286
C   C159      1.0  0.06506  0.35128  0.12113  1.0000 0.0700506782
C   C160      1.0  0.96785  0.29873  0.10044  1.0000 0.059571727
C   C161      1.0  0.97453  0.31901  0.02502  1.0000 -0.1580432661
C   C162      1.0  0.11047  0.28224  0.74857  1.0000 0.059571727
C   C163      1.0  0.11992  0.24814  0.69830  1.0000 -0.1770397286
C   C164      1.0  0.17102  0.24919  0.69997  1.0000 0.059571727
C   C165      1.0  0.20439  0.31746  0.79777  1.0000 0.059571727
C   C166      1.0  0.15400  0.31781  0.79795  1.0000 -0.1580432661
C   C167      1.0  0.55560  0.64360  0.81710  1.0000 0.368268305
C   C168      1.0  0.58266  0.66015  0.88858  1.0000 -0.439103575
C   C169      1.0  0.63047  0.65835  0.91076  1.0000 0.3585013601
C   C170      1.0  0.71928  0.76974  0.74381  1.0000 0.3508214394
C   C171      1.0  0.50099  0.64224  0.80590  1.0000 0.0522991154
C   C172      1.0  0.48866  0.65918  0.73613  1.0000 -0.1580432661
C   C173      1.0  0.44088  0.66464  0.72958  1.0000 0.0812689376
C   C174      1.0  0.41537  0.63438  0.85726  1.0000 0.0812689376
C   C175      1.0  0.46251  0.62844  0.86627  1.0000 -0.1694412586
C   C176      1.0  0.65050  0.66959  0.99230  1.0000 0.059571727
C   C177      1.0  0.61378  0.65571  0.05498  1.0000 -0.1770397286
C   C178      1.0  0.63494  0.66936  0.12995  1.0000 0.059571727
C   C179      1.0  0.72731  0.70945  0.08360  1.0000 0.0700506782
C   C180      1.0  0.70798  0.69616  0.00804  1.0000 -0.1580432661
C   C181      1.0  0.72090  0.82446  0.74229  1.0000 0.0522991154
C   C182      1.0  0.75527  0.86720  0.69108  1.0000 -0.1694412586
C   C183      1.0  0.75444  0.91736  0.69059  1.0000 0.0522991154
C   C184      1.0  0.68619  0.88431  0.78843  1.0000 0.0700506782
C   C185      1.0  0.68560  0.83346  0.79074  1.0000 -0.1580432661
C   C186      1.0  0.39793  0.64008  0.49232  1.0000 -0.1222325048
C   C187      1.0  0.38597  0.59019  0.52854  1.0000 -0.1087524438
C   C188      1.0  0.43825  0.66196  0.43447  1.0000 -0.1006855204
C   C189      1.0  0.41459  0.56255  0.50755  1.0000 -0.1508750463
C   C190      1.0  0.46694  0.63440  0.41343  1.0000 -0.1508750463
C   C191      1.0  0.45539  0.58458  0.44993  1.0000 0.1701942676
C   C192      1.0  0.48672  0.55562  0.42713  1.0000 -0.4042764797
C   C193      1.0  0.91299  0.35626  0.69336  1.0000 0.368268305
C   C194      1.0  0.92382  0.34032  0.62169  1.0000 -0.439103575
C   C195      1.0  0.97303  0.34114  0.60003  1.0000 0.3585013601
C   C196      1.0  0.95313  0.23095  0.73972  1.0000 0.3585013601
C   C197      1.0  0.85975  0.35773  0.70413  1.0000 0.0522991154
C   C198      1.0  0.82859  0.33787  0.77206  1.0000 -0.1694412586
C   C199      1.0  0.77543  0.33277  0.77774  1.0000 0.0812689376
C   C200      1.0  0.78384  0.36890  0.65286  1.0000 0.0700506782
C   C201      1.0  0.83687  0.37444  0.64470  1.0000 -0.1770397286
C   C202      1.0  0.98148  0.32922  0.51875  1.0000 0.059571727
C   C203      1.0  0.00875  0.29894  0.50354  1.0000 -0.1580432661
C   C204      1.0  0.01447  0.28533  0.42797  1.0000 0.059571727
C   C205      1.0  0.96912  0.33240  0.38082  1.0000 0.0522991154
C   C206      1.0  0.96178  0.34625  0.45577  1.0000 -0.1694412586
C   C207      1.0  0.89984  0.17616  0.73327  1.0000 0.0522991154
C   C208      1.0  0.89746  0.12424  0.73974  1.0000 -0.1694412586
C   C209      1.0  0.84589  0.07477  0.73712  1.0000 0.0522991154
C   C210      1.0  0.79844  0.12550  0.72369  1.0000 0.0522991154
C   C211      1.0  0.84903  0.17588  0.72461  1.0000 -0.1508750463
C   C212      1.0  0.45622  0.09188  0.69455  1.0000 0.3585013601
C   C213      1.0  0.43083  0.08241  0.62210  1.0000 -0.420720981
C   C214      1.0  0.38378  0.03306  0.59768  1.0000 0.3585013601
C   C215      1.0  0.29063  0.05276  0.75027  1.0000 0.3585013601
C   C216      1.0  0.51015  0.14515  0.70742  1.0000 0.0522991154
C   C217      1.0  0.51720  0.17903  0.77121  1.0000 -0.1508750463
C   C218      1.0  0.56425  0.23289  0.77611  1.0000 0.0890203766
C   C219      1.0  0.59916  0.21958  0.65938  1.0000 0.0700506782
C   C220      1.0  0.55269  0.16584  0.65200  1.0000 -0.1580432661
C   C221      1.0  0.36577  0.02698  0.51569  1.0000 0.059571727
C   C222      1.0  0.36019  0.06923  0.47953  1.0000 -0.1433909699
C   C223      1.0  0.33945  0.06175  0.40465  1.0000 0.0812689376
C   C224      1.0  0.33197  0.97306  0.39786  1.0000 0.059571727
C   C225      1.0  0.35136  0.97834  0.47369  1.0000 -0.1508750463
C   C226      1.0  0.28926  0.10612  0.74934  1.0000 0.0522991154
C   C227      1.0  0.24229  0.10876  0.72442  1.0000 -0.1694412586
C   C228      1.0  0.24294  0.15960  0.72595  1.0000 0.0522991154
C   C229      1.0  0.33552  0.20614  0.77283  1.0000 0.0700506782
C   C230      1.0  0.33656  0.15608  0.77283  1.0000 -0.1508750463
C   C231      1.0  0.58027  0.23989  0.00051  1.0000 -0.1265294521
C   C232      1.0  0.60926  0.21056  0.00311  1.0000 -0.0910285755
C   C233      1.0  0.52327  0.21248  0.01795  1.0000 -0.1006855204
C   C234      1.0  0.58151  0.15417  0.02341  1.0000 -0.1508750463
C   C235      1.0  0.49559  0.15623  0.03922  1.0000 -0.1580432661
C   C236      1.0  0.52466  0.12677  0.04230  1.0000 0.1701942676
C   C237      1.0  0.49583  0.06663  0.06586  1.0000 -0.4042764797
C   C238      1.0  0.64701  0.55279  0.69135  1.0000 0.368268305
C   C239      1.0  0.66261  0.57938  0.61948  1.0000 -0.439103575
C   C240      1.0  0.66022  0.62688  0.59716  1.0000 0.3508214394
C   C241      1.0  0.77231  0.71855  0.73765  1.0000 0.3585013601
C   C242      1.0  0.64631  0.49843  0.70255  1.0000 0.0522991154
C   C243      1.0  0.66557  0.48725  0.77114  1.0000 -0.1580432661
C   C244      1.0  0.67148  0.43966  0.77730  1.0000 0.0890203766
C   C245      1.0  0.63729  0.41212  0.65158  1.0000 0.0700506782
C   C246      1.0  0.63089  0.45908  0.64298  1.0000 -0.1770397286
C   C247      1.0  0.67099  0.64681  0.51552  1.0000 0.059571727
C   C248      1.0  0.65856  0.61025  0.45293  1.0000 -0.1770397286
C   C249      1.0  0.67248  0.63152  0.37805  1.0000 0.059571727
C   C250      1.0  0.70927  0.72362  0.42413  1.0000 0.0700506782
C   C251      1.0  0.69587  0.70417  0.49963  1.0000 -0.1508750463
C   C252      1.0  0.82758  0.72075  0.73480  1.0000 0.0522991154
C   C253      1.0  0.87890  0.77066  0.74380  1.0000 -0.1694412586
C   C254      1.0  0.92884  0.76949  0.74435  1.0000 0.0522991154
C   C255      1.0  0.87984  0.67139  0.73035  1.0000 0.059571727
C   C256      1.0  0.82898  0.67068  0.72797  1.0000 -0.1508750463
C   C257      1.0  0.76623  0.99921  0.25898  1.0000 -0.4313867285
C   C258      1.0  0.00508  0.76830  0.25450  1.0000 -0.4313867285
C   C259      1.0  0.23936  0.23556  0.24665  1.0000 -0.4313867285
C   C260      1.0  0.24148  0.00089  0.75673  1.0000 -0.4313867285
C   C261      1.0  0.00593  0.23563  0.73222  1.0000 -0.4313867285
C   C262      1.0  0.76762  0.76660  0.72999  1.0000 -0.439103575
S   S1        1.0  0.48568  0.22922  0.39539  1.0000 1.1974556849
S   S2        1.0  0.33502  0.73730  0.03422  1.0000 1.1974556849
S   S3        1.0  0.36182  0.67598  0.51968  1.0000 1.1974556849
S   S4        1.0  0.61633  0.31250  0.97595  1.0000 1.1974556849
N   N1        1.0  0.66385  0.25494  0.20653  1.0000 -0.1987954236
N   N2        1.0  0.70031  0.01327  0.84752  1.0000 -0.2396236609
N   N3        1.0  0.92712  0.20479  0.25332  1.0000 -0.2289553952
N   N4        1.0  0.75299  0.40483  0.20867  1.0000 -0.1987954236
N   N5        1.0  0.99242  0.68779  0.85659  1.0000 -0.2396236609
N   N6        1.0  0.79741  0.71814  0.25481  1.0000 -0.2289553952
N   N7        1.0  0.59933  0.34161  0.21512  1.0000 -0.1770397286
N   N8        1.0  0.31703  0.30364  0.86512  1.0000 -0.2396236609
N   N9        1.0  0.28791  0.07747  0.25000  1.0000 -0.2289553952
N   N10       1.0  0.25804  0.65972  0.27288  1.0000 -0.1926013995
N   N11       1.0  0.01515  0.69676  0.63426  1.0000 -0.2396236609
N   N12       1.0  0.21328  0.92631  0.25344  1.0000 -0.2086782648
N   N13       1.0  0.40585  0.74856  0.27165  1.0000 -0.1987954236
N   N14       1.0  0.68573  0.99127  0.62588  1.0000 -0.2396236609
N   N15       1.0  0.72016  0.79366  0.25341  1.0000 -0.2289553952
N   N16       1.0  0.34678  0.59612  0.27809  1.0000 -0.1926013995
N   N17       1.0  0.31414  0.31765  0.64424  1.0000 -0.2396236609
N   N18       1.0  0.08034  0.28160  0.25595  1.0000 -0.2289553952
N   N19       1.0  0.34499  0.74551  0.78697  1.0000 -0.1770397286
N   N20       1.0  0.31101  0.99290  0.14285  1.0000 -0.2226396656
N   N21       1.0  0.08110  0.79605  0.75121  1.0000 -0.2226396656
N   N22       1.0  0.25484  0.59693  0.78977  1.0000 -0.1926013995
N   N23       1.0  0.01288  0.31478  0.14700  1.0000 -0.2289553952
N   N24       1.0  0.21177  0.28295  0.74989  1.0000 -0.2289553952
N   N25       1.0  0.40574  0.65310  0.79020  1.0000 -0.1926013995
N   N26       1.0  0.69095  0.69604  0.14300  1.0000 -0.2289553952
N   N27       1.0  0.72040  0.92512  0.73895  1.0000 -0.2226396656
N   N28       1.0  0.75368  0.34752  0.71812  1.0000 -0.1926013995
N   N29       1.0  0.99489  0.30214  0.36813  1.0000 -0.2396236609
N   N30       1.0  0.79773  0.07622  0.72956  1.0000 -0.2289553952
N   N31       1.0  0.60387  0.25251  0.72007  1.0000 -0.1926013995
N   N32       1.0  0.32519  0.01401  0.36485  1.0000 -0.2289553952
N   N33       1.0  0.28892  0.20694  0.75022  1.0000 -0.2289553952
N   N34       1.0  0.65820  0.40356  0.71745  1.0000 -0.1987954236
N   N35       1.0  0.69787  0.68746  0.36496  1.0000 -0.2396236609
N   N36       1.0  0.92857  0.72045  0.73744  1.0000 -0.2226396656
O   O1        1.0  0.63440  0.05842  0.22929  1.0000 -0.420720981
O   O2        1.0  0.65009  0.99335  0.12708  1.0000 -0.4100656404
O   O3        1.0  0.72788  0.05566  0.23141  1.0000 -0.439103575
O   O4        1.0  0.54454  0.29355  0.38730  1.0000 -0.6505921278
O   O5        1.0  0.94722  0.57605  0.23840  1.0000 -0.4313867285
O   O6        1.0  0.01155  0.65700  0.13573  1.0000 -0.4313867285
O   O7        1.0  0.94881  0.67164  0.24006  1.0000 -0.439103575
O   O8        1.0  0.44067  0.22627  0.32564  1.0000 -0.6505921278
O   O9        1.0  0.45609  0.23130  0.48071  1.0000 -0.6505921278
O   O10       1.0  0.43163  0.36971  0.24622  1.0000 -0.4100656404
O   O11       1.0  0.34838  0.35118  0.14643  1.0000 -0.4313867285
O   O12       1.0  0.33636  0.27567  0.25154  1.0000 -0.420720981
O   O13       1.0  0.06270  0.63357  0.24845  1.0000 -0.4313867285
O   O14       1.0  0.99915  0.65041  0.35263  1.0000 -0.439103575
O   O15       1.0  0.06171  0.72788  0.24877  1.0000 -0.439103575
O   O16       1.0  0.37569  0.73899  0.95897  1.0000 -0.6712924316
O   O17       1.0  0.57557  0.94305  0.23964  1.0000 -0.4100656404
O   O18       1.0  0.65594  0.00623  0.34402  1.0000 -0.420720981
O   O19       1.0  0.67004  0.94267  0.24064  1.0000 -0.4313867285
O   O20       1.0  0.32084  0.67933  0.08688  1.0000 -0.6808854534
O   O21       1.0  0.27205  0.72247  0.99575  1.0000 -0.6555902555
O   O22       1.0  0.37386  0.42757  0.25759  1.0000 -0.4100656404
O   O23       1.0  0.35941  0.34841  0.36295  1.0000 -0.420720981
O   O24       1.0  0.27982  0.33215  0.26238  1.0000 -0.4313867285
O   O25       1.0  0.37528  0.94202  0.76065  1.0000 -0.4100656404
O   O26       1.0  0.35720  0.00629  0.86128  1.0000 -0.420720981
O   O27       1.0  0.28113  0.94344  0.75554  1.0000 -0.4313867285
O   O28       1.0  0.06128  0.42539  0.76092  1.0000 -0.4313867285
O   O29       1.0  0.99760  0.34540  0.86559  1.0000 -0.4313867285
O   O30       1.0  0.06070  0.33024  0.76360  1.0000 -0.4313867285
O   O31       1.0  0.31007  0.66500  0.45610  1.0000 -0.6712924316
O   O32       1.0  0.57747  0.63181  0.76053  1.0000 -0.420720981
O   O33       1.0  0.65928  0.64922  0.86199  1.0000 -0.4313867285
O   O34       1.0  0.67267  0.72667  0.75925  1.0000 -0.439103575
O   O35       1.0  0.40459  0.74702  0.52349  1.0000 -0.6712924316
O   O36       1.0  0.94628  0.36744  0.75031  1.0000 -0.4313867285
O   O37       1.0  0.01082  0.34994  0.64890  1.0000 -0.4313867285
O   O38       1.0  0.94819  0.27351  0.75285  1.0000 -0.4313867285
O   O39       1.0  0.65200  0.35419  0.05216  1.0000 -0.6712924316
O   O40       1.0  0.43345  0.05738  0.75005  1.0000 -0.4100656404
O   O41       1.0  0.35464  0.99354  0.64436  1.0000 -0.420720981
O   O42       1.0  0.33836  0.05666  0.74602  1.0000 -0.4313867285
O   O43       1.0  0.57337  0.33641  0.94421  1.0000 -0.6712924316
O   O44       1.0  0.63556  0.57486  0.74809  1.0000 -0.420720981
O   O45       1.0  0.65106  0.65566  0.64593  1.0000 -0.4313867285
O   O46       1.0  0.72950  0.67076  0.74808  1.0000 -0.439103575
O   O47       1.0  0.66575  0.32905  0.90608  1.0000 -0.6858575537
O   O48       1.0  0.32991  0.65660  0.60736  1.0000 -0.6808854534
