# DDEC6 charges by PACMAN v1.1 (https://github.com/mtap-research/PACMAN-charge/)
data_2011[Gd][llj]3[ION]1
_chemical_formula_sum              "Gd2 H108 C114 S6 N12 O30 F18"
_cell_length_a       14.9365
_cell_length_b       17.1361
_cell_length_c       17.606
_cell_angle_alpha    120.283
_cell_angle_beta     109.848
_cell_angle_gamma    83.36

_symmetry_space_group_name_H-M    "P 1"
_symmetry_Int_Tables_number       1

loop_
  _symmetry_equiv_pos_as_xyz
  'x, y, z'

loop_
  _atom_site_type_symbol
  _atom_site_label
  _atom_site_symmetry_multiplicity
  _atom_site_fract_x
  _atom_site_fract_y
  _atom_site_fract_z
  _atom_site_occupancy
  _atom_site_charge
Gd  Gd1       1.0  0.88079  0.93365  0.39204  1.0000 2.0762372815
Gd  Gd2       1.0  0.11921  0.06635  0.60796  1.0000 2.0762372815
H   H1        1.0  0.90420  0.92570  0.81100  1.0000 0.1210206427
H   H2        1.0  0.09580  0.07430  0.18900  1.0000 0.1210206427
H   H3        1.0  0.92820  0.98970  0.91870  1.0000 0.1289602935
H   H4        1.0  0.07180  0.01030  0.08130  1.0000 0.1289602935
H   H5        1.0  0.94370  0.88600  0.87820  1.0000 0.151530109
H   H6        1.0  0.05630  0.11400  0.12180  1.0000 0.151530109
H   H7        1.0  0.64530  0.96380  0.03810  1.0000 0.1393133854
H   H8        1.0  0.35470  0.03620  0.96190  1.0000 0.1393133854
H   H9        1.0  0.67910  0.05470  0.05190  1.0000 0.1289602935
H   H10       1.0  0.32090  0.94530  0.94810  1.0000 0.1289602935
H   H11       1.0  0.57520  0.01190  0.98810  1.0000 0.1393133854
H   H12       1.0  0.42480  0.98810  0.01190  1.0000 0.1393133854
H   H13       1.0  0.58620  0.69910  0.67790  1.0000 0.151530109
H   H14       1.0  0.41380  0.30090  0.32210  1.0000 0.151530109
H   H15       1.0  0.52190  0.77350  0.66490  1.0000 0.1210206427
H   H16       1.0  0.47810  0.22650  0.33510  1.0000 0.1210206427
H   H17       1.0  0.60700  0.74260  0.62520  1.0000 0.1393133854
H   H18       1.0  0.39300  0.25740  0.37480  1.0000 0.1393133854
H   H19       1.0  0.79370  0.09320  0.04600  1.0000 0.1210206427
H   H20       1.0  0.20630  0.90680  0.95400  1.0000 0.1210206427
H   H21       1.0  0.88320  0.05740  0.01370  1.0000 0.1289602935
H   H22       1.0  0.11680  0.94260  0.98630  1.0000 0.1289602935
H   H23       1.0  0.88610  0.88560  0.01120  1.0000 0.1289602935
H   H24       1.0  0.11390  0.11440  0.98880  1.0000 0.1289602935
H   H25       1.0  0.93670  0.83970  0.11850  1.0000 0.1684760244
H   H26       1.0  0.06330  0.16030  0.88150  1.0000 0.1684760244
H   H27       1.0  0.91950  0.09570  0.31650  1.0000 0.151530109
H   H28       1.0  0.08050  0.90430  0.68350  1.0000 0.151530109
H   H29       1.0  0.86870  0.13520  0.20410  1.0000 0.1289602935
H   H30       1.0  0.13130  0.86480  0.79590  1.0000 0.1289602935
H   H31       1.0  0.51750  0.87360  0.89640  1.0000 0.1210206427
H   H32       1.0  0.48250  0.12640  0.10360  1.0000 0.1210206427
H   H33       1.0  0.51370  0.78310  0.80440  1.0000 0.1210206427
H   H34       1.0  0.48630  0.21690  0.19560  1.0000 0.1210206427
H   H35       1.0  0.49630  0.00000  0.82860  1.0000 0.1393133854
H   H36       1.0  0.50370  0.00000  0.17140  1.0000 0.1393133854
H   H37       1.0  0.36820  0.04790  0.75160  1.0000 0.1587499694
H   H38       1.0  0.63180  0.95210  0.24840  1.0000 0.1587499694
H   H39       1.0  0.22690  0.81010  0.63930  1.0000 0.1393133854
H   H40       1.0  0.77310  0.18990  0.36070  1.0000 0.1393133854
H   H41       1.0  0.35620  0.76870  0.72110  1.0000 0.1393133854
H   H42       1.0  0.64380  0.23130  0.27890  1.0000 0.1393133854
H   H43       1.0  0.74060  0.72780  0.65490  1.0000 0.1289602935
H   H44       1.0  0.25940  0.27220  0.34510  1.0000 0.1289602935
H   H45       1.0  0.84450  0.76210  0.72490  1.0000 0.1289602935
H   H46       1.0  0.15550  0.23790  0.27510  1.0000 0.1289602935
H   H47       1.0  0.70470  0.91650  0.67880  1.0000 0.1289602935
H   H48       1.0  0.29530  0.08350  0.32120  1.0000 0.1289602935
H   H49       1.0  0.72300  0.97930  0.59770  1.0000 0.1587499694
H   H50       1.0  0.27700  0.02070  0.40230  1.0000 0.1587499694
H   H51       1.0  0.91880  0.80420  0.52150  1.0000 0.151530109
H   H52       1.0  0.08120  0.19580  0.47850  1.0000 0.151530109
H   H53       1.0  0.89500  0.74380  0.60220  1.0000 0.1393133854
H   H54       1.0  0.10500  0.25620  0.39780  1.0000 0.1393133854
H   H55       1.0  0.51340  0.34930  0.65090  1.0000 0.1393133854
H   H56       1.0  0.48660  0.65070  0.34910  1.0000 0.1393133854
H   H57       1.0  0.59750  0.34560  0.61510  1.0000 0.1289602935
H   H58       1.0  0.40250  0.65440  0.38490  1.0000 0.1289602935
H   H59       1.0  0.55200  0.43750  0.66300  1.0000 0.151530109
H   H60       1.0  0.44800  0.56250  0.33700  1.0000 0.151530109
H   H61       1.0  0.94030  0.46970  0.92650  1.0000 0.1393133854
H   H62       1.0  0.05970  0.53030  0.07350  1.0000 0.1393133854
H   H63       1.0  0.92090  0.40520  0.81950  1.0000 0.1210206427
H   H64       1.0  0.07910  0.59480  0.18050  1.0000 0.1210206427
H   H65       1.0  0.93430  0.36440  0.88450  1.0000 0.1393133854
H   H66       1.0  0.06570  0.63560  0.11550  1.0000 0.1393133854
H   H67       1.0  0.57050  0.47580  0.98200  1.0000 0.1289602935
H   H68       1.0  0.42950  0.52420  0.01800  1.0000 0.1289602935
H   H69       1.0  0.66900  0.53000  0.04970  1.0000 0.1289602935
H   H70       1.0  0.33100  0.47000  0.95030  1.0000 0.1289602935
H   H71       1.0  0.65490  0.42830  0.02080  1.0000 0.151530109
H   H72       1.0  0.34510  0.57170  0.97920  1.0000 0.151530109
H   H73       1.0  0.49570  0.48470  0.87780  1.0000 0.1210206427
H   H74       1.0  0.50430  0.51530  0.12220  1.0000 0.1210206427
H   H75       1.0  0.47780  0.46460  0.77640  1.0000 0.1289602935
H   H76       1.0  0.52220  0.53540  0.22360  1.0000 0.1289602935
H   H77       1.0  0.53270  0.31180  0.86240  1.0000 0.1289602935
H   H78       1.0  0.46730  0.68820  0.13760  1.0000 0.1289602935
H   H79       1.0  0.43630  0.19280  0.81730  1.0000 0.151530109
H   H80       1.0  0.56370  0.80720  0.18270  1.0000 0.151530109
H   H81       1.0  0.23770  0.25560  0.64070  1.0000 0.1393133854
H   H82       1.0  0.76230  0.74440  0.35930  1.0000 0.1393133854
H   H83       1.0  0.33770  0.37590  0.68980  1.0000 0.1393133854
H   H84       1.0  0.66230  0.62410  0.31020  1.0000 0.1393133854
H   H85       1.0  0.80980  0.39970  0.03140  1.0000 0.1289602935
H   H86       1.0  0.19020  0.60030  0.96860  1.0000 0.1289602935
H   H87       1.0  0.89610  0.41590  0.00850  1.0000 0.1289602935
H   H88       1.0  0.10390  0.58410  0.99150  1.0000 0.1289602935
H   H89       1.0  0.88250  0.48990  0.19160  1.0000 0.1393133854
H   H90       1.0  0.11750  0.51010  0.80840  1.0000 0.1393133854
H   H91       1.0  0.91720  0.62810  0.32200  1.0000 0.151530109
H   H92       1.0  0.08280  0.37190  0.67800  1.0000 0.151530109
H   H93       1.0  0.86750  0.74140  0.16000  1.0000 0.1587499694
H   H94       1.0  0.13250  0.25860  0.84000  1.0000 0.1587499694
H   H95       1.0  0.83750  0.59990  0.03340  1.0000 0.1289602935
H   H96       1.0  0.16250  0.40010  0.96660  1.0000 0.1289602935
H   H97       1.0  0.72420  0.39910  0.65150  1.0000 0.1210206427
H   H98       1.0  0.27580  0.60090  0.34850  1.0000 0.1210206427
H   H99       1.0  0.82490  0.43900  0.72640  1.0000 0.1289602935
H   H100      1.0  0.17510  0.56100  0.27360  1.0000 0.1289602935
H   H101      1.0  0.85500  0.34120  0.57430  1.0000 0.1393133854
H   H102      1.0  0.14500  0.65880  0.42570  1.0000 0.1393133854
H   H103      1.0  0.92600  0.21340  0.50010  1.0000 0.1587499694
H   H104      1.0  0.07400  0.78660  0.49990  1.0000 0.1587499694
H   H105      1.0  0.86250  0.11140  0.63800  1.0000 0.1684760244
H   H106      1.0  0.13750  0.88860  0.36200  1.0000 0.1684760244
H   H107      1.0  0.78660  0.23910  0.70550  1.0000 0.1289602935
H   H108      1.0  0.21340  0.76090  0.29450  1.0000 0.1289602935
C   C1        1.0  0.90400  0.93010  0.86750  1.0000 -0.4618462234
C   C2        1.0  0.09600  0.06990  0.13250  1.0000 -0.4618462234
C   C3        1.0  0.64050  0.99900  0.00850  1.0000 -0.4618462234
C   C4        1.0  0.35950  0.00100  0.99150  1.0000 -0.4618462234
C   C5        1.0  0.58560  0.75380  0.67530  1.0000 -0.4618462234
C   C6        1.0  0.41440  0.24620  0.32470  1.0000 -0.4618462234
C   C7        1.0  0.76820  0.96540  0.93370  1.0000 -0.0376177992
C   C8        1.0  0.23180  0.03460  0.06630  1.0000 -0.0376177992
C   C9        1.0  0.67490  0.94620  0.92550  1.0000 0.0780939624
C   C10       1.0  0.32510  0.05380  0.07450  1.0000 0.0780939624
C   C11       1.0  0.61740  0.87590  0.84150  1.0000 -0.0376177992
C   C12       1.0  0.38260  0.12410  0.15850  1.0000 -0.0376177992
C   C13       1.0  0.65070  0.82590  0.76540  1.0000 0.0780939624
C   C14       1.0  0.34930  0.17410  0.23460  1.0000 0.0780939624
C   C15       1.0  0.74440  0.84270  0.77590  1.0000 -0.0376177992
C   C16       1.0  0.25560  0.15730  0.22410  1.0000 -0.0376177992
C   C17       1.0  0.80290  0.91250  0.85890  1.0000 0.0780939624
C   C18       1.0  0.19710  0.08750  0.14110  1.0000 0.0780939624
C   C19       1.0  0.83040  0.04050  0.02400  1.0000 -0.1699232193
C   C20       1.0  0.16960  0.95950  0.97600  1.0000 -0.1699232193
C   C21       1.0  0.89100  0.92690  0.07280  1.0000 0.0507036182
C   C22       1.0  0.10900  0.07310  0.92720  1.0000 0.0507036182
C   C23       1.0  0.92050  0.89910  0.13660  1.0000 -0.2690693653
C   C24       1.0  0.07950  0.10090  0.86340  1.0000 -0.2690693653
C   C25       1.0  0.92690  0.96010  0.23100  1.0000 0.4347457492
C   C26       1.0  0.07310  0.03990  0.76900  1.0000 0.4347457492
C   C27       1.0  0.91020  0.05170  0.25470  1.0000 -0.2813309527
C   C28       1.0  0.08980  0.94830  0.74530  1.0000 -0.2813309527
C   C29       1.0  0.88080  0.07520  0.18760  1.0000 0.009601744
C   C30       1.0  0.11920  0.92480  0.81240  1.0000 0.009601744
C   C31       1.0  0.52050  0.84860  0.83410  1.0000 -0.1609248317
C   C32       1.0  0.47950  0.15140  0.16590  1.0000 -0.1609248317
C   C33       1.0  0.44140  0.96150  0.78970  1.0000 0.0507036182
C   C34       1.0  0.55860  0.03850  0.21030  1.0000 0.0507036182
C   C35       1.0  0.36450  0.98990  0.74290  1.0000 -0.2690693653
C   C36       1.0  0.63550  0.01010  0.25710  1.0000 -0.2690693653
C   C37       1.0  0.28060  0.93480  0.68260  1.0000 0.4188149773
C   C38       1.0  0.71940  0.06520  0.31740  1.0000 0.4188149773
C   C39       1.0  0.28100  0.85000  0.67710  1.0000 -0.2879987498
C   C40       1.0  0.71900  0.15000  0.32290  1.0000 -0.2879987498
C   C41       1.0  0.35870  0.82500  0.72580  1.0000 0.0415620869
C   C42       1.0  0.64130  0.17500  0.27420  1.0000 0.0415620869
C   C43       1.0  0.78380  0.78140  0.69900  1.0000 -0.1609248317
C   C44       1.0  0.21620  0.21860  0.30100  1.0000 -0.1609248317
C   C45       1.0  0.74800  0.89360  0.64630  1.0000 0.0415620869
C   C46       1.0  0.25200  0.10640  0.35370  1.0000 0.0415620869
C   C47       1.0  0.75870  0.93110  0.59750  1.0000 -0.2813309527
C   C48       1.0  0.24130  0.06890  0.40250  1.0000 -0.2690693653
C   C49       1.0  0.82170  0.89860  0.54740  1.0000 0.4079223278
C   C50       1.0  0.17830  0.10140  0.45260  1.0000 0.4079223278
C   C51       1.0  0.87410  0.82750  0.55220  1.0000 -0.2879987498
C   C52       1.0  0.12590  0.17250  0.44780  1.0000 -0.2813309527
C   C53       1.0  0.86040  0.79220  0.60120  1.0000 0.034193021
C   C54       1.0  0.13960  0.20780  0.39880  1.0000 0.034193021
C   C55       1.0  0.56930  0.38170  0.66280  1.0000 -0.4478066511
C   C56       1.0  0.43070  0.61830  0.33720  1.0000 -0.4478066511
C   C57       1.0  0.90940  0.41330  0.87340  1.0000 -0.4618462234
C   C58       1.0  0.09060  0.58670  0.12660  1.0000 -0.4618462234
C   C59       1.0  0.63840  0.47180  0.00000  1.0000 -0.467289815
C   C60       1.0  0.36160  0.52820  0.00000  1.0000 -0.467289815
C   C61       1.0  0.64050  0.40200  0.75680  1.0000 0.0908735876
C   C62       1.0  0.35950  0.59800  0.24320  1.0000 0.0908735876
C   C63       1.0  0.73880  0.39970  0.77140  1.0000 -0.0376177992
C   C64       1.0  0.26120  0.60030  0.22860  1.0000 -0.0376177992
C   C65       1.0  0.80270  0.41400  0.85690  1.0000 0.0780939624
C   C66       1.0  0.19730  0.58600  0.14310  1.0000 0.0780939624
C   C67       1.0  0.76820  0.43250  0.92850  1.0000 -0.0376177992
C   C68       1.0  0.23180  0.56750  0.07150  1.0000 -0.0376177992
C   C69       1.0  0.67110  0.44270  0.91790  1.0000 0.0780939624
C   C70       1.0  0.32890  0.55730  0.08210  1.0000 0.0780939624
C   C71       1.0  0.60770  0.42700  0.83120  1.0000 -0.0376177992
C   C72       1.0  0.39230  0.57300  0.16880  1.0000 -0.0376177992
C   C73       1.0  0.50270  0.44030  0.81820  1.0000 -0.1699232193
C   C74       1.0  0.49730  0.55970  0.18180  1.0000 -0.1699232193
C   C75       1.0  0.47280  0.30060  0.81770  1.0000 0.034193021
C   C76       1.0  0.52720  0.69940  0.18230  1.0000 0.034193021
C   C77       1.0  0.41480  0.22970  0.79090  1.0000 -0.2502943075
C   C78       1.0  0.58520  0.77030  0.20910  1.0000 -0.2502943075
C   C79       1.0  0.32350  0.21010  0.72490  1.0000 0.4079223278
C   C80       1.0  0.67650  0.78990  0.27510  1.0000 0.4079223278
C   C81       1.0  0.29680  0.26640  0.68630  1.0000 -0.2879987498
C   C82       1.0  0.70320  0.73360  0.31370  1.0000 -0.2879987498
C   C83       1.0  0.35750  0.33830  0.71540  1.0000 0.0415620869
C   C84       1.0  0.64250  0.66170  0.28460  1.0000 0.0415620869
C   C85       1.0  0.83600  0.43870  0.01790  1.0000 -0.1699232193
C   C86       1.0  0.16400  0.56130  0.98210  1.0000 -0.1699232193
C   C87       1.0  0.87940  0.54130  0.18590  1.0000 0.0507036182
C   C88       1.0  0.12060  0.45870  0.81410  1.0000 0.0507036182
C   C89       1.0  0.89940  0.62400  0.26400  1.0000 -0.2813309527
C   C90       1.0  0.10060  0.37600  0.73600  1.0000 -0.2813309527
C   C91       1.0  0.89370  0.70430  0.25870  1.0000 0.4188149773
C   C92       1.0  0.10630  0.29570  0.74130  1.0000 0.4188149773
C   C93       1.0  0.87040  0.69140  0.16800  1.0000 -0.2879987498
C   C94       1.0  0.12960  0.30860  0.83200  1.0000 -0.2879987498
C   C95       1.0  0.85230  0.60650  0.09210  1.0000 0.0507036182
C   C96       1.0  0.14770  0.39350  0.90790  1.0000 0.0507036182
C   C97       1.0  0.77590  0.39080  0.69760  1.0000 -0.1699232193
C   C98       1.0  0.22410  0.60920  0.30240  1.0000 -0.1699232193
C   C99       1.0  0.85700  0.29440  0.58700  1.0000 0.009601744
C   C100      1.0  0.14300  0.70560  0.41300  1.0000 0.009601744
C   C101      1.0  0.90030  0.21840  0.54350  1.0000 -0.2448685861
C   C102      1.0  0.09970  0.78160  0.45650  1.0000 -0.2448685861
C   C103      1.0  0.90740  0.14710  0.56230  1.0000 0.4079223278
C   C104      1.0  0.09260  0.85290  0.43770  1.0000 0.4079223278
C   C105      1.0  0.86210  0.15750  0.62450  1.0000 -0.26109455
C   C106      1.0  0.13790  0.84250  0.37550  1.0000 -0.26109455
C   C107      1.0  0.81720  0.23430  0.66540  1.0000 0.0608257108
C   C108      1.0  0.18280  0.76570  0.33460  1.0000 0.0507036182
C   C109      1.0  0.54190  0.69940  0.93680  1.0000 0.4609410369
C   C110      1.0  0.45810  0.30060  0.06320  1.0000 0.4609410369
C   C111      1.0  0.34370  0.52910  0.53790  1.0000 0.4732963942
C   C112      1.0  0.65630  0.47090  0.46210  1.0000 0.4732963942
C   C113      1.0  0.20620  0.33600  0.14550  1.0000 0.4732963942
C   C114      1.0  0.79380  0.66400  0.85450  1.0000 0.4732963942
S   S1        1.0  0.43860  0.75500  0.96250  1.0000 0.9929031931
S   S2        1.0  0.56140  0.24500  0.03750  1.0000 0.9929031931
S   S3        1.0  0.28940  0.44766  0.54885  1.0000 0.963488748
S   S4        1.0  0.71060  0.55234  0.45115  1.0000 0.963488748
S   S5        1.0  0.07891  0.33263  0.10497  1.0000 0.9838351809
S   S6        1.0  0.92109  0.66737  0.89503  1.0000 0.9838351809
N   N1        1.0  0.44480  0.35560  0.78010  1.0000 0.0908735876
N   N2        1.0  0.55520  0.64440  0.21990  1.0000 0.0908735876
N   N3        1.0  0.85510  0.53170  0.10000  1.0000 0.0686621793
N   N4        1.0  0.14490  0.46830  0.90000  1.0000 0.0686621793
N   N5        1.0  0.81620  0.30270  0.64920  1.0000 0.0908735876
N   N6        1.0  0.18380  0.69730  0.35080  1.0000 0.0908735876
N   N7        1.0  0.43920  0.87940  0.78060  1.0000 0.0908735876
N   N8        1.0  0.56080  0.12060  0.21940  1.0000 0.0908735876
N   N9        1.0  0.86850  0.01330  0.09640  1.0000 0.0608257108
N   N10       1.0  0.13150  0.98670  0.90360  1.0000 0.0608257108
N   N11       1.0  0.79800  0.82500  0.64870  1.0000 0.102869814
N   N12       1.0  0.20200  0.17500  0.35130  1.0000 0.102869814
O   O1        1.0  0.26980  0.14430  0.70360  1.0000 -0.627877245
O   O2        1.0  0.73020  0.85570  0.29640  1.0000 -0.627877245
O   O3        1.0  0.90900  0.78180  0.33100  1.0000 -0.627877245
O   O4        1.0  0.09100  0.21820  0.66900  1.0000 -0.627877245
O   O5        1.0  0.95510  0.07590  0.52540  1.0000 -0.7649022735
O   O6        1.0  0.04490  0.92410  0.47460  1.0000 -0.7649022735
O   O7        1.0  0.20910  0.95850  0.63510  1.0000 -0.6396811701
O   O8        1.0  0.79090  0.04150  0.36490  1.0000 -0.6396811701
O   O9        1.0  0.83210  0.93270  0.50010  1.0000 -0.6492680705
O   O10       1.0  0.16790  0.06730  0.49990  1.0000 -0.6492680705
O   O11       1.0  0.94500  0.93170  0.28950  1.0000 -0.6561844743
O   O12       1.0  0.05500  0.06830  0.71050  1.0000 -0.6561844743
O   O13       1.0  0.39830  0.69060  0.96950  1.0000 -0.5387146271
O   O14       1.0  0.38540  0.76760  0.88260  1.0000 -0.5878181852
O   O15       1.0  0.48140  0.83810  0.04390  1.0000 -0.5571294821
O   O16       1.0  0.60170  0.30940  0.03050  1.0000 -0.5387146271
O   O17       1.0  0.61460  0.23240  0.11740  1.0000 -0.5878181852
O   O18       1.0  0.51860  0.16190  0.95610  1.0000 -0.5571294821
O   O19       1.0  0.34370  0.37090  0.52150  1.0000 -0.5387146271
O   O20       1.0  0.29740  0.49280  0.64500  1.0000 -0.5531346149
O   O21       1.0  0.19410  0.43490  0.48690  1.0000 -0.5531346149
O   O22       1.0  0.65630  0.62910  0.47850  1.0000 -0.5387146271
O   O23       1.0  0.70260  0.50720  0.35500  1.0000 -0.5531346149
O   O24       1.0  0.80590  0.56510  0.51310  1.0000 -0.5531346149
O   O25       1.0  0.05570  0.41790  0.17170  1.0000 -0.5694672164
O   O26       1.0  0.05650  0.32180  0.01440  1.0000 -0.5694672164
O   O27       1.0  0.05290  0.25500  0.10580  1.0000 -0.5694672164
O   O28       1.0  0.94430  0.58210  0.82830  1.0000 -0.5694672164
O   O29       1.0  0.94350  0.67820  0.98560  1.0000 -0.5694672164
O   O30       1.0  0.94710  0.74500  0.89420  1.0000 -0.5694672164
F   F1        1.0  0.52900  0.63720  0.84880  1.0000 -0.1609248317
F   F2        1.0  0.58730  0.66630  0.98870  1.0000 -0.1515377931
F   F3        1.0  0.60600  0.76350  0.95420  1.0000 -0.1815676338
F   F4        1.0  0.47100  0.36280  0.15120  1.0000 -0.1609248317
F   F5        1.0  0.41270  0.33370  0.01130  1.0000 -0.1515377931
F   F6        1.0  0.39400  0.23650  0.04580  1.0000 -0.1815676338
F   F7        1.0  0.43400  0.55100  0.59480  1.0000 -0.1815676338
F   F8        1.0  0.29950  0.60060  0.55410  1.0000 -0.1815676338
F   F9        1.0  0.34330  0.49300  0.45280  1.0000 -0.1699232193
F   F10       1.0  0.56600  0.44900  0.40520  1.0000 -0.1815676338
F   F11       1.0  0.70050  0.39940  0.44590  1.0000 -0.1815676338
F   F12       1.0  0.65670  0.50700  0.54720  1.0000 -0.1699232193
F   F13       1.0  0.23950  0.35840  0.23520  1.0000 -0.1609248317
F   F14       1.0  0.24410  0.39710  0.13770  1.0000 -0.1699232193
F   F15       1.0  0.23740  0.25710  0.09790  1.0000 -0.1699232193
F   F16       1.0  0.76050  0.64160  0.76480  1.0000 -0.1609248317
F   F17       1.0  0.75590  0.60290  0.86230  1.0000 -0.1699232193
F   F18       1.0  0.76260  0.74290  0.90210  1.0000 -0.1699232193
