# DDEC6 charges by PACMAN v1.1 (https://github.com/mtap-research/PACMAN-charge/)
data_2011[Ag][nan]3[ION]1
_chemical_formula_sum              "Ag8 H72 C84 N32 O16"
_cell_length_a       16.7567
_cell_length_b       16.7567
_cell_length_c       13.1924
_cell_angle_alpha    103.601
_cell_angle_beta     103.601
_cell_angle_gamma    109.546

_symmetry_space_group_name_H-M    "P 1"
_symmetry_Int_Tables_number       1

loop_
  _symmetry_equiv_pos_as_xyz
  'x, y, z'

loop_
  _atom_site_type_symbol
  _atom_site_label
  _atom_site_symmetry_multiplicity
  _atom_site_fract_x
  _atom_site_fract_y
  _atom_site_fract_z
  _atom_site_occupancy
  _atom_site_charge
Ag  Ag1       1.0  0.76728  0.10284  0.79648  1.0000 0.2574074709
Ag  Ag2       1.0  0.49344  0.54674  0.88529  1.0000 0.3039585718
Ag  Ag3       1.0  0.89716  0.23272  0.70352  1.0000 0.2574074709
Ag  Ag4       1.0  0.45326  0.50656  0.61471  1.0000 0.3039585718
Ag  Ag5       1.0  0.23272  0.89716  0.20352  1.0000 0.2574074709
Ag  Ag6       1.0  0.50656  0.45326  0.11471  1.0000 0.3039585718
Ag  Ag7       1.0  0.10284  0.76728  0.29648  1.0000 0.2574074709
Ag  Ag8       1.0  0.54674  0.49344  0.38529  1.0000 0.3039585718
H   H1        1.0  0.39500  0.98180  0.64250  1.0000 0.1403252513
H   H2        1.0  0.37320  0.02180  0.54880  1.0000 0.1189732061
H   H3        1.0  0.55600  0.02100  0.74590  1.0000 0.1403252513
H   H4        1.0  0.51950  0.14010  0.52580  1.0000 0.1473627047
H   H5        1.0  0.67510  0.16070  0.58620  1.0000 0.1292918821
H   H6        1.0  0.22270  0.88170  0.54650  1.0000 0.1403252513
H   H7        1.0  0.09400  0.97120  0.35220  1.0000 0.1189732061
H   H8        1.0  0.18290  0.09490  0.52830  1.0000 0.1292918821
H   H9        1.0  0.28530  0.01030  0.72970  1.0000 0.1403252513
H   H10       1.0  0.26750  0.09590  0.72810  1.0000 0.111116418
H   H11       1.0  0.46130  0.20570  0.66430  1.0000 0.1292918821
H   H12       1.0  0.36050  0.16230  0.58860  1.0000 0.1292918821
H   H13       1.0  0.25760  0.22320  0.71960  1.0000 0.1292918821
H   H14       1.0  0.29600  0.38240  0.81300  1.0000 0.1473627047
H   H15       1.0  0.51190  0.36170  0.76760  1.0000 0.1189732061
H   H16       1.0  0.33540  0.24860  0.06400  1.0000 0.1292918821
H   H17       1.0  0.31330  0.11170  0.92680  1.0000 0.1403252513
H   H18       1.0  0.53790  0.30730  0.95210  1.0000 0.1292918821
H   H19       1.0  0.01820  0.60500  0.85750  1.0000 0.1403252513
H   H20       1.0  0.97820  0.62680  0.95120  1.0000 0.1189732061
H   H21       1.0  0.97900  0.44400  0.75410  1.0000 0.1403252513
H   H22       1.0  0.85990  0.48050  0.97420  1.0000 0.1473627047
H   H23       1.0  0.83930  0.32490  0.91380  1.0000 0.1292918821
H   H24       1.0  0.11830  0.77730  0.95350  1.0000 0.1403252513
H   H25       1.0  0.02880  0.90600  0.14780  1.0000 0.1189732061
H   H26       1.0  0.90510  0.81710  0.97170  1.0000 0.1292918821
H   H27       1.0  0.98970  0.71470  0.77030  1.0000 0.1403252513
H   H28       1.0  0.90410  0.73250  0.77190  1.0000 0.111116418
H   H29       1.0  0.79430  0.53870  0.83570  1.0000 0.1292918821
H   H30       1.0  0.83770  0.63950  0.91140  1.0000 0.1292918821
H   H31       1.0  0.77680  0.74240  0.78040  1.0000 0.1292918821
H   H32       1.0  0.61760  0.70400  0.68700  1.0000 0.1473627047
H   H33       1.0  0.63830  0.48810  0.73240  1.0000 0.1189732061
H   H34       1.0  0.75140  0.66460  0.43600  1.0000 0.1292918821
H   H35       1.0  0.88830  0.68670  0.57320  1.0000 0.1403252513
H   H36       1.0  0.69270  0.46210  0.54790  1.0000 0.1292918821
H   H37       1.0  0.60500  0.01820  0.35750  1.0000 0.1403252513
H   H38       1.0  0.62680  0.97820  0.45120  1.0000 0.1189732061
H   H39       1.0  0.44400  0.97900  0.25410  1.0000 0.1403252513
H   H40       1.0  0.48050  0.85990  0.47420  1.0000 0.1473627047
H   H41       1.0  0.32490  0.83930  0.41380  1.0000 0.1292918821
H   H42       1.0  0.77730  0.11830  0.45350  1.0000 0.1403252513
H   H43       1.0  0.90600  0.02880  0.64780  1.0000 0.1189732061
H   H44       1.0  0.81710  0.90510  0.47170  1.0000 0.1292918821
H   H45       1.0  0.71470  0.98970  0.27030  1.0000 0.1403252513
H   H46       1.0  0.73250  0.90410  0.27190  1.0000 0.111116418
H   H47       1.0  0.53870  0.79430  0.33570  1.0000 0.1292918821
H   H48       1.0  0.63950  0.83770  0.41140  1.0000 0.1292918821
H   H49       1.0  0.74240  0.77680  0.28040  1.0000 0.1292918821
H   H50       1.0  0.70400  0.61760  0.18700  1.0000 0.1473627047
H   H51       1.0  0.48810  0.63830  0.23240  1.0000 0.1189732061
H   H52       1.0  0.66460  0.75140  0.93600  1.0000 0.1292918821
H   H53       1.0  0.68670  0.88830  0.07320  1.0000 0.1403252513
H   H54       1.0  0.46210  0.69270  0.04790  1.0000 0.1292918821
H   H55       1.0  0.98180  0.39500  0.14250  1.0000 0.1403252513
H   H56       1.0  0.02180  0.37320  0.04880  1.0000 0.1189732061
H   H57       1.0  0.02100  0.55600  0.24590  1.0000 0.1403252513
H   H58       1.0  0.14010  0.51950  0.02580  1.0000 0.1473627047
H   H59       1.0  0.16070  0.67510  0.08620  1.0000 0.1292918821
H   H60       1.0  0.88170  0.22270  0.04650  1.0000 0.1403252513
H   H61       1.0  0.97120  0.09400  0.85220  1.0000 0.1189732061
H   H62       1.0  0.09490  0.18290  0.02830  1.0000 0.1292918821
H   H63       1.0  0.01030  0.28530  0.22970  1.0000 0.1403252513
H   H64       1.0  0.09590  0.26750  0.22810  1.0000 0.111116418
H   H65       1.0  0.20570  0.46130  0.16430  1.0000 0.1292918821
H   H66       1.0  0.16230  0.36050  0.08860  1.0000 0.1292918821
H   H67       1.0  0.22320  0.25760  0.21960  1.0000 0.1292918821
H   H68       1.0  0.38240  0.29600  0.31300  1.0000 0.1473627047
H   H69       1.0  0.36170  0.51190  0.26760  1.0000 0.1189732061
H   H70       1.0  0.24860  0.33540  0.56400  1.0000 0.1292918821
H   H71       1.0  0.11170  0.31330  0.42680  1.0000 0.1403252513
H   H72       1.0  0.30730  0.53790  0.45210  1.0000 0.1292918821
C   C1        1.0  0.40990  0.03690  0.62510  1.0000 -0.1711149148
C   C2        1.0  0.56710  0.05410  0.69930  1.0000 0.1010907295
C   C3        1.0  0.54550  0.11910  0.57800  1.0000 -0.0901863675
C   C4        1.0  0.63130  0.12970  0.61180  1.0000 -0.0408773629
C   C5        1.0  0.20190  0.91990  0.51840  1.0000 0.1010907295
C   C6        1.0  0.13240  0.96800  0.41330  1.0000 -0.0454625084
C   C7        1.0  0.18080  0.03700  0.51120  1.0000 -0.1095709584
C   C8        1.0  0.28760  0.05320  0.69110  1.0000 -0.1915153532
C   C9        1.0  0.38470  0.10370  0.70270  1.0000 0.1292918821
C   C10       1.0  0.40000  0.18420  0.66510  1.0000 -0.2005796253
C   C11       1.0  0.31350  0.27070  0.74050  1.0000 -0.102995076
C   C12       1.0  0.33490  0.35870  0.79190  1.0000 -0.0255865526
C   C13       1.0  0.45310  0.34770  0.76700  1.0000 0.072760544
C   C14       1.0  0.37340  0.24280  0.02400  1.0000 -0.0408773629
C   C15       1.0  0.36070  0.16790  0.94870  1.0000 -0.0901863675
C   C16       1.0  0.48500  0.27620  0.96320  1.0000 0.111116418
C   C17       1.0  0.44900  0.12940  0.82420  1.0000 -0.2319768216
C   C18       1.0  0.52520  0.23080  0.33900  1.0000 0.504075683
C   C19       1.0  0.55440  0.25080  0.26300  1.0000 -0.2075054354
C   C20       1.0  0.59230  0.21070  0.20900  1.0000 0.0585066787
C   C21       1.0  0.62830  0.13890  0.25430  1.0000 0.56532406
C   C22       1.0  0.96310  0.59010  0.87490  1.0000 -0.1711149148
C   C23       1.0  0.94590  0.43290  0.80070  1.0000 0.1010907295
C   C24       1.0  0.88090  0.45450  0.92200  1.0000 -0.0901863675
C   C25       1.0  0.87030  0.36870  0.88820  1.0000 -0.0408773629
C   C26       1.0  0.08010  0.79810  0.98160  1.0000 0.1010907295
C   C27       1.0  0.03200  0.86760  0.08670  1.0000 -0.0454625084
C   C28       1.0  0.96300  0.81920  0.98880  1.0000 -0.1095709584
C   C29       1.0  0.94680  0.71240  0.80890  1.0000 -0.1915153532
C   C30       1.0  0.89630  0.61530  0.79730  1.0000 0.1292918821
C   C31       1.0  0.81580  0.60000  0.83490  1.0000 -0.2005796253
C   C32       1.0  0.72930  0.68650  0.75950  1.0000 -0.102995076
C   C33       1.0  0.64130  0.66510  0.70810  1.0000 -0.0255865526
C   C34       1.0  0.65230  0.54690  0.73300  1.0000 0.072760544
C   C35       1.0  0.75720  0.62660  0.47600  1.0000 -0.0408773629
C   C36       1.0  0.83210  0.63930  0.55130  1.0000 -0.0901863675
C   C37       1.0  0.72380  0.51500  0.53680  1.0000 0.111116418
C   C38       1.0  0.87060  0.55100  0.67580  1.0000 -0.2319768216
C   C39       1.0  0.76920  0.47480  0.16100  1.0000 0.504075683
C   C40       1.0  0.74920  0.44560  0.23700  1.0000 -0.2075054354
C   C41       1.0  0.78930  0.40770  0.29100  1.0000 0.0585066787
C   C42       1.0  0.86110  0.37170  0.24570  1.0000 0.56532406
C   C43       1.0  0.59010  0.96310  0.37490  1.0000 -0.1711149148
C   C44       1.0  0.43290  0.94590  0.30070  1.0000 0.1010907295
C   C45       1.0  0.45450  0.88090  0.42200  1.0000 -0.0901863675
C   C46       1.0  0.36870  0.87030  0.38820  1.0000 -0.0408773629
C   C47       1.0  0.79810  0.08010  0.48160  1.0000 0.1010907295
C   C48       1.0  0.86760  0.03200  0.58670  1.0000 -0.0454625084
C   C49       1.0  0.81920  0.96300  0.48880  1.0000 -0.1095709584
C   C50       1.0  0.71240  0.94680  0.30890  1.0000 -0.1915153532
C   C51       1.0  0.61530  0.89630  0.29730  1.0000 0.1292918821
C   C52       1.0  0.60000  0.81580  0.33490  1.0000 -0.2005796253
C   C53       1.0  0.68650  0.72930  0.25950  1.0000 -0.102995076
C   C54       1.0  0.66510  0.64130  0.20810  1.0000 -0.0255865526
C   C55       1.0  0.54690  0.65230  0.23300  1.0000 0.072760544
C   C56       1.0  0.62660  0.75720  0.97600  1.0000 -0.0408773629
C   C57       1.0  0.63930  0.83210  0.05130  1.0000 -0.0901863675
C   C58       1.0  0.51500  0.72380  0.03680  1.0000 0.111116418
C   C59       1.0  0.55100  0.87060  0.17580  1.0000 -0.237248712
C   C60       1.0  0.47480  0.76920  0.66100  1.0000 0.504075683
C   C61       1.0  0.44560  0.74920  0.73700  1.0000 -0.2075054354
C   C62       1.0  0.40770  0.78930  0.79100  1.0000 0.0585066787
C   C63       1.0  0.37170  0.86110  0.74570  1.0000 0.56532406
C   C64       1.0  0.03690  0.40990  0.12510  1.0000 -0.1711149148
C   C65       1.0  0.05410  0.56710  0.19930  1.0000 0.1010907295
C   C66       1.0  0.11910  0.54550  0.07800  1.0000 -0.0901863675
C   C67       1.0  0.12970  0.63130  0.11180  1.0000 -0.0408773629
C   C68       1.0  0.91990  0.20190  0.01840  1.0000 0.1010907295
C   C69       1.0  0.96800  0.13240  0.91330  1.0000 -0.0454625084
C   C70       1.0  0.03700  0.18080  0.01120  1.0000 -0.1095709584
C   C71       1.0  0.05320  0.28760  0.19110  1.0000 -0.1915153532
C   C72       1.0  0.10370  0.38470  0.20270  1.0000 0.1292918821
C   C73       1.0  0.18420  0.40000  0.16510  1.0000 -0.2005796253
C   C74       1.0  0.27070  0.31350  0.24050  1.0000 -0.102995076
C   C75       1.0  0.35870  0.33490  0.29190  1.0000 -0.0255865526
C   C76       1.0  0.34770  0.45310  0.26700  1.0000 0.072760544
C   C77       1.0  0.24280  0.37340  0.52400  1.0000 -0.0408773629
C   C78       1.0  0.16790  0.36070  0.44870  1.0000 -0.0901863675
C   C79       1.0  0.27620  0.48500  0.46320  1.0000 0.111116418
C   C80       1.0  0.12940  0.44900  0.32420  1.0000 -0.2319768216
C   C81       1.0  0.23080  0.52520  0.83900  1.0000 0.504075683
C   C82       1.0  0.25080  0.55440  0.76300  1.0000 -0.2075054354
C   C83       1.0  0.21070  0.59230  0.70900  1.0000 0.0585066787
C   C84       1.0  0.13890  0.62830  0.75430  1.0000 0.56532406
N   N1        1.0  0.50420  0.07180  0.63430  1.0000 0.0585066787
N   N2        1.0  0.64620  0.08980  0.68780  1.0000 -0.2207927245
N   N3        1.0  0.14750  0.89390  0.41660  1.0000 -0.2319768216
N   N4        1.0  0.22530  0.00530  0.57870  1.0000 0.0496116833
N   N5        1.0  0.38810  0.26450  0.72500  1.0000 0.0585066787
N   N6        1.0  0.42400  0.40740  0.80760  1.0000 -0.2207927245
N   N7        1.0  0.45060  0.31000  0.03360  1.0000 -0.1786125011
N   N8        1.0  0.42920  0.18840  0.91010  1.0000 0.0813077496
N   N9        1.0  0.92820  0.49580  0.86570  1.0000 0.0585066787
N   N10       1.0  0.91020  0.35380  0.81220  1.0000 -0.2207927245
N   N11       1.0  0.10610  0.85250  0.08340  1.0000 -0.2319768216
N   N12       1.0  0.99470  0.77470  0.92130  1.0000 0.0496116833
N   N13       1.0  0.73550  0.61190  0.77500  1.0000 0.0585066787
N   N14       1.0  0.59260  0.57600  0.69240  1.0000 -0.2207927245
N   N15       1.0  0.69000  0.54940  0.46640  1.0000 -0.1786125011
N   N16       1.0  0.81160  0.57080  0.58990  1.0000 0.0813077496
N   N17       1.0  0.49580  0.92820  0.36570  1.0000 0.0585066787
N   N18       1.0  0.35380  0.91020  0.31220  1.0000 -0.2207927245
N   N19       1.0  0.85250  0.10610  0.58340  1.0000 -0.2319768216
N   N20       1.0  0.77470  0.99470  0.42130  1.0000 0.0496116833
N   N21       1.0  0.61190  0.73550  0.27500  1.0000 0.0585066787
N   N22       1.0  0.57600  0.59260  0.19240  1.0000 -0.2207927245
N   N23       1.0  0.54940  0.69000  0.96640  1.0000 -0.1786125011
N   N24       1.0  0.57080  0.81160  0.08990  1.0000 0.0813077496
N   N25       1.0  0.07180  0.50420  0.13430  1.0000 0.0585066787
N   N26       1.0  0.08980  0.64620  0.18780  1.0000 -0.2207927245
N   N27       1.0  0.89390  0.14750  0.91660  1.0000 -0.2319768216
N   N28       1.0  0.00530  0.22530  0.07870  1.0000 0.0496116833
N   N29       1.0  0.26450  0.38810  0.22500  1.0000 0.0585066787
N   N30       1.0  0.40740  0.42400  0.30760  1.0000 -0.2207927245
N   N31       1.0  0.31000  0.45060  0.53360  1.0000 -0.1786125011
N   N32       1.0  0.18840  0.42920  0.41010  1.0000 0.0813077496
O   O1        1.0  0.56260  0.30980  0.43790  1.0000 -0.6297045431
O   O2        1.0  0.45630  0.17170  0.34990  1.0000 -0.5678800277
O   O3        1.0  0.65640  0.16320  0.35720  1.0000 -0.5927698693
O   O4        1.0  0.57880  0.06320  0.17600  1.0000 -0.6297045431
O   O5        1.0  0.69020  0.43740  0.06210  1.0000 -0.6297045431
O   O6        1.0  0.82830  0.54370  0.15010  1.0000 -0.5678800277
O   O7        1.0  0.83680  0.34360  0.14280  1.0000 -0.5927698693
O   O8        1.0  0.93680  0.42120  0.32400  1.0000 -0.6297045431
O   O9        1.0  0.43740  0.69020  0.56210  1.0000 -0.6297045431
O   O10       1.0  0.54370  0.82830  0.65010  1.0000 -0.5678800277
O   O11       1.0  0.34360  0.83680  0.64280  1.0000 -0.5927698693
O   O12       1.0  0.42120  0.93680  0.82400  1.0000 -0.6297045431
O   O13       1.0  0.30980  0.56260  0.93790  1.0000 -0.6297045431
O   O14       1.0  0.17170  0.45630  0.84990  1.0000 -0.5678800277
O   O15       1.0  0.16320  0.65640  0.85720  1.0000 -0.5927698693
O   O16       1.0  0.06320  0.57880  0.67600  1.0000 -0.6297045431
