# DDEC6 charges by PACMAN v1.1 (https://github.com/mtap-research/PACMAN-charge/)
data_2011[Zn][pts]3[ION]1
_chemical_formula_sum              "Zn8 H240 C176 N24 O64"
_cell_length_a       21.8004
_cell_length_b       21.8004
_cell_length_c       21.8004
_cell_angle_alpha    117.967
_cell_angle_beta     117.967
_cell_angle_gamma    93.5597

_symmetry_space_group_name_H-M    "P 1"
_symmetry_Int_Tables_number       1

loop_
  _symmetry_equiv_pos_as_xyz
  'x, y, z'

loop_
  _atom_site_type_symbol
  _atom_site_label
  _atom_site_symmetry_multiplicity
  _atom_site_fract_x
  _atom_site_fract_y
  _atom_site_fract_z
  _atom_site_occupancy
  _atom_site_charge
Zn  Zn1       1.0  0.22588  0.68662  0.92036  1.0000 0.8985851528
Zn  Zn2       1.0  0.76626  0.30552  0.07964  1.0000 0.8985851528
Zn  Zn3       1.0  0.31338  0.23374  0.53926  1.0000 0.8985851528
Zn  Zn4       1.0  0.69448  0.77412  0.46074  1.0000 0.8985851528
Zn  Zn5       1.0  0.98374  0.56338  0.03926  1.0000 0.8985851528
Zn  Zn6       1.0  0.52412  0.94448  0.96074  1.0000 0.8985851528
Zn  Zn7       1.0  0.05552  0.01626  0.57964  1.0000 0.8985851528
Zn  Zn8       1.0  0.43662  0.47588  0.42036  1.0000 0.8985851528
H   H1        1.0  0.94070  0.65410  0.72000  1.0000 0.1132588553
H   H2        1.0  0.93410  0.22070  0.28000  1.0000 0.1132588553
H   H3        1.0  0.34590  0.06590  0.28660  1.0000 0.1132588553
H   H4        1.0  0.77930  0.05930  0.71340  1.0000 0.1132588553
H   H5        1.0  0.81590  0.59590  0.78660  1.0000 0.1132588553
H   H6        1.0  0.80930  0.02930  0.21340  1.0000 0.1132588553
H   H7        1.0  0.97070  0.18410  0.78000  1.0000 0.1132588553
H   H8        1.0  0.40410  0.19070  0.22000  1.0000 0.1132588553
H   H9        1.0  0.85360  0.71130  0.68350  1.0000 0.1167623971
H   H10       1.0  0.02780  0.17010  0.31650  1.0000 0.1167623971
H   H11       1.0  0.28870  0.97220  0.14230  1.0000 0.1167623971
H   H12       1.0  0.82990  0.14640  0.85770  1.0000 0.1167623971
H   H13       1.0  0.72220  0.53870  0.64230  1.0000 0.1167623971
H   H14       1.0  0.89640  0.07990  0.35770  1.0000 0.1167623971
H   H15       1.0  0.92010  0.27780  0.81650  1.0000 0.1167623971
H   H16       1.0  0.46130  0.10360  0.18350  1.0000 0.1167623971
H   H17       1.0  0.03240  0.62500  0.90740  1.0000 0.1167623971
H   H18       1.0  0.71760  0.12500  0.09260  1.0000 0.1167623971
H   H19       1.0  0.37500  0.28240  0.40740  1.0000 0.1167623971
H   H20       1.0  0.87500  0.96760  0.59260  1.0000 0.1167623971
H   H21       1.0  0.63460  0.62500  0.50960  1.0000 0.1322184786
H   H22       1.0  0.11540  0.12500  0.49040  1.0000 0.1322184786
H   H23       1.0  0.37500  0.88460  0.00960  1.0000 0.1322184786
H   H24       1.0  0.87500  0.36540  0.99040  1.0000 0.1322184786
H   H25       1.0  0.24060  0.43690  0.72530  1.0000 0.1167623971
H   H26       1.0  0.71160  0.51530  0.27470  1.0000 0.1132588553
H   H27       1.0  0.56310  0.28840  0.80370  1.0000 0.1167623971
H   H28       1.0  0.48470  0.75940  0.19630  1.0000 0.1167623971
H   H29       1.0  0.03840  0.81310  0.30370  1.0000 0.1167623971
H   H30       1.0  0.50940  0.73470  0.69630  1.0000 0.1167623971
H   H31       1.0  0.26530  0.96160  0.77470  1.0000 0.1167623971
H   H32       1.0  0.18690  0.49060  0.22530  1.0000 0.1167623971
H   H33       1.0  0.37080  0.47000  0.65380  1.0000 0.1132588553
H   H34       1.0  0.81620  0.71700  0.34620  1.0000 0.1132588553
H   H35       1.0  0.53000  0.18380  0.90080  1.0000 0.1132588553
H   H36       1.0  0.28300  0.62920  0.09920  1.0000 0.1132588553
H   H37       1.0  0.93380  0.78000  0.40080  1.0000 0.1132588553
H   H38       1.0  0.37920  0.53300  0.59920  1.0000 0.1132588553
H   H39       1.0  0.46700  0.06620  0.84620  1.0000 0.1132588553
H   H40       1.0  0.22000  0.62080  0.15380  1.0000 0.1132588553
H   H41       1.0  0.32010  0.63600  0.77430  1.0000 0.1132588553
H   H42       1.0  0.86170  0.54580  0.22570  1.0000 0.1132588553
H   H43       1.0  0.36400  0.13830  0.68410  1.0000 0.1132588553
H   H44       1.0  0.45420  0.67990  0.31590  1.0000 0.1132588553
H   H45       1.0  0.88830  0.61400  0.18410  1.0000 0.1132588553
H   H46       1.0  0.42990  0.70420  0.81590  1.0000 0.1132588553
H   H47       1.0  0.29580  0.11170  0.72570  1.0000 0.1132588553
H   H48       1.0  0.38600  0.57010  0.27430  1.0000 0.1132588553
H   H49       1.0  0.47920  0.47750  0.62650  1.0000 0.1167623971
H   H50       1.0  0.45690  0.41200  0.53770  1.0000 0.1381974701
H   H51       1.0  0.44070  0.39500  0.59210  1.0000 0.1322184786
H   H52       1.0  0.58530  0.33280  0.60130  1.0000 0.1132588553
H   H53       1.0  0.50330  0.30870  0.57560  1.0000 0.1322184786
H   H54       1.0  0.52050  0.32730  0.52280  1.0000 0.1322184786
H   H55       1.0  0.58300  0.45070  0.63690  1.0000 0.2683400695
H   H56       1.0  0.56720  0.43330  0.68630  1.0000 0.2589744164
H   H57       1.0  0.85100  0.85270  0.37350  1.0000 0.1167623971
H   H58       1.0  0.87430  0.91920  0.46230  1.0000 0.1381974701
H   H59       1.0  0.80290  0.84860  0.40790  1.0000 0.1322184786
H   H60       1.0  0.73150  0.98400  0.39870  1.0000 0.1132588553
H   H61       1.0  0.73310  0.92770  0.42440  1.0000 0.1322184786
H   H62       1.0  0.80450  0.99770  0.47720  1.0000 0.1322184786
H   H63       1.0  0.81380  0.94610  0.36310  1.0000 0.2683400695
H   H64       1.0  0.74700  0.88090  0.31370  1.0000 0.2589744164
H   H65       1.0  0.52250  0.14900  0.00170  1.0000 0.1167623971
H   H66       1.0  0.58800  0.12570  0.04490  1.0000 0.1381974701
H   H67       1.0  0.60500  0.19710  0.04570  1.0000 0.1322184786
H   H68       1.0  0.66720  0.26850  0.25250  1.0000 0.1132588553
H   H69       1.0  0.69130  0.26690  0.19460  1.0000 0.1322184786
H   H70       1.0  0.67270  0.19550  0.19320  1.0000 0.1322184786
H   H71       1.0  0.54930  0.18620  0.13230  1.0000 0.2683400695
H   H72       1.0  0.56670  0.25300  0.13390  1.0000 0.2589744164
H   H73       1.0  0.14730  0.52080  0.99830  1.0000 0.1167623971
H   H74       1.0  0.08080  0.54310  0.95510  1.0000 0.1381974701
H   H75       1.0  0.15140  0.55930  0.95430  1.0000 0.1322184786
H   H76       1.0  0.01600  0.41470  0.74750  1.0000 0.1132588553
H   H77       1.0  0.07230  0.49670  0.80540  1.0000 0.1322184786
H   H78       1.0  0.00230  0.47950  0.80680  1.0000 0.1322184786
H   H79       1.0  0.05390  0.41700  0.86770  1.0000 0.2683400695
H   H80       1.0  0.11910  0.43280  0.86610  1.0000 0.2589744164
H   H81       1.0  0.89900  0.77250  0.50170  1.0000 0.1167623971
H   H82       1.0  0.87570  0.83800  0.54490  1.0000 0.1381974701
H   H83       1.0  0.94710  0.85500  0.54570  1.0000 0.1322184786
H   H84       1.0  0.01850  0.91720  0.75250  1.0000 0.1132588553
H   H85       1.0  0.01690  0.94130  0.69460  1.0000 0.1322184786
H   H86       1.0  0.94550  0.92270  0.69320  1.0000 0.1322184786
H   H87       1.0  0.93620  0.79930  0.63230  1.0000 0.2683400695
H   H88       1.0  0.00300  0.81670  0.63390  1.0000 0.2589744164
H   H89       1.0  0.27080  0.39730  0.49830  1.0000 0.1167623971
H   H90       1.0  0.29310  0.33080  0.45510  1.0000 0.1381974701
H   H91       1.0  0.30930  0.40140  0.45430  1.0000 0.1322184786
H   H92       1.0  0.16470  0.26600  0.24750  1.0000 0.1132588553
H   H93       1.0  0.24670  0.32230  0.30540  1.0000 0.1322184786
H   H94       1.0  0.22950  0.25230  0.30680  1.0000 0.1322184786
H   H95       1.0  0.16700  0.30390  0.36770  1.0000 0.2683400695
H   H96       1.0  0.18280  0.36910  0.36610  1.0000 0.2589744164
H   H97       1.0  0.60270  0.10100  0.87350  1.0000 0.1167623971
H   H98       1.0  0.66920  0.12430  0.96230  1.0000 0.1381974701
H   H99       1.0  0.59860  0.05290  0.90790  1.0000 0.1322184786
H   H100      1.0  0.73400  0.98150  0.89870  1.0000 0.1132588553
H   H101      1.0  0.67770  0.98310  0.92440  1.0000 0.1322184786
H   H102      1.0  0.74770  0.05450  0.97720  1.0000 0.1322184786
H   H103      1.0  0.69610  0.06380  0.86310  1.0000 0.2683400695
H   H104      1.0  0.63090  0.99700  0.81370  1.0000 0.2589744164
H   H105      1.0  0.22750  0.72920  0.12650  1.0000 0.1167623971
H   H106      1.0  0.16200  0.70690  0.03770  1.0000 0.1381974701
H   H107      1.0  0.14500  0.69070  0.09210  1.0000 0.1322184786
H   H108      1.0  0.08280  0.83530  0.10130  1.0000 0.1132588553
H   H109      1.0  0.05870  0.75330  0.07560  1.0000 0.1322184786
H   H110      1.0  0.07730  0.77050  0.02280  1.0000 0.1322184786
H   H111      1.0  0.20070  0.83300  0.13690  1.0000 0.2683400695
H   H112      1.0  0.18330  0.81720  0.18630  1.0000 0.2589744164
H   H113      1.0  0.18380  0.34440  0.11040  1.0000 0.2589744164
H   H114      1.0  0.15320  0.26980  0.03460  1.0000 0.2336765127
H   H115      1.0  0.19290  0.35460  0.01250  1.0000 0.1322184786
H   H116      1.0  0.27280  0.38470  0.09310  1.0000 0.1322184786
H   H117      1.0  0.24120  0.30430  0.01250  1.0000 0.1132588553
H   H118      1.0  0.23210  0.26630  0.15040  1.0000 0.1381974701
H   H119      1.0  0.26540  0.25070  0.09690  1.0000 0.1167623971
H   H120      1.0  0.29700  0.33020  0.17860  1.0000 0.1381974701
H   H121      1.0  0.23400  0.07340  0.88960  1.0000 0.2546553286
H   H122      1.0  0.23520  0.11860  0.96540  1.0000 0.2336765127
H   H123      1.0  0.34210  0.18040  0.98750  1.0000 0.1322184786
H   H124      1.0  0.29160  0.17970  0.90690  1.0000 0.1322184786
H   H125      1.0  0.29180  0.22870  0.98750  1.0000 0.1132588553
H   H126      1.0  0.11590  0.08170  0.84960  1.0000 0.1322184786
H   H127      1.0  0.15380  0.16850  0.90310  1.0000 0.1132588553
H   H128      1.0  0.15160  0.11840  0.82140  1.0000 0.1381974701
H   H129      1.0  0.65560  0.76600  0.83940  1.0000 0.2589744164
H   H130      1.0  0.73020  0.76480  0.88340  1.0000 0.2336765127
H   H131      1.0  0.64540  0.65790  0.83830  1.0000 0.1322184786
H   H132      1.0  0.61530  0.70840  0.88810  1.0000 0.1322184786
H   H133      1.0  0.69570  0.70820  0.93690  1.0000 0.1132588553
H   H134      1.0  0.73370  0.88410  0.96580  1.0000 0.1381974701
H   H135      1.0  0.74930  0.84620  0.01470  1.0000 0.1167623971
H   H136      1.0  0.66980  0.84840  0.96680  1.0000 0.1381974701
H   H137      1.0  0.92660  0.81620  0.16060  1.0000 0.2589744164
H   H138      1.0  0.88140  0.84680  0.11660  1.0000 0.2336765127
H   H139      1.0  0.81960  0.80710  0.16170  1.0000 0.1322184786
H   H140      1.0  0.82030  0.72720  0.11190  1.0000 0.1322184786
H   H141      1.0  0.77130  0.75880  0.06310  1.0000 0.1132588553
H   H142      1.0  0.91830  0.76790  0.03420  1.0000 0.1381974701
H   H143      1.0  0.83150  0.73460  0.98530  1.0000 0.1167623971
H   H144      1.0  0.88160  0.70300  0.03320  1.0000 0.1381974701
H   H145      1.0  0.51600  0.90560  0.33940  1.0000 0.2589744164
H   H146      1.0  0.51480  0.98020  0.38340  1.0000 0.2336765127
H   H147      1.0  0.40790  0.89540  0.33830  1.0000 0.1322184786
H   H148      1.0  0.45840  0.86530  0.38810  1.0000 0.1322184786
H   H149      1.0  0.45820  0.94570  0.43690  1.0000 0.1132588553
H   H150      1.0  0.63410  0.98370  0.46580  1.0000 0.1381974701
H   H151      1.0  0.59620  0.99930  0.51470  1.0000 0.1167623971
H   H152      1.0  0.59840  0.91980  0.46680  1.0000 0.1381974701
H   H153      1.0  0.56620  0.17660  0.66060  1.0000 0.2546553286
H   H154      1.0  0.59680  0.13140  0.61660  1.0000 0.2336765127
H   H155      1.0  0.55710  0.06960  0.66170  1.0000 0.1322184786
H   H156      1.0  0.47720  0.07030  0.61190  1.0000 0.1322184786
H   H157      1.0  0.50880  0.02130  0.56310  1.0000 0.1132588553
H   H158      1.0  0.51790  0.16830  0.53420  1.0000 0.1381974701
H   H159      1.0  0.48460  0.08150  0.48530  1.0000 0.1132588553
H   H160      1.0  0.45300  0.13160  0.53320  1.0000 0.1381974701
H   H161      1.0  0.82340  0.48400  0.38960  1.0000 0.2546553286
H   H162      1.0  0.86860  0.48520  0.46540  1.0000 0.2336765127
H   H163      1.0  0.93040  0.59210  0.48750  1.0000 0.1322184786
H   H164      1.0  0.92970  0.54160  0.40690  1.0000 0.1322184786
H   H165      1.0  0.97870  0.54180  0.48750  1.0000 0.1132588553
H   H166      1.0  0.83170  0.36590  0.34960  1.0000 0.1381974701
H   H167      1.0  0.91850  0.40380  0.40310  1.0000 0.1167623971
H   H168      1.0  0.86840  0.40160  0.32140  1.0000 0.1381974701
H   H169      1.0  0.09440  0.43380  0.61040  1.0000 0.2589744164
H   H170      1.0  0.01980  0.40320  0.53460  1.0000 0.2336765127
H   H171      1.0  0.10460  0.44290  0.51250  1.0000 0.1322184786
H   H172      1.0  0.13470  0.52280  0.59310  1.0000 0.1322184786
H   H173      1.0  0.05430  0.49120  0.51250  1.0000 0.1132588553
H   H174      1.0  0.01630  0.48210  0.65040  1.0000 0.1381974701
H   H175      1.0  0.00070  0.51540  0.59690  1.0000 0.1167623971
H   H176      1.0  0.08020  0.54700  0.67860  1.0000 0.1381974701
H   H177      1.0  0.50740  0.49070  0.31590  1.0000 0.2683400695
H   H178      1.0  0.48730  0.42000  0.30570  1.0000 0.2683400695
H   H179      1.0  0.61520  0.47010  0.38170  1.0000 0.1381974701
H   H180      1.0  0.58570  0.39600  0.29510  1.0000 0.1167623971
H   H181      1.0  0.60770  0.47300  0.30810  1.0000 0.1381974701
H   H182      1.0  0.40770  0.40560  0.18110  1.0000 0.1132588553
H   H183      1.0  0.47640  0.43080  0.18080  1.0000 0.1322184786
H   H184      1.0  0.45470  0.35480  0.16990  1.0000 0.1132588553
H   H185      1.0  0.17480  0.19150  0.68410  1.0000 0.2683400695
H   H186      1.0  0.11430  0.18160  0.69430  1.0000 0.2683400695
H   H187      1.0  0.08840  0.23350  0.61830  1.0000 0.1381974701
H   H188      1.0  0.10090  0.29060  0.70490  1.0000 0.1167623971
H   H189      1.0  0.16490  0.29960  0.69190  1.0000 0.1322184786
H   H190      1.0  0.22450  0.22660  0.81890  1.0000 0.1132588553
H   H191      1.0  0.25000  0.29560  0.81920  1.0000 0.1322184786
H   H192      1.0  0.18490  0.28480  0.83010  1.0000 0.1132588553
H   H193      1.0  0.50930  0.82520  0.01670  1.0000 0.2683400695
H   H194      1.0  0.58000  0.88570  0.06730  1.0000 0.2683400695
H   H195      1.0  0.52990  0.91160  0.14510  1.0000 0.1381974701
H   H196      1.0  0.60400  0.89910  0.18970  1.0000 0.1167623971
H   H197      1.0  0.52700  0.83510  0.13470  1.0000 0.1381974701
H   H198      1.0  0.59440  0.77550  0.00210  1.0000 0.1132588553
H   H199      1.0  0.56920  0.75000  0.04560  1.0000 0.1322184786
H   H200      1.0  0.64520  0.81510  0.09990  1.0000 0.1132588553
H   H201      1.0  0.80850  0.49260  0.98330  1.0000 0.2683400695
H   H202      1.0  0.81840  0.51270  0.93270  1.0000 0.2683400695
H   H203      1.0  0.76650  0.38480  0.85490  1.0000 0.1381974701
H   H204      1.0  0.70940  0.41430  0.81030  1.0000 0.1167623971
H   H205      1.0  0.70040  0.39230  0.86530  1.0000 0.1322184786
H   H206      1.0  0.77340  0.59230  0.99790  1.0000 0.1132588553
H   H207      1.0  0.70440  0.52360  0.95440  1.0000 0.1322184786
H   H208      1.0  0.71520  0.54530  0.90010  1.0000 0.1132588553
H   H209      1.0  0.57520  0.75930  0.51670  1.0000 0.2683400695
H   H210      1.0  0.63570  0.83000  0.56730  1.0000 0.2683400695
H   H211      1.0  0.66160  0.77990  0.64510  1.0000 0.1381974701
H   H212      1.0  0.64910  0.85400  0.68970  1.0000 0.1167623971
H   H213      1.0  0.58510  0.77700  0.63470  1.0000 0.1322184786
H   H214      1.0  0.52550  0.84440  0.50210  1.0000 0.1132588553
H   H215      1.0  0.50000  0.81920  0.54560  1.0000 0.1322184786
H   H216      1.0  0.56510  0.89520  0.59990  1.0000 0.1132588553
H   H217      1.0  0.24260  0.05850  0.48330  1.0000 0.2683400695
H   H218      1.0  0.26270  0.06840  0.43270  1.0000 0.2683400695
H   H219      1.0  0.13480  0.01650  0.35490  1.0000 0.1381974701
H   H220      1.0  0.16430  0.95940  0.31030  1.0000 0.1167623971
H   H221      1.0  0.14230  0.95040  0.36530  1.0000 0.1322184786
H   H222      1.0  0.34230  0.02340  0.49790  1.0000 0.1132588553
H   H223      1.0  0.27360  0.95440  0.45440  1.0000 0.1322184786
H   H224      1.0  0.29530  0.96520  0.40010  1.0000 0.1132588553
H   H225      1.0  0.94150  0.42480  0.18410  1.0000 0.2683400695
H   H226      1.0  0.93160  0.36430  0.19430  1.0000 0.2683400695
H   H227      1.0  0.98350  0.33840  0.11830  1.0000 0.1381974701
H   H228      1.0  0.04060  0.35090  0.20490  1.0000 0.1167623971
H   H229      1.0  0.04960  0.41490  0.19190  1.0000 0.1322184786
H   H230      1.0  0.97660  0.47450  0.31890  1.0000 0.1132588553
H   H231      1.0  0.04560  0.50000  0.31920  1.0000 0.1322184786
H   H232      1.0  0.03480  0.43490  0.33010  1.0000 0.1132588553
H   H233      1.0  0.24070  0.75740  0.81590  1.0000 0.2683400695
H   H234      1.0  0.17000  0.73730  0.80570  1.0000 0.2683400695
H   H235      1.0  0.22010  0.86520  0.88170  1.0000 0.1381974701
H   H236      1.0  0.14600  0.83570  0.79510  1.0000 0.1167623971
H   H237      1.0  0.22300  0.85770  0.80810  1.0000 0.1381974701
H   H238      1.0  0.15560  0.65770  0.68110  1.0000 0.1132588553
H   H239      1.0  0.18080  0.72640  0.68080  1.0000 0.1322184786
H   H240      1.0  0.10480  0.70470  0.66990  1.0000 0.1132588553
C   C1        1.0  0.07240  0.66400  0.82980  1.0000 0.5551594766
C   C2        1.0  0.83420  0.24260  0.17020  1.0000 0.5551594766
C   C3        1.0  0.33600  0.16580  0.40840  1.0000 0.5551594766
C   C4        1.0  0.75740  0.92760  0.59160  1.0000 0.5551594766
C   C5        1.0  0.91580  0.58600  0.90840  1.0000 0.5551594766
C   C6        1.0  0.67760  0.00740  0.09160  1.0000 0.5510833798
C   C7        1.0  0.99260  0.08420  0.67020  1.0000 0.5551594766
C   C8        1.0  0.41400  0.32240  0.32980  1.0000 0.5551594766
C   C9        1.0  0.99690  0.64510  0.81640  1.0000 -0.0262307719
C   C10       1.0  0.82870  0.18050  0.18360  1.0000 -0.0262307719
C   C11       1.0  0.35490  0.17130  0.35180  1.0000 -0.0262307719
C   C12       1.0  0.81950  0.00310  0.64820  1.0000 -0.0262307719
C   C13       1.0  0.92130  0.60490  0.85180  1.0000 -0.0262307719
C   C14       1.0  0.75310  0.06950  0.14820  1.0000 -0.0262307719
C   C15       1.0  0.93050  0.07870  0.68360  1.0000 -0.0262307719
C   C16       1.0  0.39510  0.24690  0.31640  1.0000 -0.0262307719
C   C17       1.0  0.93610  0.64320  0.75450  1.0000 -0.1493566809
C   C18       1.0  0.88870  0.18160  0.24550  1.0000 -0.1493566809
C   C19       1.0  0.35680  0.11130  0.29290  1.0000 -0.1493566809
C   C20       1.0  0.81840  0.06390  0.70710  1.0000 -0.1493566809
C   C21       1.0  0.86130  0.60680  0.79290  1.0000 -0.1493566809
C   C22       1.0  0.81390  0.06840  0.20710  1.0000 -0.1493566809
C   C23       1.0  0.93160  0.13870  0.74550  1.0000 -0.1493566809
C   C24       1.0  0.39320  0.18610  0.25450  1.0000 -0.1493566809
C   C25       1.0  0.86680  0.62500  0.74180  1.0000 0.0578409452
C   C26       1.0  0.88320  0.12500  0.25820  1.0000 0.0578409452
C   C27       1.0  0.37500  0.11680  0.24180  1.0000 0.0578409452
C   C28       1.0  0.87500  0.13320  0.75820  1.0000 0.0578409452
C   C29       1.0  0.80120  0.62500  0.67620  1.0000 0.0578409452
C   C30       1.0  0.94880  0.12500  0.32380  1.0000 0.0578409452
C   C31       1.0  0.37500  0.05120  0.17620  1.0000 0.0578409452
C   C32       1.0  0.87500  0.19880  0.82380  1.0000 0.0578409452
C   C33       1.0  0.80710  0.67580  0.65430  1.0000 -0.1615554793
C   C34       1.0  0.02150  0.15280  0.34570  1.0000 -0.1615554793
C   C35       1.0  0.32420  0.97850  0.13130  1.0000 -0.1615554793
C   C36       1.0  0.84720  0.19290  0.86870  1.0000 -0.1615554793
C   C37       1.0  0.72850  0.57420  0.63130  1.0000 -0.1615554793
C   C38       1.0  0.94290  0.09720  0.36870  1.0000 -0.1615554793
C   C39       1.0  0.90280  0.27150  0.84570  1.0000 -0.1615554793
C   C40       1.0  0.42580  0.05710  0.15430  1.0000 -0.1615554793
C   C41       1.0  0.74710  0.67430  0.59220  1.0000 -0.0202553896
C   C42       1.0  0.08210  0.15490  0.40780  1.0000 -0.0202553896
C   C43       1.0  0.32570  0.91790  0.07280  1.0000 -0.0202553896
C   C44       1.0  0.84510  0.25290  0.92720  1.0000 -0.0202553896
C   C45       1.0  0.66790  0.57570  0.57280  1.0000 -0.0202553896
C   C46       1.0  0.00290  0.09510  0.42720  1.0000 -0.0202553896
C   C47       1.0  0.90490  0.33210  0.90780  1.0000 -0.0202553896
C   C48       1.0  0.42430  0.99710  0.09220  1.0000 -0.0202553896
C   C49       1.0  0.75520  0.72820  0.56900  1.0000 0.5551594766
C   C50       1.0  0.15920  0.18620  0.43100  1.0000 0.5551594766
C   C51       1.0  0.27180  0.84080  0.02700  1.0000 0.5551594766
C   C52       1.0  0.81380  0.24480  0.97300  1.0000 0.5551594766
C   C53       1.0  0.59080  0.52180  0.52700  1.0000 0.5551594766
C   C54       1.0  0.99480  0.06380  0.47300  1.0000 0.5551594766
C   C55       1.0  0.93620  0.40920  0.93100  1.0000 0.5551594766
C   C56       1.0  0.47820  0.00520  0.06900  1.0000 0.5551594766
C   C57       1.0  0.99100  0.62500  0.86600  1.0000 -0.1374229717
C   C58       1.0  0.75900  0.12500  0.13400  1.0000 -0.1374229717
C   C59       1.0  0.37500  0.24100  0.36600  1.0000 -0.1374229717
C   C60       1.0  0.87500  0.00900  0.63400  1.0000 -0.1374229717
C   C61       1.0  0.67600  0.62500  0.55100  1.0000 -0.125544521
C   C62       1.0  0.07400  0.12500  0.44900  1.0000 -0.1248825071
C   C63       1.0  0.37500  0.92600  0.05100  1.0000 -0.125544521
C   C64       1.0  0.87500  0.32400  0.94900  1.0000 -0.1248825071
C   C65       1.0  0.27090  0.54030  0.75380  1.0000 -0.0202553896
C   C66       1.0  0.78650  0.51710  0.24620  1.0000 -0.0202553896
C   C67       1.0  0.45970  0.21350  0.73060  1.0000 -0.0202553896
C   C68       1.0  0.48290  0.72910  0.26940  1.0000 -0.0202553896
C   C69       1.0  0.96350  0.70970  0.23060  1.0000 -0.0202553896
C   C70       1.0  0.47910  0.73290  0.76940  1.0000 -0.0202553896
C   C71       1.0  0.26710  0.03650  0.74620  1.0000 -0.0202553896
C   C72       1.0  0.29030  0.52090  0.25380  1.0000 -0.0202553896
C   C73       1.0  0.26690  0.46760  0.72050  1.0000 -0.1374229717
C   C74       1.0  0.74710  0.54640  0.27950  1.0000 -0.1374229717
C   C75       1.0  0.53240  0.25290  0.79930  1.0000 -0.1374229717
C   C76       1.0  0.45360  0.73310  0.20070  1.0000 -0.1374229717
C   C77       1.0  0.00290  0.78240  0.29930  1.0000 -0.1374229717
C   C78       1.0  0.48310  0.70360  0.70070  1.0000 -0.1374229717
C   C79       1.0  0.29640  0.99710  0.77950  1.0000 -0.1374229717
C   C80       1.0  0.21760  0.51690  0.22050  1.0000 -0.1374229717
C   C81       1.0  0.30160  0.43990  0.68030  1.0000 -0.0262307719
C   C82       1.0  0.75960  0.62130  0.31970  1.0000 -0.0262307719
C   C83       1.0  0.56010  0.24040  0.86170  1.0000 -0.0262307719
C   C84       1.0  0.37870  0.69840  0.13830  1.0000 -0.0262307719
C   C85       1.0  0.99040  0.81010  0.36170  1.0000 -0.0262307719
C   C86       1.0  0.44840  0.62870  0.63830  1.0000 -0.0262307719
C   C87       1.0  0.37130  0.00960  0.81970  1.0000 -0.0262307719
C   C88       1.0  0.18990  0.55160  0.18030  1.0000 -0.0262307719
C   C89       1.0  0.34560  0.48820  0.67900  1.0000 -0.1615554793
C   C90       1.0  0.80920  0.66667  0.32100  1.0000 -0.1615554793
C   C91       1.0  0.51180  0.19080  0.85740  1.0000 -0.1615554793
C   C92       1.0  0.33340  0.65440  0.14260  1.0000 -0.1615554793
C   C93       1.0  0.94080  0.76180  0.35740  1.0000 -0.1615554793
C   C94       1.0  0.40440  0.58340  0.64260  1.0000 -0.1615554793
C   C95       1.0  0.41660  0.05920  0.82100  1.0000 -0.1615554793
C   C96       1.0  0.23820  0.59560  0.17900  1.0000 -0.1615554793
C   C97       1.0  0.35260  0.55990  0.71310  1.0000 0.0664479705
C   C98       1.0  0.84680  0.63950  0.28690  1.0000 0.0664479705
C   C99       1.0  0.44010  0.15320  0.79270  1.0000 0.0664479705
C   C100      1.0  0.36050  0.64740  0.20730  1.0000 0.0664479705
C   C101      1.0  0.90320  0.69010  0.29270  1.0000 0.0664479705
C   C102      1.0  0.39740  0.61050  0.70730  1.0000 0.0664479705
C   C103      1.0  0.38950  0.09680  0.78690  1.0000 0.0664479705
C   C104      1.0  0.30990  0.60260  0.21310  1.0000 0.0664479705
C   C105      1.0  0.31560  0.58630  0.75050  1.0000 -0.1782315513
C   C106      1.0  0.83580  0.56510  0.24950  1.0000 -0.1782315513
C   C107      1.0  0.41370  0.16420  0.72930  1.0000 -0.1782315513
C   C108      1.0  0.43490  0.68440  0.27070  1.0000 -0.1782315513
C   C109      1.0  0.91420  0.66370  0.22930  1.0000 -0.1782315513
C   C110      1.0  0.43440  0.68490  0.77070  1.0000 -0.1782315513
C   C111      1.0  0.31510  0.08580  0.74950  1.0000 -0.1782315513
C   C112      1.0  0.33630  0.56560  0.25050  1.0000 -0.1782315513
C   C113      1.0  0.23660  0.57390  0.80230  1.0000 0.5369489017
C   C114      1.0  0.77160  0.43430  0.19770  1.0000 0.5369489017
C   C115      1.0  0.42610  0.22840  0.66270  1.0000 0.5369489017
C   C116      1.0  0.56570  0.76340  0.33730  1.0000 0.5369489017
C   C117      1.0  0.97840  0.67610  0.16270  1.0000 0.5369489017
C   C118      1.0  0.51340  0.81570  0.83730  1.0000 0.5369489017
C   C119      1.0  0.18430  0.02160  0.69770  1.0000 0.5369489017
C   C120      1.0  0.32390  0.48660  0.30230  1.0000 0.5369489017
C   C121      1.0  0.29570  0.36100  0.64330  1.0000 0.5510833798
C   C122      1.0  0.71770  0.65240  0.35670  1.0000 0.5510833798
C   C123      1.0  0.63900  0.28230  0.93470  1.0000 0.5510833798
C   C124      1.0  0.34760  0.70430  0.06530  1.0000 0.5510833798
C   C125      1.0  0.03230  0.88900  0.43470  1.0000 0.5510833798
C   C126      1.0  0.45430  0.59760  0.56530  1.0000 0.5510833798
C   C127      1.0  0.40240  0.96770  0.85670  1.0000 0.5510833798
C   C128      1.0  0.11100  0.54570  0.14330  1.0000 0.5510833798
C   C129      1.0  0.47490  0.42680  0.59390  1.0000 -0.3097935868
C   C130      1.0  0.53870  0.34000  0.57830  1.0000 -0.2988551119
C   C131      1.0  0.83290  0.88100  0.40610  1.0000 -0.3097935868
C   C132      1.0  0.76170  0.96040  0.42170  1.0000 -0.2988551119
C   C133      1.0  0.57320  0.16710  0.04810  1.0000 -0.3097935868
C   C134      1.0  0.66000  0.23830  0.19870  1.0000 -0.2988551119
C   C135      1.0  0.11900  0.52510  0.95190  1.0000 -0.3097935868
C   C136      1.0  0.03960  0.46130  0.80130  1.0000 -0.2988551119
C   C137      1.0  0.91710  0.82320  0.54810  1.0000 -0.3097935868
C   C138      1.0  0.98830  0.91000  0.69870  1.0000 -0.2988551119
C   C139      1.0  0.27510  0.36900  0.45190  1.0000 -0.3097935868
C   C140      1.0  0.21130  0.28960  0.30130  1.0000 -0.2988551119
C   C141      1.0  0.63100  0.08290  0.90610  1.0000 -0.3097935868
C   C142      1.0  0.71040  0.01170  0.92170  1.0000 -0.2988551119
C   C143      1.0  0.17680  0.72490  0.09390  1.0000 -0.3097935868
C   C144      1.0  0.09000  0.78870  0.07830  1.0000 -0.2988551119
C   C145      1.0  0.22870  0.34140  0.04610  1.0000 -0.3438108949
C   C146      1.0  0.25290  0.28700  0.13110  1.0000 -0.3438108949
C   C147      1.0  0.29530  0.18260  0.95390  1.0000 -0.3438108949
C   C148      1.0  0.15590  0.12180  0.86890  1.0000 -0.3438108949
C   C149      1.0  0.65860  0.70470  0.88730  1.0000 -0.3438108949
C   C150      1.0  0.71300  0.84410  0.96590  1.0000 -0.3438108949
C   C151      1.0  0.81740  0.77130  0.11270  1.0000 -0.3438108949
C   C152      1.0  0.87820  0.74710  0.03410  1.0000 -0.3438108949
C   C153      1.0  0.45470  0.90860  0.38730  1.0000 -0.3438108949
C   C154      1.0  0.59410  0.96300  0.46590  1.0000 -0.345536354
C   C155      1.0  0.52130  0.06740  0.61270  1.0000 -0.3438108949
C   C156      1.0  0.49710  0.12820  0.53410  1.0000 -0.3438108949
C   C157      1.0  0.93260  0.54530  0.45390  1.0000 -0.3438108949
C   C158      1.0  0.87180  0.40590  0.36890  1.0000 -0.3438108949
C   C159      1.0  0.09140  0.47870  0.54610  1.0000 -0.3438108949
C   C160      1.0  0.03700  0.50290  0.63110  1.0000 -0.3438108949
C   C161      1.0  0.58610  0.44580  0.32170  1.0000 -0.2988551119
C   C162      1.0  0.45690  0.40530  0.19720  1.0000 -0.3097935868
C   C163      1.0  0.12410  0.26440  0.67830  1.0000 -0.2988551119
C   C164      1.0  0.20810  0.25970  0.80280  1.0000 -0.3097935868
C   C165      1.0  0.55420  0.87590  0.14030  1.0000 -0.2988551119
C   C166      1.0  0.59470  0.79190  0.05160  1.0000 -0.3097935868
C   C167      1.0  0.73560  0.41390  0.85970  1.0000 -0.2988551119
C   C168      1.0  0.74030  0.54310  0.94840  1.0000 -0.3097935868
C   C169      1.0  0.62590  0.80420  0.64030  1.0000 -0.2988551119
C   C170      1.0  0.54190  0.84470  0.55160  1.0000 -0.3097935868
C   C171      1.0  0.16390  0.98560  0.35970  1.0000 -0.2988551119
C   C172      1.0  0.29310  0.99030  0.44840  1.0000 -0.3097935868
C   C173      1.0  0.01440  0.37410  0.17830  1.0000 -0.2988551119
C   C174      1.0  0.00970  0.45810  0.30280  1.0000 -0.3097935868
C   C175      1.0  0.19580  0.83610  0.82170  1.0000 -0.2988551119
C   C176      1.0  0.15530  0.70690  0.69720  1.0000 -0.3097935868
N   N1        1.0  0.55010  0.42060  0.63390  1.0000 -0.1012034346
N   N2        1.0  0.78670  0.91620  0.36610  1.0000 -0.1012034346
N   N3        1.0  0.57940  0.21330  0.12950  1.0000 -0.1012034346
N   N4        1.0  0.08380  0.44990  0.87050  1.0000 -0.1012034346
N   N5        1.0  0.96330  0.82940  0.62950  1.0000 -0.1012034346
N   N6        1.0  0.19990  0.33380  0.37050  1.0000 -0.1012034346
N   N7        1.0  0.66620  0.03670  0.86610  1.0000 -0.1012034346
N   N8        1.0  0.17060  0.80010  0.13390  1.0000 -0.1012034346
N   N9        1.0  0.19530  0.30980  0.07850  1.0000 -0.1012034346
N   N10       1.0  0.23130  0.11680  0.92150  1.0000 -0.1012034346
N   N11       1.0  0.69020  0.76870  0.88550  1.0000 -0.1012034346
N   N12       1.0  0.88320  0.80470  0.11450  1.0000 -0.1012034346
N   N13       1.0  0.51870  0.94020  0.38550  1.0000 -0.1012034346
N   N14       1.0  0.55470  0.13320  0.61450  1.0000 -0.1012034346
N   N15       1.0  0.86680  0.48130  0.42150  1.0000 -0.1012034346
N   N16       1.0  0.05980  0.44530  0.57850  1.0000 -0.1012034346
N   N17       1.0  0.50650  0.44370  0.29060  1.0000 -0.1090652822
N   N18       1.0  0.15310  0.21590  0.70940  1.0000 -0.1090652822
N   N19       1.0  0.55630  0.84690  0.06280  1.0000 -0.1090652822
N   N20       1.0  0.78410  0.49350  0.93720  1.0000 -0.1090652822
N   N21       1.0  0.59690  0.80630  0.56280  1.0000 -0.1090652822
N   N22       1.0  0.24350  0.03410  0.43720  1.0000 -0.1090652822
N   N23       1.0  0.96590  0.40310  0.20940  1.0000 -0.1090652822
N   N24       1.0  0.19370  0.75650  0.79060  1.0000 -0.1090652822
O   O1        1.0  0.12240  0.65200  0.88040  1.0000 -0.561584386
O   O2        1.0  0.77160  0.24200  0.11960  1.0000 -0.561584386
O   O3        1.0  0.34800  0.22840  0.47040  1.0000 -0.561584386
O   O4        1.0  0.75800  0.87760  0.52960  1.0000 -0.561584386
O   O5        1.0  0.97840  0.59800  0.97040  1.0000 -0.561584386
O   O6        1.0  0.62760  0.00800  0.02960  1.0000 -0.561584386
O   O7        1.0  0.99200  0.02160  0.61960  1.0000 -0.561584386
O   O8        1.0  0.40200  0.37240  0.38040  1.0000 -0.561584386
O   O9        1.0  0.08150  0.69110  0.79440  1.0000 -0.5716067314
O   O10       1.0  0.89670  0.28710  0.20560  1.0000 -0.5716067314
O   O11       1.0  0.30890  0.10330  0.39040  1.0000 -0.5716067314
O   O12       1.0  0.71290  0.91850  0.60960  1.0000 -0.5716067314
O   O13       1.0  0.85330  0.55890  0.89040  1.0000 -0.5716067314
O   O14       1.0  0.66850  0.96290  0.10960  1.0000 -0.5716067314
O   O15       1.0  0.03710  0.14670  0.70560  1.0000 -0.5716067314
O   O16       1.0  0.44110  0.33150  0.29440  1.0000 -0.5716067314
O   O17       1.0  0.81760  0.75960  0.58960  1.0000 -0.5716067314
O   O18       1.0  0.17000  0.22800  0.41040  1.0000 -0.5716067314
O   O19       1.0  0.24040  0.83000  0.05800  1.0000 -0.5716067314
O   O20       1.0  0.77200  0.18240  0.94200  1.0000 -0.5716067314
O   O21       1.0  0.58000  0.49040  0.55800  1.0000 -0.5716067314
O   O22       1.0  0.93240  0.02200  0.44200  1.0000 -0.5716067314
O   O23       1.0  0.97800  0.42000  0.91040  1.0000 -0.5716067314
O   O24       1.0  0.50960  0.06760  0.08960  1.0000 -0.5716067314
O   O25       1.0  0.69720  0.73580  0.52680  1.0000 -0.5429540602
O   O26       1.0  0.20900  0.17040  0.47320  1.0000 -0.5429540602
O   O27       1.0  0.26420  0.79100  0.96140  1.0000 -0.5429540602
O   O28       1.0  0.82960  0.30280  0.03860  1.0000 -0.5429540602
O   O29       1.0  0.54100  0.51420  0.46140  1.0000 -0.5429540602
O   O30       1.0  0.05280  0.07960  0.53860  1.0000 -0.5429540602
O   O31       1.0  0.92040  0.45900  0.97320  1.0000 -0.5429540602
O   O32       1.0  0.48580  0.94720  0.02680  1.0000 -0.5429540602
O   O33       1.0  0.24500  0.64190  0.83270  1.0000 -0.5760581933
O   O34       1.0  0.80920  0.41230  0.16730  1.0000 -0.5760581933
O   O35       1.0  0.35810  0.19080  0.60310  1.0000 -0.5760581933
O   O36       1.0  0.58770  0.75500  0.39690  1.0000 -0.5760581933
O   O37       1.0  0.94080  0.60810  0.10310  1.0000 -0.5760581933
O   O38       1.0  0.50500  0.83770  0.89690  1.0000 -0.5760581933
O   O39       1.0  0.16230  0.05920  0.66730  1.0000 -0.5760581933
O   O40       1.0  0.39190  0.49500  0.33270  1.0000 -0.5760581933
O   O41       1.0  0.20460  0.53450  0.81310  1.0000 -0.5760581933
O   O42       1.0  0.72140  0.39150  0.18690  1.0000 -0.5760581933
O   O43       1.0  0.46550  0.27860  0.67010  1.0000 -0.5760581933
O   O44       1.0  0.60850  0.79540  0.32990  1.0000 -0.5716067314
O   O45       1.0  0.02860  0.71550  0.17010  1.0000 -0.5760581933
O   O46       1.0  0.54540  0.85850  0.82990  1.0000 -0.5760581933
O   O47       1.0  0.14150  0.97140  0.68690  1.0000 -0.5760581933
O   O48       1.0  0.28450  0.45460  0.31310  1.0000 -0.5760581933
O   O49       1.0  0.32750  0.33930  0.60600  1.0000 -0.5520793078
O   O50       1.0  0.73330  0.72150  0.39400  1.0000 -0.5520793078
O   O51       1.0  0.66070  0.26670  0.98820  1.0000 -0.5520793078
O   O52       1.0  0.27850  0.67250  0.01180  1.0000 -0.5520793078
O   O53       1.0  0.01670  0.91070  0.48820  1.0000 -0.5520793078
O   O54       1.0  0.42250  0.52850  0.51180  1.0000 -0.5520793078
O   O55       1.0  0.47150  0.98330  0.89400  1.0000 -0.5520793078
O   O56       1.0  0.08930  0.57750  0.10600  1.0000 -0.5520793078
O   O57       1.0  0.25540  0.31860  0.64520  1.0000 -0.5760581933
O   O58       1.0  0.67340  0.61020  0.35480  1.0000 -0.5760581933
O   O59       1.0  0.68140  0.32660  0.93680  1.0000 -0.5760581933
O   O60       1.0  0.38980  0.74460  0.06320  1.0000 -0.5716067314
O   O61       1.0  0.07660  0.93140  0.43680  1.0000 -0.5760581933
O   O62       1.0  0.49460  0.63980  0.56320  1.0000 -0.5760581933
O   O63       1.0  0.36020  0.92340  0.85480  1.0000 -0.5760581933
O   O64       1.0  0.06860  0.50540  0.14520  1.0000 -0.5716067314
