# DDEC6 charges by PACMAN v1.1 (https://github.com/mtap-research/PACMAN-charge/)
data_2011[Cd][nuc]3[ION]1
_chemical_formula_sum              "Cd4 H144 C192 N48 Cl4 O16"
_cell_length_a       15.8346
_cell_length_b       15.8346
_cell_length_c       21.463
_cell_angle_alpha    90
_cell_angle_beta     90
_cell_angle_gamma    90

_symmetry_space_group_name_H-M    "P 1"
_symmetry_Int_Tables_number       1

loop_
  _symmetry_equiv_pos_as_xyz
  'x, y, z'

loop_
  _atom_site_type_symbol
  _atom_site_label
  _atom_site_symmetry_multiplicity
  _atom_site_fract_x
  _atom_site_fract_y
  _atom_site_fract_z
  _atom_site_occupancy
  _atom_site_charge
Cd  Cd1       1.0  0.43979  0.56021  0.75000  1.0000 0.6523635281
Cd  Cd2       1.0  0.56021  0.43979  0.25000  1.0000 0.6523635281
Cd  Cd3       1.0  0.93979  0.93979  0.00000  1.0000 0.6523635281
Cd  Cd4       1.0  0.06021  0.06021  0.50000  1.0000 0.6523635281
H   H1        1.0  0.96290  0.88830  0.84680  1.0000 0.1088548738
H   H2        1.0  0.03710  0.11170  0.34680  1.0000 0.1088548738
H   H3        1.0  0.61170  0.46290  0.09680  1.0000 0.1088548738
H   H4        1.0  0.38830  0.53710  0.59680  1.0000 0.1088548738
H   H5        1.0  0.53710  0.38830  0.40320  1.0000 0.1088548738
H   H6        1.0  0.46290  0.61170  0.90320  1.0000 0.1088548738
H   H7        1.0  0.88830  0.96290  0.15320  1.0000 0.1088548738
H   H8        1.0  0.11170  0.03710  0.65320  1.0000 0.1088548738
H   H9        1.0  0.91370  0.78440  0.78190  1.0000 0.1288386747
H   H10       1.0  0.08630  0.21560  0.28190  1.0000 0.1288386747
H   H11       1.0  0.71560  0.41370  0.03190  1.0000 0.1288386747
H   H12       1.0  0.28440  0.58630  0.53190  1.0000 0.1288386747
H   H13       1.0  0.58630  0.28440  0.46810  1.0000 0.1288386747
H   H14       1.0  0.41370  0.71560  0.96810  1.0000 0.1288386747
H   H15       1.0  0.78440  0.91370  0.21810  1.0000 0.1288386747
H   H16       1.0  0.21560  0.08630  0.71810  1.0000 0.1288386747
H   H17       1.0  0.71130  0.75870  0.89480  1.0000 0.1288386747
H   H18       1.0  0.28870  0.24130  0.39480  1.0000 0.1288386747
H   H19       1.0  0.74130  0.21130  0.14480  1.0000 0.1288386747
H   H20       1.0  0.25870  0.78870  0.64480  1.0000 0.1288386747
H   H21       1.0  0.78870  0.25870  0.35520  1.0000 0.1288386747
H   H22       1.0  0.21130  0.74130  0.85520  1.0000 0.1288386747
H   H23       1.0  0.75870  0.71130  0.10520  1.0000 0.1288386747
H   H24       1.0  0.24130  0.28870  0.60520  1.0000 0.1288386747
H   H25       1.0  0.76930  0.85870  0.95910  1.0000 0.0981695035
H   H26       1.0  0.23070  0.14130  0.45910  1.0000 0.0981695035
H   H27       1.0  0.64130  0.26930  0.20910  1.0000 0.0981695035
H   H28       1.0  0.35870  0.73070  0.70910  1.0000 0.0981695035
H   H29       1.0  0.73070  0.35870  0.29090  1.0000 0.0981695035
H   H30       1.0  0.26930  0.64130  0.79090  1.0000 0.0981695035
H   H31       1.0  0.85870  0.76930  0.04090  1.0000 0.0981695035
H   H32       1.0  0.14130  0.23070  0.54090  1.0000 0.0981695035
H   H33       1.0  0.84970  0.69900  0.71760  1.0000 0.0981695035
H   H34       1.0  0.15030  0.30100  0.21760  1.0000 0.0981695035
H   H35       1.0  0.80100  0.34970  0.96760  1.0000 0.0981695035
H   H36       1.0  0.19900  0.65030  0.46760  1.0000 0.0981695035
H   H37       1.0  0.65030  0.19900  0.53240  1.0000 0.0981695035
H   H38       1.0  0.34970  0.80100  0.03240  1.0000 0.0981695035
H   H39       1.0  0.69900  0.84970  0.28240  1.0000 0.0981695035
H   H40       1.0  0.30100  0.15030  0.78240  1.0000 0.0981695035
H   H41       1.0  0.41600  0.20100  0.83740  1.0000 0.1088548738
H   H42       1.0  0.58400  0.79900  0.33740  1.0000 0.1088548738
H   H43       1.0  0.29900  0.91600  0.08740  1.0000 0.1088548738
H   H44       1.0  0.70100  0.08400  0.58740  1.0000 0.1088548738
H   H45       1.0  0.08400  0.70100  0.41260  1.0000 0.1088548738
H   H46       1.0  0.91600  0.29900  0.91260  1.0000 0.1088548738
H   H47       1.0  0.20100  0.41600  0.16260  1.0000 0.1088548738
H   H48       1.0  0.79900  0.58400  0.66260  1.0000 0.1088548738
H   H49       1.0  0.50900  0.29810  0.79320  1.0000 0.1088548738
H   H50       1.0  0.49100  0.70190  0.29320  1.0000 0.1088548738
H   H51       1.0  0.20190  0.00900  0.04320  1.0000 0.1088548738
H   H52       1.0  0.79810  0.99100  0.54320  1.0000 0.1088548738
H   H53       1.0  0.99100  0.79810  0.45680  1.0000 0.1088548738
H   H54       1.0  0.00900  0.20190  0.95680  1.0000 0.1088548738
H   H55       1.0  0.29810  0.50900  0.20680  1.0000 0.1088548738
H   H56       1.0  0.70190  0.49100  0.70680  1.0000 0.1088548738
H   H57       1.0  0.36120  0.30500  0.63940  1.0000 0.1088548738
H   H58       1.0  0.63880  0.69500  0.13940  1.0000 0.1088548738
H   H59       1.0  0.19500  0.86120  0.88940  1.0000 0.1088548738
H   H60       1.0  0.80500  0.13880  0.38940  1.0000 0.1088548738
H   H61       1.0  0.13880  0.80500  0.61060  1.0000 0.1088548738
H   H62       1.0  0.86120  0.19500  0.11060  1.0000 0.1088548738
H   H63       1.0  0.30500  0.36120  0.36060  1.0000 0.1088548738
H   H64       1.0  0.69500  0.63880  0.86060  1.0000 0.1088548738
H   H65       1.0  0.62000  0.54590  0.54090  1.0000 0.1088548738
H   H66       1.0  0.38000  0.45410  0.04090  1.0000 0.1088548738
H   H67       1.0  0.95410  0.12000  0.79090  1.0000 0.1088548738
H   H68       1.0  0.04590  0.88000  0.29090  1.0000 0.1088548738
H   H69       1.0  0.88000  0.04590  0.70910  1.0000 0.1088548738
H   H70       1.0  0.12000  0.95410  0.20910  1.0000 0.1088548738
H   H71       1.0  0.54590  0.62000  0.45910  1.0000 0.1088548738
H   H72       1.0  0.45410  0.38000  0.95910  1.0000 0.1088548738
H   H73       1.0  0.73620  0.57270  0.47690  1.0000 0.1088548738
H   H74       1.0  0.26380  0.42730  0.97690  1.0000 0.1088548738
H   H75       1.0  0.92730  0.23620  0.72690  1.0000 0.1088548738
H   H76       1.0  0.07270  0.76380  0.22690  1.0000 0.1088548738
H   H77       1.0  0.76380  0.07270  0.77310  1.0000 0.1088548738
H   H78       1.0  0.23620  0.92730  0.27310  1.0000 0.1088548738
H   H79       1.0  0.57270  0.73620  0.52310  1.0000 0.1088548738
H   H80       1.0  0.42730  0.26380  0.02310  1.0000 0.1088548738
H   H81       1.0  0.83530  0.46170  0.46000  1.0000 0.1088548738
H   H82       1.0  0.16470  0.53830  0.96000  1.0000 0.1088548738
H   H83       1.0  0.03830  0.33530  0.71000  1.0000 0.1088548738
H   H84       1.0  0.96170  0.66470  0.21000  1.0000 0.1088548738
H   H85       1.0  0.66470  0.96170  0.79000  1.0000 0.1088548738
H   H86       1.0  0.33530  0.03830  0.29000  1.0000 0.1088548738
H   H87       1.0  0.46170  0.83530  0.54000  1.0000 0.1088548738
H   H88       1.0  0.53830  0.16470  0.04000  1.0000 0.1088548738
H   H89       1.0  0.72400  0.32510  0.59430  1.0000 0.0981695035
H   H90       1.0  0.27600  0.67490  0.09430  1.0000 0.0981695035
H   H91       1.0  0.17490  0.22400  0.84430  1.0000 0.0981695035
H   H92       1.0  0.82510  0.77600  0.34430  1.0000 0.0981695035
H   H93       1.0  0.77600  0.82510  0.65570  1.0000 0.0981695035
H   H94       1.0  0.22400  0.17490  0.15570  1.0000 0.0981695035
H   H95       1.0  0.32510  0.72400  0.40570  1.0000 0.0981695035
H   H96       1.0  0.67490  0.27600  0.90570  1.0000 0.0981695035
H   H97       1.0  0.85070  0.27150  0.61080  1.0000 0.1288386747
H   H98       1.0  0.14930  0.72850  0.11080  1.0000 0.1288386747
H   H99       1.0  0.22850  0.35070  0.86080  1.0000 0.1288386747
H   H100      1.0  0.77150  0.64930  0.36080  1.0000 0.1288386747
H   H101      1.0  0.64930  0.77150  0.63920  1.0000 0.1288386747
H   H102      1.0  0.35070  0.22850  0.13920  1.0000 0.1288386747
H   H103      1.0  0.27150  0.85070  0.38920  1.0000 0.1288386747
H   H104      1.0  0.72850  0.14930  0.88920  1.0000 0.1288386747
H   H105      1.0  0.94220  0.16110  0.59310  1.0000 0.0981695035
H   H106      1.0  0.05780  0.83890  0.09310  1.0000 0.0981695035
H   H107      1.0  0.33890  0.44220  0.84310  1.0000 0.0981695035
H   H108      1.0  0.66110  0.55780  0.34310  1.0000 0.0981695035
H   H109      1.0  0.55780  0.66110  0.65690  1.0000 0.0981695035
H   H110      1.0  0.44220  0.33890  0.15690  1.0000 0.0981695035
H   H111      1.0  0.16110  0.94220  0.40690  1.0000 0.0981695035
H   H112      1.0  0.83890  0.05780  0.90690  1.0000 0.0981695035
H   H113      1.0  0.99090  0.23790  0.42580  1.0000 0.0981695035
H   H114      1.0  0.00910  0.76210  0.92580  1.0000 0.0981695035
H   H115      1.0  0.26210  0.49090  0.67580  1.0000 0.0981695035
H   H116      1.0  0.73790  0.50910  0.17580  1.0000 0.0981695035
H   H117      1.0  0.50910  0.73790  0.82420  1.0000 0.0981695035
H   H118      1.0  0.49090  0.26210  0.32420  1.0000 0.0981695035
H   H119      1.0  0.23790  0.99090  0.57420  1.0000 0.0981695035
H   H120      1.0  0.76210  0.00910  0.07420  1.0000 0.0981695035
H   H121      1.0  0.90030  0.35060  0.43470  1.0000 0.1288386747
H   H122      1.0  0.09970  0.64940  0.93470  1.0000 0.1288386747
H   H123      1.0  0.14940  0.40030  0.68470  1.0000 0.1288386747
H   H124      1.0  0.85060  0.59970  0.18470  1.0000 0.1288386747
H   H125      1.0  0.59970  0.85060  0.81530  1.0000 0.1288386747
H   H126      1.0  0.40030  0.14940  0.31530  1.0000 0.1288386747
H   H127      1.0  0.35060  0.90030  0.56530  1.0000 0.1288386747
H   H128      1.0  0.64940  0.09970  0.06530  1.0000 0.1288386747
H   H129      1.0  0.58300  0.23520  0.65760  1.0000 0.2644134505
H   H130      1.0  0.41700  0.76480  0.15760  1.0000 0.2644134505
H   H131      1.0  0.26480  0.08300  0.90760  1.0000 0.2644134505
H   H132      1.0  0.73520  0.91700  0.40760  1.0000 0.2644134505
H   H133      1.0  0.91700  0.73520  0.59240  1.0000 0.2644134505
H   H134      1.0  0.08300  0.26480  0.09240  1.0000 0.2644134505
H   H135      1.0  0.23520  0.58300  0.34240  1.0000 0.2644134505
H   H136      1.0  0.76480  0.41700  0.84240  1.0000 0.2644134505
H   H137      1.0  0.54100  0.24970  0.59660  1.0000 0.2665392799
H   H138      1.0  0.45900  0.75030  0.09660  1.0000 0.2665392799
H   H139      1.0  0.25030  0.04100  0.84660  1.0000 0.2665392799
H   H140      1.0  0.74970  0.95900  0.34660  1.0000 0.2665392799
H   H141      1.0  0.95900  0.74970  0.65340  1.0000 0.2665392799
H   H142      1.0  0.04100  0.25030  0.15340  1.0000 0.2665392799
H   H143      1.0  0.24970  0.54100  0.40340  1.0000 0.2665392799
H   H144      1.0  0.75030  0.45900  0.90340  1.0000 0.2665392799
C   C1        1.0  0.91270  0.85920  0.85800  1.0000 0.0688025391
C   C2        1.0  0.08730  0.14080  0.35800  1.0000 0.0688025391
C   C3        1.0  0.64080  0.41270  0.10800  1.0000 0.0688025391
C   C4        1.0  0.35920  0.58730  0.60800  1.0000 0.0688025391
C   C5        1.0  0.58730  0.35920  0.39200  1.0000 0.0688025391
C   C6        1.0  0.41270  0.64080  0.89200  1.0000 0.0688025391
C   C7        1.0  0.85920  0.91270  0.14200  1.0000 0.0688025391
C   C8        1.0  0.14080  0.08730  0.64200  1.0000 0.0688025391
C   C9        1.0  0.88320  0.79780  0.81870  1.0000 -0.2001888393
C   C10       1.0  0.11680  0.20220  0.31870  1.0000 -0.2001888393
C   C11       1.0  0.70220  0.38320  0.06870  1.0000 -0.2001888393
C   C12       1.0  0.29780  0.61680  0.56870  1.0000 -0.2001888393
C   C13       1.0  0.61680  0.29780  0.43130  1.0000 -0.2001888393
C   C14       1.0  0.38320  0.70220  0.93130  1.0000 -0.2001888393
C   C15       1.0  0.79780  0.88320  0.18130  1.0000 -0.2001888393
C   C16       1.0  0.20220  0.11680  0.68130  1.0000 -0.2001888393
C   C17       1.0  0.80770  0.75430  0.83270  1.0000 0.1088548738
C   C18       1.0  0.19230  0.24570  0.33270  1.0000 0.1088548738
C   C19       1.0  0.74570  0.30770  0.08270  1.0000 0.1088548738
C   C20       1.0  0.25430  0.69230  0.58270  1.0000 0.1088548738
C   C21       1.0  0.69230  0.25430  0.41730  1.0000 0.1088548738
C   C22       1.0  0.30770  0.74570  0.91730  1.0000 0.1088548738
C   C23       1.0  0.75430  0.80770  0.16730  1.0000 0.1088548738
C   C24       1.0  0.24570  0.19230  0.66730  1.0000 0.1088548738
C   C25       1.0  0.76510  0.78180  0.88500  1.0000 -0.2001888393
C   C26       1.0  0.23490  0.21820  0.38500  1.0000 -0.2001888393
C   C27       1.0  0.71820  0.26510  0.13500  1.0000 -0.2001888393
C   C28       1.0  0.28180  0.73490  0.63500  1.0000 -0.2001888393
C   C29       1.0  0.73490  0.28180  0.36500  1.0000 -0.2001888393
C   C30       1.0  0.26510  0.71820  0.86500  1.0000 -0.2001888393
C   C31       1.0  0.78180  0.76510  0.11500  1.0000 -0.2001888393
C   C32       1.0  0.21820  0.23490  0.61500  1.0000 -0.2001888393
C   C33       1.0  0.79970  0.84260  0.92290  1.0000 0.0410738929
C   C34       1.0  0.20030  0.15740  0.42290  1.0000 0.0410738929
C   C35       1.0  0.65740  0.29970  0.17290  1.0000 0.0410738929
C   C36       1.0  0.34260  0.70030  0.67290  1.0000 0.0410738929
C   C37       1.0  0.70030  0.34260  0.32710  1.0000 0.0410738929
C   C38       1.0  0.29970  0.65740  0.82710  1.0000 0.0410738929
C   C39       1.0  0.84260  0.79970  0.07710  1.0000 0.0410738929
C   C40       1.0  0.15740  0.20030  0.57710  1.0000 0.0410738929
C   C41       1.0  0.77800  0.68220  0.79480  1.0000 0.0688025391
C   C42       1.0  0.22200  0.31780  0.29480  1.0000 0.0688025391
C   C43       1.0  0.81780  0.27800  0.04480  1.0000 0.0688025391
C   C44       1.0  0.18220  0.72200  0.54480  1.0000 0.0688025391
C   C45       1.0  0.72200  0.18220  0.45520  1.0000 0.0688025391
C   C46       1.0  0.27800  0.81780  0.95520  1.0000 0.0688025391
C   C47       1.0  0.68220  0.77800  0.20520  1.0000 0.0688025391
C   C48       1.0  0.31780  0.22200  0.70520  1.0000 0.0688025391
C   C49       1.0  0.80810  0.66360  0.73590  1.0000 -0.1590351303
C   C50       1.0  0.19190  0.33640  0.23590  1.0000 -0.1590351303
C   C51       1.0  0.83640  0.30810  0.98590  1.0000 -0.1590351303
C   C52       1.0  0.16360  0.69190  0.48590  1.0000 -0.1590351303
C   C53       1.0  0.69190  0.16360  0.51410  1.0000 -0.1590351303
C   C54       1.0  0.30810  0.83640  0.01410  1.0000 -0.1590351303
C   C55       1.0  0.66360  0.80810  0.26410  1.0000 -0.1590351303
C   C56       1.0  0.33640  0.19190  0.76410  1.0000 -0.1590351303
C   C57       1.0  0.40570  0.22140  0.79650  1.0000 -0.1032312982
C   C58       1.0  0.59430  0.77860  0.29650  1.0000 -0.1032312982
C   C59       1.0  0.27860  0.90570  0.04650  1.0000 -0.1032312982
C   C60       1.0  0.72140  0.09430  0.54650  1.0000 -0.1032312982
C   C61       1.0  0.09430  0.72140  0.45350  1.0000 -0.1032312982
C   C62       1.0  0.90570  0.27860  0.95350  1.0000 -0.1032312982
C   C63       1.0  0.22140  0.40570  0.20350  1.0000 -0.1032312982
C   C64       1.0  0.77860  0.59430  0.70350  1.0000 -0.1032312982
C   C65       1.0  0.46040  0.27990  0.77100  1.0000 -0.1590351303
C   C66       1.0  0.53960  0.72010  0.27100  1.0000 -0.1590351303
C   C67       1.0  0.22010  0.96040  0.02100  1.0000 -0.1590351303
C   C68       1.0  0.77990  0.03960  0.52100  1.0000 -0.1590351303
C   C69       1.0  0.03960  0.77990  0.47900  1.0000 -0.1590351303
C   C70       1.0  0.96040  0.22010  0.97900  1.0000 -0.1590351303
C   C71       1.0  0.27990  0.46040  0.22900  1.0000 -0.1590351303
C   C72       1.0  0.72010  0.53960  0.72900  1.0000 -0.1590351303
C   C73       1.0  0.44270  0.31120  0.71280  1.0000 0.0152468026
C   C74       1.0  0.55730  0.68880  0.21280  1.0000 0.0152468026
C   C75       1.0  0.18880  0.94270  0.96280  1.0000 0.0152468026
C   C76       1.0  0.81120  0.05730  0.46280  1.0000 0.0152468026
C   C77       1.0  0.05730  0.81120  0.53720  1.0000 0.0152468026
C   C78       1.0  0.94270  0.18880  0.03720  1.0000 0.0152468026
C   C79       1.0  0.31120  0.44270  0.28720  1.0000 0.0152468026
C   C80       1.0  0.68880  0.55730  0.78720  1.0000 0.0152468026
C   C81       1.0  0.37240  0.28290  0.67970  1.0000 -0.1912201886
C   C82       1.0  0.62760  0.71710  0.17970  1.0000 -0.1912201886
C   C83       1.0  0.21710  0.87240  0.92970  1.0000 -0.1912201886
C   C84       1.0  0.78290  0.12760  0.42970  1.0000 -0.1912201886
C   C85       1.0  0.12760  0.78290  0.57030  1.0000 -0.1912201886
C   C86       1.0  0.87240  0.21710  0.07030  1.0000 -0.1912201886
C   C87       1.0  0.28290  0.37240  0.32030  1.0000 -0.1912201886
C   C88       1.0  0.71710  0.62760  0.82030  1.0000 -0.1912201886
C   C89       1.0  0.49660  0.37530  0.68130  1.0000 0.1904424192
C   C90       1.0  0.50340  0.62470  0.18130  1.0000 0.1904424192
C   C91       1.0  0.12470  0.99660  0.93130  1.0000 0.1904424192
C   C92       1.0  0.87530  0.00340  0.43130  1.0000 0.1904424192
C   C93       1.0  0.00340  0.87530  0.56870  1.0000 0.1904424192
C   C94       1.0  0.99660  0.12470  0.06870  1.0000 0.1904424192
C   C95       1.0  0.37530  0.49660  0.31870  1.0000 0.1904424192
C   C96       1.0  0.62470  0.50340  0.81870  1.0000 0.1904424192
C   C97       1.0  0.59220  0.42570  0.61920  1.0000 0.1904424192
C   C98       1.0  0.40780  0.57430  0.11920  1.0000 0.1904424192
C   C99       1.0  0.07430  0.09220  0.86920  1.0000 0.1904424192
C   C100      1.0  0.92570  0.90780  0.36920  1.0000 0.1904424192
C   C101      1.0  0.90780  0.92570  0.63080  1.0000 0.1904424192
C   C102      1.0  0.09220  0.07430  0.13080  1.0000 0.1904424192
C   C103      1.0  0.42570  0.59220  0.38080  1.0000 0.1904424192
C   C104      1.0  0.57430  0.40780  0.88080  1.0000 0.1904424192
C   C105      1.0  0.66370  0.43440  0.57540  1.0000 0.0410738929
C   C106      1.0  0.33630  0.56560  0.07540  1.0000 0.0410738929
C   C107      1.0  0.06560  0.16370  0.82540  1.0000 0.0410738929
C   C108      1.0  0.93440  0.83630  0.32540  1.0000 0.0410738929
C   C109      1.0  0.83630  0.93440  0.67460  1.0000 0.0410738929
C   C110      1.0  0.16370  0.06560  0.17460  1.0000 0.0410738929
C   C111      1.0  0.43440  0.66370  0.42460  1.0000 0.0410738929
C   C112      1.0  0.56560  0.33630  0.92460  1.0000 0.0410738929
C   C113      1.0  0.66510  0.50650  0.53870  1.0000 -0.1502091941
C   C114      1.0  0.33490  0.49350  0.03870  1.0000 -0.1502091941
C   C115      1.0  0.99350  0.16510  0.78870  1.0000 -0.1502091941
C   C116      1.0  0.00650  0.83490  0.28870  1.0000 -0.1502091941
C   C117      1.0  0.83490  0.00650  0.71130  1.0000 -0.1502091941
C   C118      1.0  0.16510  0.99350  0.21130  1.0000 -0.1502091941
C   C119      1.0  0.50650  0.66510  0.46130  1.0000 -0.1502091941
C   C120      1.0  0.49350  0.33490  0.96130  1.0000 -0.1502091941
C   C121      1.0  0.73170  0.52090  0.49900  1.0000 -0.1076688035
C   C122      1.0  0.26830  0.47910  0.99900  1.0000 -0.1076688035
C   C123      1.0  0.97910  0.23170  0.74900  1.0000 -0.1076688035
C   C124      1.0  0.02090  0.76830  0.24900  1.0000 -0.1076688035
C   C125      1.0  0.76830  0.02090  0.75100  1.0000 -0.1076688035
C   C126      1.0  0.23170  0.97910  0.25100  1.0000 -0.1076688035
C   C127      1.0  0.52090  0.73170  0.50100  1.0000 -0.1076688035
C   C128      1.0  0.47910  0.26830  0.00100  1.0000 -0.1076688035
C   C129      1.0  0.79370  0.45680  0.49170  1.0000 -0.1590351303
C   C130      1.0  0.20630  0.54320  0.99170  1.0000 -0.1590351303
C   C131      1.0  0.04320  0.29370  0.74170  1.0000 -0.1590351303
C   C132      1.0  0.95680  0.70630  0.24170  1.0000 -0.1590351303
C   C133      1.0  0.70630  0.95680  0.75830  1.0000 -0.1590351303
C   C134      1.0  0.29370  0.04320  0.25830  1.0000 -0.1590351303
C   C135      1.0  0.45680  0.79370  0.50830  1.0000 -0.1590351303
C   C136      1.0  0.54320  0.20630  0.00830  1.0000 -0.1502091941
C   C137      1.0  0.79340  0.38840  0.53000  1.0000 0.0688025391
C   C138      1.0  0.20660  0.61160  0.03000  1.0000 0.0688025391
C   C139      1.0  0.11160  0.29340  0.78000  1.0000 0.0688025391
C   C140      1.0  0.88840  0.70660  0.28000  1.0000 0.0688025391
C   C141      1.0  0.70660  0.88840  0.72000  1.0000 0.0688025391
C   C142      1.0  0.29340  0.11160  0.22000  1.0000 0.0688025391
C   C143      1.0  0.38840  0.79340  0.47000  1.0000 0.0688025391
C   C144      1.0  0.61160  0.20660  0.97000  1.0000 0.0688025391
C   C145      1.0  0.72650  0.37530  0.57010  1.0000 -0.1912201886
C   C146      1.0  0.27350  0.62470  0.07010  1.0000 -0.1912201886
C   C147      1.0  0.12470  0.22650  0.82010  1.0000 -0.1912201886
C   C148      1.0  0.87530  0.77350  0.32010  1.0000 -0.1912201886
C   C149      1.0  0.77350  0.87530  0.67990  1.0000 -0.1912201886
C   C150      1.0  0.22650  0.12470  0.17990  1.0000 -0.1912201886
C   C151      1.0  0.37530  0.72650  0.42990  1.0000 -0.1912201886
C   C152      1.0  0.62470  0.27350  0.92990  1.0000 -0.1912201886
C   C153      1.0  0.86010  0.31990  0.52250  1.0000 0.1202814621
C   C154      1.0  0.13990  0.68010  0.02250  1.0000 0.1202814621
C   C155      1.0  0.18010  0.36010  0.77250  1.0000 0.1202814621
C   C156      1.0  0.81990  0.63990  0.27250  1.0000 0.1202814621
C   C157      1.0  0.63990  0.81990  0.72750  1.0000 0.1202814621
C   C158      1.0  0.36010  0.18010  0.22750  1.0000 0.1202814621
C   C159      1.0  0.31990  0.86010  0.47750  1.0000 0.1202814621
C   C160      1.0  0.68010  0.13990  0.97750  1.0000 0.1202814621
C   C161      1.0  0.87700  0.26490  0.57130  1.0000 -0.2121040331
C   C162      1.0  0.12300  0.73510  0.07130  1.0000 -0.2121040331
C   C163      1.0  0.23510  0.37700  0.82130  1.0000 -0.2121040331
C   C164      1.0  0.76490  0.62300  0.32130  1.0000 -0.2121040331
C   C165      1.0  0.62300  0.76490  0.67870  1.0000 -0.2121040331
C   C166      1.0  0.37700  0.23510  0.17870  1.0000 -0.2121040331
C   C167      1.0  0.26490  0.87700  0.42870  1.0000 -0.2121040331
C   C168      1.0  0.73510  0.12300  0.92870  1.0000 -0.2121040331
C   C169      1.0  0.93360  0.20030  0.56020  1.0000 0.0787060368
C   C170      1.0  0.06640  0.79970  0.06020  1.0000 0.0787060368
C   C171      1.0  0.29970  0.43360  0.81020  1.0000 0.0787060368
C   C172      1.0  0.70030  0.56640  0.31020  1.0000 0.0787060368
C   C173      1.0  0.56640  0.70030  0.68980  1.0000 0.0787060368
C   C174      1.0  0.43360  0.29970  0.18980  1.0000 0.0787060368
C   C175      1.0  0.20030  0.93360  0.43980  1.0000 0.0787060368
C   C176      1.0  0.79970  0.06640  0.93980  1.0000 0.0787060368
C   C177      1.0  0.96110  0.24460  0.46390  1.0000 0.0410738929
C   C178      1.0  0.03890  0.75540  0.96390  1.0000 0.0410738929
C   C179      1.0  0.25540  0.46110  0.71390  1.0000 0.0410738929
C   C180      1.0  0.74460  0.53890  0.21390  1.0000 0.0410738929
C   C181      1.0  0.53890  0.74460  0.78610  1.0000 0.0410738929
C   C182      1.0  0.46110  0.25540  0.28610  1.0000 0.0410738929
C   C183      1.0  0.24460  0.96110  0.53610  1.0000 0.0410738929
C   C184      1.0  0.75540  0.03890  0.03610  1.0000 0.0410738929
C   C185      1.0  0.90630  0.31150  0.46800  1.0000 -0.1912201886
C   C186      1.0  0.09370  0.68850  0.96800  1.0000 -0.1912201886
C   C187      1.0  0.18850  0.40630  0.71800  1.0000 -0.1912201886
C   C188      1.0  0.81150  0.59370  0.21800  1.0000 -0.1912201886
C   C189      1.0  0.59370  0.81150  0.78200  1.0000 -0.1912201886
C   C190      1.0  0.40630  0.18850  0.28200  1.0000 -0.1912201886
C   C191      1.0  0.31150  0.90630  0.53200  1.0000 -0.1912201886
C   C192      1.0  0.68850  0.09370  0.03200  1.0000 -0.1912201886
N   N1        1.0  0.87450  0.88060  0.91160  1.0000 -0.2391421753
N   N2        1.0  0.12550  0.11940  0.41160  1.0000 -0.2391421753
N   N3        1.0  0.61940  0.37450  0.16160  1.0000 -0.2391421753
N   N4        1.0  0.38060  0.62550  0.66160  1.0000 -0.2391421753
N   N5        1.0  0.62550  0.38060  0.33840  1.0000 -0.2391421753
N   N6        1.0  0.37450  0.61940  0.83840  1.0000 -0.2391421753
N   N7        1.0  0.88060  0.87450  0.08840  1.0000 -0.2391421753
N   N8        1.0  0.11940  0.12550  0.58840  1.0000 -0.2391421753
N   N9        1.0  0.49170  0.45590  0.68370  1.0000 -0.2204212392
N   N10       1.0  0.50830  0.54410  0.18370  1.0000 -0.2204212392
N   N11       1.0  0.04410  0.99170  0.93370  1.0000 -0.2204212392
N   N12       1.0  0.95590  0.00830  0.43370  1.0000 -0.2204212392
N   N13       1.0  0.00830  0.95590  0.56630  1.0000 -0.2204212392
N   N14       1.0  0.99170  0.04410  0.06630  1.0000 -0.2204212392
N   N15       1.0  0.45590  0.49170  0.31630  1.0000 -0.2204212392
N   N16       1.0  0.54410  0.50830  0.81630  1.0000 -0.2204212392
N   N17       1.0  0.55270  0.48950  0.64460  1.0000 -0.2718973453
N   N18       1.0  0.44730  0.51050  0.14460  1.0000 -0.2718973453
N   N19       1.0  0.01050  0.05270  0.89460  1.0000 -0.2718973453
N   N20       1.0  0.98950  0.94730  0.39460  1.0000 -0.2718973453
N   N21       1.0  0.94730  0.98950  0.60540  1.0000 -0.2718973453
N   N22       1.0  0.05270  0.01050  0.10540  1.0000 -0.2718973453
N   N23       1.0  0.48950  0.55270  0.35540  1.0000 -0.2718973453
N   N24       1.0  0.51050  0.44730  0.85540  1.0000 -0.2718973453
N   N25       1.0  0.55980  0.35300  0.64180  1.0000 0.0617449093
N   N26       1.0  0.44020  0.64700  0.14180  1.0000 0.0617449093
N   N27       1.0  0.14700  0.05980  0.89180  1.0000 0.0617449093
N   N28       1.0  0.85300  0.94020  0.39180  1.0000 0.0617449093
N   N29       1.0  0.94020  0.85300  0.60820  1.0000 0.0617449093
N   N30       1.0  0.05980  0.14700  0.10820  1.0000 0.0617449093
N   N31       1.0  0.35300  0.55980  0.35820  1.0000 0.0617449093
N   N32       1.0  0.64700  0.44020  0.85820  1.0000 0.0617449093
N   N33       1.0  0.58120  0.26900  0.62330  1.0000 -0.5075009572
N   N34       1.0  0.41880  0.73100  0.12330  1.0000 -0.5075009572
N   N35       1.0  0.23100  0.08120  0.87330  1.0000 -0.5075009572
N   N36       1.0  0.76900  0.91880  0.37330  1.0000 -0.5075009572
N   N37       1.0  0.91880  0.76900  0.62670  1.0000 -0.5075009572
N   N38       1.0  0.08120  0.23100  0.12670  1.0000 -0.5075009572
N   N39       1.0  0.26900  0.58120  0.37670  1.0000 -0.5075009572
N   N40       1.0  0.73100  0.41880  0.87670  1.0000 -0.5075009572
N   N41       1.0  0.97640  0.18750  0.50910  1.0000 -0.2391421753
N   N42       1.0  0.02360  0.81250  0.00910  1.0000 -0.2391421753
N   N43       1.0  0.31250  0.47640  0.75910  1.0000 -0.2391421753
N   N44       1.0  0.68750  0.52360  0.25910  1.0000 -0.2391421753
N   N45       1.0  0.52360  0.68750  0.74090  1.0000 -0.2391421753
N   N46       1.0  0.47640  0.31250  0.24090  1.0000 -0.2391421753
N   N47       1.0  0.18750  0.97640  0.49090  1.0000 -0.2391421753
N   N48       1.0  0.81250  0.02360  0.99090  1.0000 -0.2391421753
Cl  Cl1       1.0  0.12487  0.87513  0.75000  1.0000 1.1296548439
Cl  Cl2       1.0  0.87513  0.12487  0.25000  1.0000 1.1296548439
Cl  Cl3       1.0  0.37513  0.37513  0.50000  1.0000 1.1296548439
Cl  Cl4       1.0  0.62487  0.62487  0.00000  1.0000 1.1296548439
O   O1        1.0  0.11630  0.93350  0.79220  1.0000 -0.3861684198
O   O2        1.0  0.06650  0.88370  0.70780  1.0000 -0.3861684198
O   O3        1.0  0.19680  0.88660  0.72130  1.0000 -0.3979704337
O   O4        1.0  0.11340  0.80320  0.77870  1.0000 -0.3979704337
O   O5        1.0  0.88370  0.06650  0.29220  1.0000 -0.3861684198
O   O6        1.0  0.93350  0.11630  0.20780  1.0000 -0.3861684198
O   O7        1.0  0.80320  0.11340  0.22130  1.0000 -0.3979704337
O   O8        1.0  0.88660  0.19680  0.27870  1.0000 -0.3979704337
O   O9        1.0  0.43350  0.38370  0.54220  1.0000 -0.3861684198
O   O10       1.0  0.38370  0.43350  0.45780  1.0000 -0.3861684198
O   O11       1.0  0.38660  0.30320  0.47130  1.0000 -0.3979704337
O   O12       1.0  0.30320  0.38660  0.52870  1.0000 -0.3979704337
O   O13       1.0  0.56650  0.61630  0.04220  1.0000 -0.3861684198
O   O14       1.0  0.61630  0.56650  0.95780  1.0000 -0.3861684198
O   O15       1.0  0.61340  0.69680  0.97130  1.0000 -0.3979704337
O   O16       1.0  0.69680  0.61340  0.02870  1.0000 -0.3979704337
