# DDEC6 charges by PACMAN v1.1 (https://github.com/mtap-research/PACMAN-charge/)
data_2011[Sm][pcu]3[ION]1
_chemical_formula_sum              "Sm16 H88 C48 N12 Cl8 O136"
_cell_length_a       11.561
_cell_length_b       20.8211
_cell_length_c       23.6909
_cell_angle_alpha    90
_cell_angle_beta     90
_cell_angle_gamma    90

_symmetry_space_group_name_H-M    "P 1"
_symmetry_Int_Tables_number       1

loop_
  _symmetry_equiv_pos_as_xyz
  'x, y, z'

loop_
  _atom_site_type_symbol
  _atom_site_label
  _atom_site_symmetry_multiplicity
  _atom_site_fract_x
  _atom_site_fract_y
  _atom_site_fract_z
  _atom_site_occupancy
  _atom_site_charge
Sm  Sm1       1.0  0.08013  0.96399  0.76879  1.0000 2.2197511732
Sm  Sm2       1.0  0.41987  0.03601  0.26879  1.0000 2.2197511732
Sm  Sm3       1.0  0.58013  0.53601  0.23121  1.0000 2.2197511732
Sm  Sm4       1.0  0.91987  0.46399  0.73121  1.0000 2.2197511732
Sm  Sm5       1.0  0.41776  0.97349  0.76567  1.0000 2.2276295662
Sm  Sm6       1.0  0.08224  0.02651  0.26567  1.0000 2.2276295662
Sm  Sm7       1.0  0.91776  0.52651  0.23433  1.0000 2.2276295662
Sm  Sm8       1.0  0.58224  0.47349  0.73433  1.0000 2.2276295662
Sm  Sm9       1.0  0.25614  0.87686  0.65162  1.0000 2.2197511732
Sm  Sm10      1.0  0.24386  0.12314  0.15162  1.0000 2.2197511732
Sm  Sm11      1.0  0.75614  0.62314  0.34838  1.0000 2.2197511732
Sm  Sm12      1.0  0.74386  0.37686  0.84838  1.0000 2.2197511732
Sm  Sm13      1.0  0.23458  0.06734  0.65691  1.0000 2.1774948478
Sm  Sm14      1.0  0.26542  0.93266  0.15691  1.0000 2.1774948478
Sm  Sm15      1.0  0.73458  0.43266  0.34309  1.0000 2.1774948478
Sm  Sm16      1.0  0.76542  0.56734  0.84309  1.0000 2.1774948478
H   H1        1.0  0.40420  0.64750  0.68230  1.0000 0.273284777
H   H2        1.0  0.09580  0.35250  0.18230  1.0000 0.273284777
H   H3        1.0  0.90420  0.85250  0.31770  1.0000 0.273284777
H   H4        1.0  0.59580  0.14750  0.81770  1.0000 0.273284777
H   H5        1.0  0.37120  0.71470  0.68670  1.0000 0.2997196816
H   H6        1.0  0.12880  0.28530  0.18670  1.0000 0.2997196816
H   H7        1.0  0.87120  0.78530  0.31330  1.0000 0.2997196816
H   H8        1.0  0.62880  0.21470  0.81330  1.0000 0.2997196816
H   H9        1.0  0.35010  0.67120  0.73360  1.0000 0.2566479385
H   H10       1.0  0.14990  0.32880  0.23360  1.0000 0.2566479385
H   H11       1.0  0.85010  0.82880  0.26640  1.0000 0.2566479385
H   H12       1.0  0.64990  0.17120  0.76640  1.0000 0.2566479385
H   H13       1.0  0.56570  0.70870  0.69780  1.0000 0.1144469619
H   H14       1.0  0.93430  0.29130  0.19780  1.0000 0.1144469619
H   H15       1.0  0.06570  0.79130  0.30220  1.0000 0.1144469619
H   H16       1.0  0.43430  0.20870  0.80220  1.0000 0.1144469619
H   H17       1.0  0.84870  0.71810  0.79090  1.0000 0.286946626
H   H18       1.0  0.65130  0.28190  0.29090  1.0000 0.286946626
H   H19       1.0  0.34870  0.78190  0.20910  1.0000 0.286946626
H   H20       1.0  0.15130  0.21810  0.70910  1.0000 0.286946626
H   H21       1.0  0.83920  0.76630  0.74680  1.0000 0.2457817981
H   H22       1.0  0.66080  0.23370  0.24680  1.0000 0.2457817981
H   H23       1.0  0.33920  0.73370  0.25320  1.0000 0.2457817981
H   H24       1.0  0.16080  0.26630  0.75320  1.0000 0.2431614935
H   H25       1.0  0.87690  0.78470  0.80300  1.0000 0.2777085926
H   H26       1.0  0.62310  0.21530  0.30300  1.0000 0.2777085926
H   H27       1.0  0.37690  0.71530  0.19700  1.0000 0.2777085926
H   H28       1.0  0.12310  0.28470  0.69700  1.0000 0.2777085926
H   H29       1.0  0.45890  0.74240  0.80050  1.0000 0.169009796
H   H30       1.0  0.04110  0.25760  0.30050  1.0000 0.169009796
H   H31       1.0  0.95890  0.75760  0.19950  1.0000 0.169009796
H   H32       1.0  0.54110  0.24240  0.69950  1.0000 0.169009796
H   H33       1.0  0.58570  0.76120  0.78460  1.0000 0.169009796
H   H34       1.0  0.91430  0.23880  0.28460  1.0000 0.169009796
H   H35       1.0  0.08570  0.73880  0.21540  1.0000 0.169009796
H   H36       1.0  0.41430  0.26120  0.71540  1.0000 0.169009796
H   H37       1.0  0.13770  0.08380  0.50640  1.0000 0.2997196816
H   H38       1.0  0.36230  0.91620  0.00640  1.0000 0.2997196816
H   H39       1.0  0.63770  0.41620  0.49360  1.0000 0.2997196816
H   H40       1.0  0.86230  0.58380  0.99360  1.0000 0.2997196816
H   H41       1.0  0.07580  0.05790  0.45810  1.0000 0.273284777
H   H42       1.0  0.42420  0.94210  0.95810  1.0000 0.273284777
H   H43       1.0  0.57580  0.44210  0.54190  1.0000 0.273284777
H   H44       1.0  0.92420  0.55790  0.04190  1.0000 0.273284777
H   H45       1.0  0.13160  0.12030  0.45420  1.0000 0.273284777
H   H46       1.0  0.36840  0.87970  0.95420  1.0000 0.2777085926
H   H47       1.0  0.63160  0.37970  0.54580  1.0000 0.2777085926
H   H48       1.0  0.86840  0.62030  0.04580  1.0000 0.2777085926
H   H49       1.0  0.04620  0.73050  0.79450  1.0000 0.1344035422
H   H50       1.0  0.45380  0.26950  0.29450  1.0000 0.1344035422
H   H51       1.0  0.54620  0.76950  0.20550  1.0000 0.1344035422
H   H52       1.0  0.95380  0.23050  0.70550  1.0000 0.1344035422
H   H53       1.0  0.08770  0.68150  0.70690  1.0000 0.169009796
H   H54       1.0  0.41230  0.31850  0.20690  1.0000 0.169009796
H   H55       1.0  0.58770  0.81850  0.29310  1.0000 0.169009796
H   H56       1.0  0.91230  0.18150  0.79310  1.0000 0.169009796
H   H57       1.0  0.96020  0.69470  0.68800  1.0000 0.169009796
H   H58       1.0  0.53980  0.30530  0.18800  1.0000 0.169009796
H   H59       1.0  0.46020  0.80530  0.31200  1.0000 0.169009796
H   H60       1.0  0.03980  0.19470  0.81200  1.0000 0.169009796
H   H61       1.0  0.31260  0.07380  0.46170  1.0000 0.1344035422
H   H62       1.0  0.18740  0.92620  0.96170  1.0000 0.1344035422
H   H63       1.0  0.81260  0.42620  0.53830  1.0000 0.1344035422
H   H64       1.0  0.68740  0.57380  0.03830  1.0000 0.1344035422
H   H65       1.0  0.18310  0.95780  0.45680  1.0000 0.1584808916
H   H66       1.0  0.31690  0.04220  0.95680  1.0000 0.1584808916
H   H67       1.0  0.68310  0.54220  0.54320  1.0000 0.1584808916
H   H68       1.0  0.81690  0.45780  0.04320  1.0000 0.1584808916
H   H69       1.0  0.31840  0.96050  0.45670  1.0000 0.1825039252
H   H70       1.0  0.18160  0.03950  0.95670  1.0000 0.1825039252
H   H71       1.0  0.81840  0.53950  0.54330  1.0000 0.1825039252
H   H72       1.0  0.68160  0.46050  0.04330  1.0000 0.1825039252
H   H73       1.0  0.25710  0.86660  0.77470  1.0000 0.4595805406
H   H74       1.0  0.24290  0.13340  0.27470  1.0000 0.4595805406
H   H75       1.0  0.75710  0.63340  0.22530  1.0000 0.4595805406
H   H76       1.0  0.74290  0.36660  0.72530  1.0000 0.4595805406
H   H77       1.0  0.23960  0.07030  0.78230  1.0000 0.4595805406
H   H78       1.0  0.26040  0.92970  0.28230  1.0000 0.4595805406
H   H79       1.0  0.73960  0.42970  0.21770  1.0000 0.4595805406
H   H80       1.0  0.76040  0.57030  0.71770  1.0000 0.4595805406
H   H81       1.0  0.42970  0.97910  0.64400  1.0000 0.4340744704
H   H82       1.0  0.07030  0.02090  0.14400  1.0000 0.4340744704
H   H83       1.0  0.92970  0.52090  0.35600  1.0000 0.4340744704
H   H84       1.0  0.57030  0.47910  0.85600  1.0000 0.4340744704
H   H85       1.0  0.05520  0.96680  0.64680  1.0000 0.4595805406
H   H86       1.0  0.44480  0.03320  0.14680  1.0000 0.466642493
H   H87       1.0  0.55520  0.53320  0.35320  1.0000 0.4595805406
H   H88       1.0  0.94480  0.46680  0.85320  1.0000 0.466642493
C   C1        1.0  0.56770  0.63680  0.75710  1.0000 0.6037801146
C   C2        1.0  0.93230  0.36320  0.25710  1.0000 0.6037801146
C   C3        1.0  0.06770  0.86320  0.24290  1.0000 0.6037801146
C   C4        1.0  0.43230  0.13680  0.74290  1.0000 0.6037801146
C   C5        1.0  0.51560  0.69670  0.72940  1.0000 0.0401676286
C   C6        1.0  0.98440  0.30330  0.22940  1.0000 0.0401676286
C   C7        1.0  0.01560  0.80330  0.27060  1.0000 0.0401676286
C   C8        1.0  0.48440  0.19670  0.77060  1.0000 0.0401676286
C   C9        1.0  0.50910  0.75370  0.76920  1.0000 -0.3906279806
C   C10       1.0  0.99090  0.24630  0.26920  1.0000 -0.3906279806
C   C11       1.0  0.00910  0.74630  0.23080  1.0000 -0.3906279806
C   C12       1.0  0.49090  0.25370  0.73080  1.0000 -0.3906279806
C   C13       1.0  0.46610  0.81550  0.74390  1.0000 0.7215381503
C   C14       1.0  0.03390  0.18450  0.24390  1.0000 0.7215381503
C   C15       1.0  0.96610  0.68450  0.25610  1.0000 0.7215381503
C   C16       1.0  0.53390  0.31550  0.75610  1.0000 0.7215381503
C   C17       1.0  0.05370  0.80410  0.73640  1.0000 0.609926188
C   C18       1.0  0.44630  0.19590  0.23640  1.0000 0.609926188
C   C19       1.0  0.55370  0.69590  0.26360  1.0000 0.6037801146
C   C20       1.0  0.94630  0.30410  0.76360  1.0000 0.609926188
C   C21       1.0  0.00280  0.74180  0.76040  1.0000 0.0474124566
C   C22       1.0  0.49720  0.25820  0.26040  1.0000 0.0474124566
C   C23       1.0  0.50280  0.75820  0.23960  1.0000 0.0474124566
C   C24       1.0  0.99720  0.24180  0.73960  1.0000 0.0474124566
C   C25       1.0  0.00890  0.68570  0.72040  1.0000 -0.3807601784
C   C26       1.0  0.49110  0.31430  0.22040  1.0000 -0.3807601784
C   C27       1.0  0.50890  0.81430  0.27960  1.0000 -0.3807601784
C   C28       1.0  0.99110  0.18570  0.77960  1.0000 -0.3807601784
C   C29       1.0  0.97110  0.62190  0.74650  1.0000 0.7215381503
C   C30       1.0  0.52890  0.37810  0.24650  1.0000 0.7215381503
C   C31       1.0  0.47110  0.87810  0.25350  1.0000 0.7215381503
C   C32       1.0  0.02890  0.12190  0.75350  1.0000 0.7215381503
C   C33       1.0  0.24320  0.04570  0.38420  1.0000 0.609926188
C   C34       1.0  0.25680  0.95430  0.88420  1.0000 0.609926188
C   C35       1.0  0.74320  0.45430  0.61580  1.0000 0.609926188
C   C36       1.0  0.75680  0.54570  0.11580  1.0000 0.609926188
C   C37       1.0  0.24480  0.04960  0.44887  1.0000 0.0339108373
C   C38       1.0  0.25520  0.95040  0.94887  1.0000 0.0339108373
C   C39       1.0  0.74480  0.45040  0.55113  1.0000 0.0401676286
C   C40       1.0  0.75520  0.54960  0.05113  1.0000 0.0339108373
C   C41       1.0  0.24930  0.98120  0.47130  1.0000 -0.3807601784
C   C42       1.0  0.25070  0.01880  0.97130  1.0000 -0.3807601784
C   C43       1.0  0.74930  0.51880  0.52870  1.0000 -0.3906279806
C   C44       1.0  0.75070  0.48120  0.02870  1.0000 -0.3906279806
C   C45       1.0  0.24980  0.97580  0.53488  1.0000 0.7215381503
C   C46       1.0  0.25020  0.02420  0.03488  1.0000 0.7268173337
C   C47       1.0  0.74980  0.52420  0.46512  1.0000 0.7268173337
C   C48       1.0  0.75020  0.47580  0.96512  1.0000 0.7268173337
N   N1        1.0  0.39830  0.68090  0.70560  1.0000 -0.3906279806
N   N2        1.0  0.10170  0.31910  0.20560  1.0000 -0.3906279806
N   N3        1.0  0.89830  0.81910  0.29440  1.0000 -0.3906279806
N   N4        1.0  0.60170  0.18090  0.79440  1.0000 -0.3906279806
N   N5        1.0  0.87930  0.75400  0.77700  1.0000 -0.4134532174
N   N6        1.0  0.62070  0.24600  0.27700  1.0000 -0.4134532174
N   N7        1.0  0.37930  0.74600  0.22300  1.0000 -0.4134532174
N   N8        1.0  0.12070  0.25400  0.72300  1.0000 -0.4134532174
N   N9        1.0  0.13660  0.08110  0.46890  1.0000 -0.4439110518
N   N10       1.0  0.36340  0.91890  0.96890  1.0000 -0.4439110518
N   N11       1.0  0.63660  0.41890  0.53110  1.0000 -0.4477348388
N   N12       1.0  0.86340  0.58110  0.03110  1.0000 -0.4477348388
Cl  Cl1       1.0  0.40540  0.48604  0.99766  1.0000 1.1282472452
Cl  Cl2       1.0  0.09460  0.51396  0.49766  1.0000 1.1282472452
Cl  Cl3       1.0  0.90540  0.01396  0.00234  1.0000 1.1507314682
Cl  Cl4       1.0  0.59460  0.98604  0.50234  1.0000 1.1282472452
Cl  Cl5       1.0  0.98860  0.28702  0.54986  1.0000 1.2162870705
Cl  Cl6       1.0  0.51140  0.71298  0.04986  1.0000 1.2162870705
Cl  Cl7       1.0  0.48860  0.21298  0.45014  1.0000 1.2162870705
Cl  Cl8       1.0  0.01140  0.78702  0.95014  1.0000 1.2162870705
O   O1        1.0  0.25290  0.90502  0.75093  1.0000 -1.1491271913
O   O2        1.0  0.24710  0.09498  0.25093  1.0000 -1.1491271913
O   O3        1.0  0.75290  0.59498  0.24907  1.0000 -1.1491271913
O   O4        1.0  0.74710  0.40502  0.74907  1.0000 -1.1491271913
O   O5        1.0  0.24210  0.03354  0.75642  1.0000 -1.162685132
O   O6        1.0  0.25790  0.96646  0.25642  1.0000 -1.162685132
O   O7        1.0  0.74210  0.46646  0.24358  1.0000 -1.162685132
O   O8        1.0  0.75790  0.53354  0.74358  1.0000 -1.162685132
O   O9        1.0  0.36200  0.97586  0.66874  1.0000 -1.1131269097
O   O10       1.0  0.13800  0.02414  0.16874  1.0000 -1.1164894462
O   O11       1.0  0.86200  0.52414  0.33126  1.0000 -1.1131269097
O   O12       1.0  0.63800  0.47586  0.83126  1.0000 -1.1164894462
O   O13       1.0  0.12480  0.96821  0.67036  1.0000 -1.1131269097
O   O14       1.0  0.37520  0.03179  0.17036  1.0000 -1.1131269097
O   O15       1.0  0.62480  0.53179  0.32964  1.0000 -1.1131269097
O   O16       1.0  0.87520  0.46821  0.82964  1.0000 -1.1131269097
O   O17       1.0  0.52100  0.58407  0.74470  1.0000 -0.620569019
O   O18       1.0  0.97900  0.41593  0.24470  1.0000 -0.620569019
O   O19       1.0  0.02100  0.91593  0.25530  1.0000 -0.620569019
O   O20       1.0  0.47900  0.08407  0.75530  1.0000 -0.620569019
O   O21       1.0  0.65090  0.64540  0.78874  1.0000 -0.5994907252
O   O22       1.0  0.84910  0.35460  0.28874  1.0000 -0.5994907252
O   O23       1.0  0.15090  0.85460  0.21126  1.0000 -0.5994907252
O   O24       1.0  0.34910  0.14540  0.71126  1.0000 -0.5994907252
O   O25       1.0  0.39990  0.81180  0.70155  1.0000 -0.6079035759
O   O26       1.0  0.10010  0.18820  0.20155  1.0000 -0.6079035759
O   O27       1.0  0.89990  0.68820  0.29845  1.0000 -0.6079035759
O   O28       1.0  0.60010  0.31180  0.79845  1.0000 -0.6079035759
O   O29       1.0  0.49590  0.86690  0.76690  1.0000 -0.6267857562
O   O30       1.0  0.00410  0.13310  0.26690  1.0000 -0.6267857562
O   O31       1.0  0.99590  0.63310  0.23310  1.0000 -0.6267857562
O   O32       1.0  0.50410  0.36690  0.73310  1.0000 -0.6267857562
O   O33       1.0  0.01240  0.85600  0.75520  1.0000 -0.5994907252
O   O34       1.0  0.48760  0.14400  0.25520  1.0000 -0.5994907252
O   O35       1.0  0.51240  0.64400  0.24480  1.0000 -0.5994907252
O   O36       1.0  0.98760  0.35600  0.74480  1.0000 -0.5994907252
O   O37       1.0  0.13230  0.79810  0.70170  1.0000 -0.579275465
O   O38       1.0  0.36770  0.20190  0.20170  1.0000 -0.5739896059
O   O39       1.0  0.63230  0.70190  0.29830  1.0000 -0.5739896059
O   O40       1.0  0.86770  0.29810  0.79830  1.0000 -0.5739896059
O   O41       1.0  0.99880  0.57170  0.72050  1.0000 -0.6267857562
O   O42       1.0  0.50120  0.42830  0.22050  1.0000 -0.6267857562
O   O43       1.0  0.49880  0.92830  0.27950  1.0000 -0.6267857562
O   O44       1.0  0.00120  0.07170  0.77950  1.0000 -0.6267857562
O   O45       1.0  0.91490  0.62390  0.79180  1.0000 -0.620569019
O   O46       1.0  0.58510  0.37610  0.29180  1.0000 -0.620569019
O   O47       1.0  0.41490  0.87610  0.20820  1.0000 -0.6267857562
O   O48       1.0  0.08510  0.12390  0.70820  1.0000 -0.6267857562
O   O49       1.0  0.14580  0.04430  0.36021  1.0000 -0.6267857562
O   O50       1.0  0.35420  0.95570  0.86021  1.0000 -0.620569019
O   O51       1.0  0.64580  0.45570  0.63979  1.0000 -0.6267857562
O   O52       1.0  0.85420  0.54430  0.13979  1.0000 -0.620569019
O   O53       1.0  0.33970  0.04150  0.36149  1.0000 -0.5994907252
O   O54       1.0  0.16030  0.95850  0.86149  1.0000 -0.5994907252
O   O55       1.0  0.83970  0.45850  0.63851  1.0000 -0.5994907252
O   O56       1.0  0.66030  0.54150  0.13851  1.0000 -0.5994907252
O   O57       1.0  0.24570  0.02673  0.56239  1.0000 -0.5868969237
O   O58       1.0  0.25430  0.97327  0.06239  1.0000 -0.5868969237
O   O59       1.0  0.74570  0.47327  0.43761  1.0000 -0.5868969237
O   O60       1.0  0.75430  0.52673  0.93761  1.0000 -0.5868969237
O   O61       1.0  0.25590  0.92043  0.55547  1.0000 -0.5868969237
O   O62       1.0  0.24410  0.07957  0.05547  1.0000 -0.5868969237
O   O63       1.0  0.75590  0.57957  0.44453  1.0000 -0.5868969237
O   O64       1.0  0.74410  0.42043  0.94453  1.0000 -0.579275465
O   O65       1.0  0.88560  0.96760  0.72000  1.0000 -0.4206055505
O   O66       1.0  0.61440  0.03240  0.22000  1.0000 -0.4206055505
O   O67       1.0  0.38560  0.53240  0.28000  1.0000 -0.4206055505
O   O68       1.0  0.11440  0.46760  0.78000  1.0000 -0.4206055505
O   O69       1.0  0.92440  0.94740  0.84250  1.0000 -0.147708422
O   O70       1.0  0.57560  0.05260  0.34250  1.0000 -0.147708422
O   O71       1.0  0.42440  0.55260  0.15750  1.0000 -0.147708422
O   O72       1.0  0.07560  0.44740  0.65750  1.0000 -0.147708422
O   O73       1.0  0.60040  0.97230  0.70660  1.0000 -0.3382547557
O   O74       1.0  0.89960  0.02770  0.20660  1.0000 -0.3382547557
O   O75       1.0  0.10040  0.52770  0.29340  1.0000 -0.3382547557
O   O76       1.0  0.39960  0.47230  0.79340  1.0000 -0.3382547557
O   O77       1.0  0.58480  0.98560  0.83050  1.0000 -0.4601369709
O   O78       1.0  0.91520  0.01440  0.33050  1.0000 -0.4477348388
O   O79       1.0  0.08480  0.51440  0.16950  1.0000 -0.4673577011
O   O80       1.0  0.41520  0.48560  0.66950  1.0000 -0.4601369709
O   O81       1.0  0.06630  0.85700  0.59870  1.0000 -0.478447324
O   O82       1.0  0.43370  0.14300  0.09870  1.0000 -0.478447324
O   O83       1.0  0.56630  0.64300  0.40130  1.0000 -0.478447324
O   O84       1.0  0.93370  0.35700  0.90130  1.0000 -0.478447324
O   O85       1.0  0.26700  0.77090  0.60310  1.0000 -0.5994907252
O   O86       1.0  0.23300  0.22910  0.10310  1.0000 -0.6079035759
O   O87       1.0  0.76700  0.72910  0.39690  1.0000 -0.5994907252
O   O88       1.0  0.73300  0.27090  0.89690  1.0000 -0.6079035759
O   O89       1.0  0.44880  0.86500  0.60030  1.0000 -0.3014145852
O   O90       1.0  0.05120  0.13500  0.10030  1.0000 -0.3014145852
O   O91       1.0  0.94880  0.63500  0.39970  1.0000 -0.3014145852
O   O92       1.0  0.55120  0.36500  0.89970  1.0000 -0.2936069727
O   O93       1.0  0.42480  0.09610  0.60700  1.0000 -0.2218789816
O   O94       1.0  0.07520  0.90390  0.10700  1.0000 -0.2306572855
O   O95       1.0  0.92480  0.40390  0.39300  1.0000 -0.2218789816
O   O96       1.0  0.57520  0.59610  0.89300  1.0000 -0.2218789816
O   O97       1.0  0.21340  0.17750  0.61300  1.0000 -0.3536799213
O   O98       1.0  0.28660  0.82250  0.11300  1.0000 -0.3536799213
O   O99       1.0  0.71340  0.32250  0.38700  1.0000 -0.3536799213
O   O100      1.0  0.78660  0.67750  0.88700  1.0000 -0.3585260272
O   O101      1.0  0.04520  0.08210  0.59700  1.0000 -0.3906279806
O   O102      1.0  0.45480  0.91790  0.09700  1.0000 -0.3807601784
O   O103      1.0  0.54520  0.41790  0.40300  1.0000 -0.3807601784
O   O104      1.0  0.95480  0.58210  0.90300  1.0000 -0.3807601784
O   O105      1.0  0.34280  0.47500  0.04840  1.0000 -0.3134950757
O   O106      1.0  0.31950  0.49270  0.95790  1.0000 -0.4206055505
O   O107      1.0  0.47690  0.43340  0.98870  1.0000 -0.3536799213
O   O108      1.0  0.47650  0.53820  0.00790  1.0000 -0.3807601784
O   O109      1.0  0.15720  0.52500  0.54840  1.0000 -0.3134950757
O   O110      1.0  0.18050  0.50730  0.45790  1.0000 -0.4206055505
O   O111      1.0  0.02310  0.56660  0.48870  1.0000 -0.3536799213
O   O112      1.0  0.02350  0.46180  0.50790  1.0000 -0.3807601784
O   O113      1.0  0.84280  0.02500  0.95160  1.0000 -0.3211641669
O   O114      1.0  0.81950  0.00730  0.04210  1.0000 -0.4134532174
O   O115      1.0  0.97690  0.06660  0.01130  1.0000 -0.3585260272
O   O116      1.0  0.97650  0.96180  0.99210  1.0000 -0.3906279806
O   O117      1.0  0.65720  0.97500  0.45160  1.0000 -0.3134950757
O   O118      1.0  0.68050  0.99270  0.54210  1.0000 -0.4134532174
O   O119      1.0  0.52310  0.93340  0.51130  1.0000 -0.3536799213
O   O120      1.0  0.52350  0.03820  0.49210  1.0000 -0.3807601784
O   O121      1.0  0.01730  0.31370  0.60200  1.0000 -0.4206055505
O   O122      1.0  0.01620  0.22110  0.55050  1.0000 -0.3906279806
O   O123      1.0  0.04340  0.31340  0.50180  1.0000 -0.3807601784
O   O124      1.0  0.86800  0.29660  0.54430  1.0000 -0.4206055505
O   O125      1.0  0.48270  0.68630  0.10200  1.0000 -0.4206055505
O   O126      1.0  0.48380  0.77890  0.05050  1.0000 -0.3906279806
O   O127      1.0  0.45660  0.68660  0.00180  1.0000 -0.3807601784
O   O128      1.0  0.63200  0.70340  0.04430  1.0000 -0.4206055505
O   O129      1.0  0.51730  0.18630  0.39800  1.0000 -0.4206055505
O   O130      1.0  0.51620  0.27890  0.44950  1.0000 -0.3906279806
O   O131      1.0  0.54340  0.18660  0.49820  1.0000 -0.3807601784
O   O132      1.0  0.36800  0.20340  0.45570  1.0000 -0.4206055505
O   O133      1.0  0.98270  0.81370  0.89800  1.0000 -0.4206055505
O   O134      1.0  0.98380  0.72110  0.94950  1.0000 -0.3906279806
O   O135      1.0  0.95660  0.81340  0.99820  1.0000 -0.3807601784
O   O136      1.0  0.13200  0.79660  0.95570  1.0000 -0.4206055505
