# DDEC6 charges by PACMAN v1.1 (https://github.com/mtap-research/PACMAN-charge/)
data_2011[In][nan]3[ION]2
_chemical_formula_sum              "In24 H248 C356 N8 O136"
_cell_length_a       22.1386
_cell_length_b       22.1386
_cell_length_c       36.2651
_cell_angle_alpha    90
_cell_angle_beta     90
_cell_angle_gamma    90

_symmetry_space_group_name_H-M    "P 1"
_symmetry_Int_Tables_number       1

loop_
  _symmetry_equiv_pos_as_xyz
  'x, y, z'

loop_
  _atom_site_type_symbol
  _atom_site_label
  _atom_site_symmetry_multiplicity
  _atom_site_fract_x
  _atom_site_fract_y
  _atom_site_fract_z
  _atom_site_occupancy
  _atom_site_charge
In  In1       1.0  0.21649  0.50344  0.65404  1.0000 1.5085977692
In  In2       1.0  0.15662  0.50044  0.73829  1.0000 1.4634770815
In  In3       1.0  0.80831  0.98284  0.52189  1.0000 1.487096018
In  In4       1.0  0.78377  0.49703  0.15400  1.0000 1.5085977692
In  In5       1.0  0.84306  0.49953  0.23820  1.0000 1.4634770815
In  In6       1.0  0.19150  0.01656  0.02154  1.0000 1.487096018
In  In7       1.0  0.99758  0.71605  0.40403  1.0000 1.5040544846
In  In8       1.0  0.99963  0.65675  0.48832  1.0000 1.4634770815
In  In9       1.0  0.51695  0.30875  0.27169  1.0000 1.487096018
In  In10      1.0  0.00380  0.28367  0.90362  1.0000 1.5085977692
In  In11      1.0  0.00124  0.34298  0.98800  1.0000 1.4634770815
In  In12      1.0  0.48344  0.69125  0.77163  1.0000 1.487096018
In  In13      1.0  0.28350  0.00329  0.09567  1.0000 1.5085977692
In  In14      1.0  0.34315  0.00066  0.01149  1.0000 1.4634770815
In  In15      1.0  0.69189  0.48333  0.22796  1.0000 1.487096018
In  In16      1.0  0.71624  0.99614  0.59592  1.0000 1.5040544846
In  In17      1.0  0.65655  0.99929  0.51164  1.0000 1.4634770815
In  In18      1.0  0.30818  0.51689  0.72796  1.0000 1.4839121082
In  In19      1.0  0.50411  0.21657  0.34611  1.0000 1.5085977692
In  In20      1.0  0.50129  0.15694  0.26185  1.0000 1.4651944616
In  In21      1.0  0.98329  0.80845  0.47794  1.0000 1.487096018
In  In22      1.0  0.49730  0.78379  0.84559  1.0000 1.5085977692
In  In23      1.0  0.49954  0.84312  0.76137  1.0000 1.4634770815
In  In24      1.0  0.01717  0.19139  0.97782  1.0000 1.487096018
H   H1        1.0  0.06819  0.61029  0.61024  1.0000 0.1093732313
H   H2        1.0  0.99442  0.68733  0.59318  1.0000 0.1013735849
H   H3        1.0  0.97289  0.73560  0.70766  1.0000 0.1093732313
H   H4        1.0  0.04657  0.65752  0.72476  1.0000 0.1167338888
H   H5        1.0  0.99809  0.79496  0.59204  1.0000 0.1013735849
H   H6        1.0  0.93669  0.87679  0.57013  1.0000 0.1093732313
H   H7        1.0  0.80803  0.84549  0.65710  1.0000 0.1013735849
H   H8        1.0  0.87193  0.76231  0.68020  1.0000 0.1013735849
H   H9        1.0  0.31504  0.68676  0.78122  1.0000 0.1093732313
H   H10       1.0  0.31685  0.77284  0.82250  1.0000 0.1093732313
H   H11       1.0  0.14335  0.71932  0.86634  1.0000 0.1013735849
H   H12       1.0  0.13993  0.63546  0.82271  1.0000 0.1167338888
H   H13       1.0  0.13962  0.82309  0.87867  1.0000 0.1013735849
H   H14       1.0  0.14727  0.89661  0.92894  1.0000 0.1167338888
H   H15       1.0  0.33949  0.86579  0.93408  1.0000 0.1013735849
H   H16       1.0  0.33248  0.79489  0.88362  1.0000 0.1093732313
H   H17       1.0  0.10437  0.36437  0.60896  1.0000 0.1167338888
H   H18       1.0  0.03482  0.28954  0.58724  1.0000 0.1013735849
H   H19       1.0  0.96153  0.27187  0.69742  1.0000 0.1013735849
H   H20       1.0  0.03076  0.35017  0.71840  1.0000 0.1013735849
H   H21       1.0  0.98503  0.21393  0.56990  1.0000 0.1093732313
H   H22       1.0  0.91668  0.13868  0.54708  1.0000 0.1093732313
H   H23       1.0  0.82792  0.13100  0.65240  1.0000 0.1093732313
H   H24       1.0  0.89371  0.21039  0.67560  1.0000 0.1093732313
H   H25       1.0  0.93189  0.38955  0.10987  1.0000 0.1013735849
H   H26       1.0  0.00520  0.31219  0.09283  1.0000 0.1013735849
H   H27       1.0  0.02688  0.26393  0.20723  1.0000 0.1093732313
H   H28       1.0  0.95359  0.34237  0.22445  1.0000 0.1167338888
H   H29       1.0  0.00117  0.20440  0.09182  1.0000 0.1013735849
H   H30       1.0  0.06261  0.12253  0.06977  1.0000 0.1093732313
H   H31       1.0  0.19188  0.15464  0.15610  1.0000 0.1013735849
H   H32       1.0  0.12803  0.23758  0.17948  1.0000 0.1013735849
H   H33       1.0  0.68502  0.31301  0.28132  1.0000 0.1093732313
H   H34       1.0  0.68308  0.22724  0.32305  1.0000 0.1093732313
H   H35       1.0  0.85682  0.28054  0.36644  1.0000 0.1013735849
H   H36       1.0  0.86020  0.36428  0.32270  1.0000 0.1167338888
H   H37       1.0  0.86013  0.17637  0.37884  1.0000 0.1013735849
H   H38       1.0  0.85253  0.10333  0.42941  1.0000 0.1093732313
H   H39       1.0  0.66050  0.13505  0.43487  1.0000 0.0898943448
H   H40       1.0  0.66765  0.20620  0.38457  1.0000 0.1013735849
H   H41       1.0  0.89584  0.63589  0.10927  1.0000 0.1093732313
H   H42       1.0  0.96513  0.71053  0.08750  1.0000 0.1013735849
H   H43       1.0  0.03896  0.72824  0.19762  1.0000 0.1013735849
H   H44       1.0  0.96986  0.64969  0.21859  1.0000 0.1013735849
H   H45       1.0  0.01452  0.78594  0.07005  1.0000 0.1013735849
H   H46       1.0  0.08249  0.86117  0.04692  1.0000 0.1093732313
H   H47       1.0  0.17188  0.86957  0.15201  1.0000 0.1167338888
H   H48       1.0  0.10636  0.79020  0.17556  1.0000 0.1013735849
H   H49       1.0  0.88966  0.56877  0.35996  1.0000 0.1093732313
H   H50       1.0  0.81264  0.49498  0.34292  1.0000 0.1013735849
H   H51       1.0  0.76427  0.47347  0.45737  1.0000 0.1093732313
H   H52       1.0  0.84236  0.54708  0.47452  1.0000 0.1167338888
H   H53       1.0  0.70470  0.49913  0.34198  1.0000 0.1013735849
H   H54       1.0  0.62230  0.43810  0.32027  1.0000 0.1093732313
H   H55       1.0  0.65481  0.30856  0.40638  1.0000 0.1013735849
H   H56       1.0  0.73809  0.37219  0.42963  1.0000 0.1013735849
H   H57       1.0  0.81317  0.81466  0.53114  1.0000 0.1093732313
H   H58       1.0  0.72736  0.81666  0.57273  1.0000 0.1093732313
H   H59       1.0  0.78077  0.64314  0.61643  1.0000 0.1093732313
H   H60       1.0  0.86445  0.63956  0.57268  1.0000 0.1167338888
H   H61       1.0  0.67702  0.63957  0.62887  1.0000 0.1013735849
H   H62       1.0  0.60389  0.64725  0.67934  1.0000 0.1093732313
H   H63       1.0  0.63447  0.83951  0.68417  1.0000 0.1013735849
H   H64       1.0  0.70569  0.83231  0.63396  1.0000 0.1093732313
H   H65       1.0  0.13632  0.60412  0.35928  1.0000 0.1093732313
H   H66       1.0  0.21089  0.53455  0.33759  1.0000 0.1013735849
H   H67       1.0  0.22821  0.46086  0.44775  1.0000 0.1013735849
H   H68       1.0  0.14976  0.53034  0.46864  1.0000 0.1013735849
H   H69       1.0  0.28609  0.48482  0.32023  1.0000 0.1013735849
H   H70       1.0  0.36117  0.41681  0.29709  1.0000 0.1093732313
H   H71       1.0  0.36978  0.32741  0.40212  1.0000 0.1167338888
H   H72       1.0  0.29037  0.39303  0.42580  1.0000 0.1013735849
H   H73       1.0  0.11115  0.43225  0.85959  1.0000 0.1013735849
H   H74       1.0  0.18811  0.50618  0.84280  1.0000 0.1013735849
H   H75       1.0  0.23607  0.52731  0.95730  1.0000 0.1093732313
H   H76       1.0  0.15806  0.45344  0.97424  1.0000 0.1167338888
H   H77       1.0  0.29583  0.50178  0.84205  1.0000 0.1013735849
H   H78       1.0  0.37801  0.56291  0.82026  1.0000 0.1093732313
H   H79       1.0  0.34559  0.69261  0.90631  1.0000 0.1013735849
H   H80       1.0  0.26260  0.62855  0.92976  1.0000 0.1013735849
H   H81       1.0  0.18753  0.18449  0.03155  1.0000 0.1093732313
H   H82       1.0  0.27329  0.18271  0.07328  1.0000 0.1093732313
H   H83       1.0  0.21967  0.35635  0.11663  1.0000 0.1013735849
H   H84       1.0  0.13562  0.35939  0.07305  1.0000 0.1167338888
H   H85       1.0  0.32442  0.35941  0.12867  1.0000 0.1013735849
H   H86       1.0  0.39732  0.35184  0.17930  1.0000 0.1167338888
H   H87       1.0  0.36387  0.16010  0.18582  1.0000 0.1013735849
H   H88       1.0  0.29299  0.16730  0.13527  1.0000 0.1093732313
H   H89       1.0  0.86442  0.39518  0.85919  1.0000 0.1167338888
H   H90       1.0  0.78971  0.46465  0.83743  1.0000 0.1013735849
H   H91       1.0  0.77191  0.53806  0.94762  1.0000 0.1013735849
H   H92       1.0  0.85019  0.46875  0.96862  1.0000 0.1013735849
H   H93       1.0  0.71421  0.51442  0.82009  1.0000 0.1093732313
H   H94       1.0  0.63875  0.58245  0.79721  1.0000 0.1093732313
H   H95       1.0  0.63077  0.67136  0.90248  1.0000 0.1093732313
H   H96       1.0  0.71031  0.60575  0.92575  1.0000 0.1093732313
H   H97       1.0  0.43225  0.11062  0.13985  1.0000 0.1013735849
H   H98       1.0  0.50603  0.18767  0.15665  1.0000 0.1013735849
H   H99       1.0  0.52704  0.23566  0.04213  1.0000 0.1093732313
H   H100      1.0  0.45326  0.15759  0.02521  1.0000 0.1167338888
H   H101      1.0  0.50272  0.29467  0.15809  1.0000 0.1013735849
H   H102      1.0  0.56406  0.37649  0.17992  1.0000 0.1093732313
H   H103      1.0  0.69158  0.34653  0.09218  1.0000 0.1013735849
H   H104      1.0  0.62761  0.26339  0.06911  1.0000 0.1013735849
H   H105      1.0  0.18468  0.18718  0.96851  1.0000 0.1093732313
H   H106      1.0  0.18258  0.27260  0.92645  1.0000 0.1093732313
H   H107      1.0  0.35662  0.21951  0.88348  1.0000 0.1013735849
H   H108      1.0  0.36015  0.13607  0.92743  1.0000 0.1167338888
H   H109      1.0  0.35948  0.32453  0.87186  1.0000 0.1013735849
H   H110      1.0  0.35221  0.39730  0.82111  1.0000 0.1167338888
H   H111      1.0  0.16064  0.36316  0.81401  1.0000 0.0898943448
H   H112      1.0  0.16772  0.29166  0.86416  1.0000 0.1013735849
H   H113      1.0  0.39516  0.86377  0.14076  1.0000 0.1093732313
H   H114      1.0  0.46413  0.78866  0.16254  1.0000 0.1013735849
H   H115      1.0  0.54090  0.77408  0.05301  1.0000 0.1013735849
H   H116      1.0  0.47295  0.85355  0.03228  1.0000 0.1013735849
H   H117      1.0  0.51474  0.71404  0.18014  1.0000 0.1013735849
H   H118      1.0  0.58271  0.63850  0.20302  1.0000 0.1093732313
H   H119      1.0  0.67172  0.63062  0.09780  1.0000 0.1167338888
H   H120      1.0  0.60619  0.70997  0.07447  1.0000 0.1013735849
H   H121      1.0  0.56693  0.89047  0.63956  1.0000 0.1093732313
H   H122      1.0  0.49343  0.81314  0.65672  1.0000 0.1013735849
H   H123      1.0  0.47272  0.76401  0.54231  1.0000 0.1093732313
H   H124      1.0  0.54644  0.84200  0.52519  1.0000 0.1167338888
H   H125      1.0  0.49798  0.70525  0.65804  1.0000 0.1013735849
H   H126      1.0  0.43674  0.62319  0.67994  1.0000 0.1093732313
H   H127      1.0  0.30861  0.65335  0.59268  1.0000 0.1013735849
H   H128      1.0  0.37207  0.73703  0.56964  1.0000 0.1013735849
H   H129      1.0  0.81532  0.81289  0.46838  1.0000 0.1093732313
H   H130      1.0  0.81726  0.72748  0.42634  1.0000 0.1093732313
H   H131      1.0  0.64319  0.78089  0.38344  1.0000 0.1093732313
H   H132      1.0  0.63993  0.86431  0.42740  1.0000 0.1167338888
H   H133      1.0  0.64035  0.67544  0.37186  1.0000 0.1013735849
H   H134      1.0  0.64764  0.60266  0.32108  1.0000 0.1093732313
H   H135      1.0  0.83905  0.63727  0.31367  1.0000 0.1013735849
H   H136      1.0  0.83209  0.70839  0.36407  1.0000 0.1093732313
H   H137      1.0  0.60418  0.13544  0.64130  1.0000 0.1167338888
H   H138      1.0  0.53558  0.21115  0.66286  1.0000 0.1013735849
H   H139      1.0  0.45898  0.22534  0.55329  1.0000 0.1013735849
H   H140      1.0  0.52720  0.14605  0.53259  1.0000 0.1013735849
H   H141      1.0  0.48495  0.28587  0.68028  1.0000 0.1093732313
H   H142      1.0  0.41715  0.36153  0.70293  1.0000 0.1167338888
H   H143      1.0  0.32828  0.36924  0.59765  1.0000 0.1093732313
H   H144      1.0  0.39371  0.28955  0.57452  1.0000 0.1013735849
H   H145      1.0  0.61083  0.06699  0.39016  1.0000 0.1013735849
H   H146      1.0  0.68782  0.99299  0.40675  1.0000 0.1013735849
H   H147      1.0  0.73578  0.97277  0.29215  1.0000 0.1093732313
H   H148      1.0  0.65799  0.04698  0.27549  1.0000 0.1167338888
H   H149      1.0  0.79491  0.99707  0.40795  1.0000 0.1013735849
H   H150      1.0  0.87680  0.93586  0.42975  1.0000 0.1093732313
H   H151      1.0  0.84699  0.80831  0.34199  1.0000 0.1013735849
H   H152      1.0  0.76367  0.87205  0.31900  1.0000 0.1013735849
H   H153      1.0  0.68761  0.31557  0.21820  1.0000 0.1093732313
H   H154      1.0  0.77314  0.31742  0.17623  1.0000 0.1093732313
H   H155      1.0  0.71966  0.14354  0.13323  1.0000 0.1013735849
H   H156      1.0  0.63584  0.14045  0.17696  1.0000 0.1167338888
H   H157      1.0  0.82466  0.14069  0.12128  1.0000 0.1093732313
H   H158      1.0  0.89732  0.14810  0.07051  1.0000 0.1093732313
H   H159      1.0  0.86323  0.33969  0.06356  1.0000 0.0898943448
H   H160      1.0  0.79196  0.33248  0.11390  1.0000 0.1093732313
H   H161      1.0  0.36441  0.10506  0.39094  1.0000 0.1167338888
H   H162      1.0  0.28934  0.03581  0.41265  1.0000 0.1013735849
H   H163      1.0  0.27315  0.96104  0.30272  1.0000 0.1013735849
H   H164      1.0  0.35209  0.02952  0.28192  1.0000 0.1013735849
H   H165      1.0  0.21421  0.98537  0.42999  1.0000 0.1093732313
H   H166      1.0  0.13849  0.91741  0.45265  1.0000 0.1093732313
H   H167      1.0  0.13087  0.82881  0.34729  1.0000 0.1093732313
H   H168      1.0  0.21053  0.89435  0.32422  1.0000 0.1093732313
H   H169      1.0  0.39083  0.93310  0.88956  1.0000 0.1093732313
H   H170      1.0  0.31340  0.00661  0.90645  1.0000 0.1013735849
H   H171      1.0  0.26436  0.02649  0.79198  1.0000 0.1093732313
H   H172      1.0  0.34230  0.95261  0.77508  1.0000 0.1167338888
H   H173      1.0  0.20571  0.00229  0.90788  1.0000 0.1013735849
H   H174      1.0  0.12335  0.06321  0.92950  1.0000 0.1093732313
H   H175      1.0  0.15322  0.19082  0.84176  1.0000 0.1013735849
H   H176      1.0  0.23696  0.12732  0.81896  1.0000 0.1013735849
H   H177      1.0  0.31278  0.68496  0.71854  1.0000 0.1093732313
H   H178      1.0  0.22731  0.68289  0.67660  1.0000 0.1093732313
H   H179      1.0  0.28046  0.85679  0.63344  1.0000 0.1013735849
H   H180      1.0  0.36401  0.86030  0.67734  1.0000 0.1167338888
H   H181      1.0  0.17547  0.85970  0.62173  1.0000 0.1013735849
H   H182      1.0  0.10271  0.85220  0.57100  1.0000 0.1167338888
H   H183      1.0  0.13657  0.66061  0.56422  1.0000 0.1013735849
H   H184      1.0  0.20776  0.66777  0.61454  1.0000 0.1093732313
H   H185      1.0  0.63592  0.89593  0.89072  1.0000 0.1093732313
H   H186      1.0  0.71075  0.96530  0.91241  1.0000 0.1013735849
H   H187      1.0  0.72771  0.03932  0.80230  1.0000 0.1013735849
H   H188      1.0  0.64920  0.96994  0.78142  1.0000 0.1013735849
H   H189      1.0  0.78598  0.01524  0.92974  1.0000 0.1093732313
H   H190      1.0  0.86120  0.08331  0.95276  1.0000 0.1093732313
H   H191      1.0  0.86952  0.17249  0.84766  1.0000 0.1167338888
H   H192      1.0  0.79010  0.10684  0.82412  1.0000 0.1013735849
H   H193      1.0  0.24068  0.49557  0.58826  1.0000 0.3934982894
H   H194      1.0  0.21704  0.66756  0.46440  1.0000 0.2789450844
H   H195      1.0  0.20513  0.70491  0.50476  1.0000 0.2789450844
H   H196      1.0  0.30781  0.64044  0.48433  1.0000 0.1013735849
H   H197      1.0  0.26956  0.59528  0.51858  1.0000 0.1013735849
H   H198      1.0  0.29091  0.67221  0.52885  1.0000 0.1013735849
H   H199      1.0  0.83449  0.50659  0.09418  1.0000 0.3997678199
H   H200      1.0  0.78836  0.29183  0.00150  1.0000 0.2789450844
H   H201      1.0  0.81823  0.36280  0.00070  1.0000 0.2789450844
H   H202      1.0  0.69765  0.32270  0.02020  1.0000 0.1013735849
H   H203      1.0  0.69898  0.38506  0.98811  1.0000 0.1013735849
H   H204      1.0  0.73664  0.39166  0.03210  1.0000 0.1093732313
H   H205      1.0  0.03638  0.70181  0.34138  1.0000 0.3934982894
H   H206      1.0  0.84205  0.72112  0.21432  1.0000 0.2789450844
H   H207      1.0  0.79887  0.70813  0.25240  1.0000 0.2789450844
H   H208      1.0  0.88708  0.80311  0.23763  1.0000 0.1013735849
H   H209      1.0  0.89095  0.76951  0.28296  1.0000 0.1093732313
H   H210      1.0  0.82140  0.80370  0.26724  1.0000 0.1013735849
H   H211      1.0  0.04498  0.30481  0.84157  1.0000 0.3997678199
H   H212      1.0  0.20722  0.29241  0.75903  1.0000 0.2725367326
H   H213      1.0  0.13752  0.31685  0.74574  1.0000 0.2725367326
H   H214      1.0  0.17715  0.19689  0.77093  1.0000 0.1013735849
H   H215      1.0  0.11862  0.20054  0.73623  1.0000 0.1013735849
H   H216      1.0  0.10783  0.23712  0.78028  1.0000 0.1013735849
H   H217      1.0  0.33324  0.99393  0.15573  1.0000 0.3997678199
H   H218      1.0  0.31529  0.13504  0.26508  1.0000 0.2725367326
H   H219      1.0  0.27058  0.18500  0.28827  1.0000 0.2789450844
H   H220      1.0  0.22384  0.09334  0.25279  1.0000 0.1013735849
H   H221      1.0  0.23272  0.14416  0.21439  1.0000 0.1013735849
H   H222      1.0  0.18720  0.16629  0.25347  1.0000 0.1013735849
H   H223      1.0  0.74108  0.00446  0.66169  1.0000 0.3934982894
H   H224      1.0  0.67981  0.85097  0.74405  1.0000 0.2789450844
H   H225      1.0  0.71350  0.85105  0.78618  1.0000 0.2789450844
H   H226      1.0  0.76302  0.87986  0.71441  1.0000 0.1013735849
H   H227      1.0  0.80845  0.82713  0.74043  1.0000 0.1013735849
H   H228      1.0  0.78994  0.90000  0.75971  1.0000 0.1013735849
H   H229      1.0  0.54554  0.19580  0.40813  1.0000 0.3997678199
H   H230      1.0  0.63806  0.21286  0.53795  1.0000 0.2725367326
H   H231      1.0  0.70620  0.21984  0.51670  1.0000 0.286374537
H   H232      1.0  0.58937  0.27822  0.49911  1.0000 0.1013735849
H   H233      1.0  0.64560  0.26715  0.46368  1.0000 0.1013735849
H   H234      1.0  0.66349  0.31161  0.50394  1.0000 0.1013735849
H   H235      1.0  0.53549  0.79806  0.90843  1.0000 0.3997678199
H   H236      1.0  0.30538  0.80577  0.99241  1.0000 0.2789450844
H   H237      1.0  0.37437  0.81707  0.01179  1.0000 0.2725367326
H   H238      1.0  0.34745  0.72428  0.96655  1.0000 0.1013735849
H   H239      1.0  0.33445  0.69172  0.01124  1.0000 0.1013735849
H   H240      1.0  0.40735  0.72327  0.00045  1.0000 0.1013735849
H   H241      1.0  0.64980  0.17908  0.49638  1.0000 0.2789450844
H   H242      1.0  0.77796  0.33686  0.96394  1.0000 0.2789450844
H   H243      1.0  0.18069  0.27492  0.71633  1.0000 0.2789450844
H   H244      1.0  0.87224  0.68478  0.25142  1.0000 0.2725367326
H   H245      1.0  0.18149  0.63212  0.50002  1.0000 0.2789450844
H   H246      1.0  0.29864  0.20314  0.24593  1.0000 0.2789450844
H   H247      1.0  0.71976  0.78946  0.75833  1.0000 0.2789450844
H   H248      1.0  0.31863  0.78268  0.03632  1.0000 0.286374537
C   C1        1.0  0.11052  0.58179  0.67863  1.0000 0.5935653313
C   C2        1.0  0.06475  0.62871  0.66861  1.0000 -0.0484247202
C   C3        1.0  0.04825  0.63766  0.63171  1.0000 -0.0799906231
C   C4        1.0  0.00579  0.68180  0.62202  1.0000 -0.1286529073
C   C5        1.0  0.97872  0.71889  0.64895  1.0000 0.0797541117
C   C6        1.0  0.99307  0.70823  0.68616  1.0000 -0.1479670235
C   C7        1.0  0.03561  0.66367  0.69589  1.0000 -0.0799906231
C   C8        1.0  0.82675  0.91444  0.59315  1.0000 0.5935653313
C   C9        1.0  0.95673  0.80495  0.60660  1.0000 -0.1206649584
C   C10       1.0  0.92117  0.85243  0.59393  1.0000 -0.0799906231
C   C11       1.0  0.86634  0.86773  0.61103  1.0000 -0.0484247202
C   C12       1.0  0.84971  0.83517  0.64292  1.0000 -0.0974770962
C   C13       1.0  0.88624  0.78735  0.65609  1.0000 -0.1479670235
C   C14       1.0  0.93970  0.77086  0.63741  1.0000 0.0797541117
C   C15       1.0  0.22878  0.59932  0.77420  1.0000 0.5965767482
C   C16       1.0  0.22756  0.65375  0.79854  1.0000 -0.0484247202
C   C17       1.0  0.27656  0.69412  0.79893  1.0000 -0.0799906231
C   C18       1.0  0.27786  0.74330  0.82319  1.0000 -0.1286529073
C   C19       1.0  0.23061  0.75310  0.84849  1.0000 0.0797541117
C   C20       1.0  0.18052  0.71379  0.84725  1.0000 -0.1405441158
C   C21       1.0  0.17882  0.66514  0.82240  1.0000 -0.0799906231
C   C22       1.0  0.23517  0.80159  0.87733  1.0000 0.0797541117
C   C23       1.0  0.18351  0.83178  0.89073  1.0000 -0.1405441158
C   C24       1.0  0.18776  0.87377  0.91978  1.0000 -0.0906301327
C   C25       1.0  0.24373  0.88613  0.93656  1.0000 -0.0565691604
C   C26       1.0  0.29535  0.85710  0.92238  1.0000 -0.0974770962
C   C27       1.0  0.29134  0.81620  0.89310  1.0000 -0.1405441158
C   C28       1.0  0.25008  0.93048  0.96757  1.0000 0.5696252191
C   C29       1.0  0.11856  0.41327  0.67778  1.0000 0.5799297073
C   C30       1.0  0.07511  0.36347  0.66563  1.0000 -0.0484247202
C   C31       1.0  0.07375  0.34427  0.62872  1.0000 -0.0906301327
C   C32       1.0  0.03279  0.29996  0.61619  1.0000 -0.1405441158
C   C33       1.0  0.99079  0.27101  0.63988  1.0000 0.0797541117
C   C34       1.0  0.99191  0.29092  0.67725  1.0000 -0.1479670235
C   C35       1.0  0.03274  0.33630  0.68974  1.0000 -0.1141716904
C   C36       1.0  0.94710  0.22143  0.62546  1.0000 0.0797541117
C   C37       1.0  0.95101  0.19841  0.58891  1.0000 -0.1479670235
C   C38       1.0  0.91138  0.15359  0.57534  1.0000 -0.0974770962
C   C39       1.0  0.86584  0.12808  0.59746  1.0000 -0.0420764568
C   C40       1.0  0.86142  0.14991  0.63395  1.0000 -0.0974770962
C   C41       1.0  0.90063  0.19572  0.64753  1.0000 -0.1479670235
C   C42       1.0  0.82553  0.07769  0.58279  1.0000 0.5965767482
C   C43       1.0  0.06561  0.45630  0.78424  1.0000 0.6879740634
C   C44       1.0  0.27383  0.64158  0.50692  1.0000 -0.1608779955
C   C45       1.0  0.88970  0.41856  0.17830  1.0000 0.5935653313
C   C46       1.0  0.93558  0.37156  0.16831  1.0000 -0.0420764568
C   C47       1.0  0.95191  0.36239  0.13138  1.0000 -0.0799906231
C   C48       1.0  0.99410  0.31801  0.12169  1.0000 -0.1286529073
C   C49       1.0  0.02112  0.28086  0.14857  1.0000 0.0797541117
C   C50       1.0  0.00690  0.29156  0.18581  1.0000 -0.1479670235
C   C51       1.0  0.96459  0.33635  0.19558  1.0000 -0.0799906231
C   C52       1.0  0.17306  0.08519  0.09259  1.0000 0.5935653313
C   C53       1.0  0.04269  0.19456  0.10618  1.0000 -0.1206649584
C   C54       1.0  0.07833  0.14714  0.09345  1.0000 -0.0799906231
C   C55       1.0  0.13339  0.13203  0.11043  1.0000 -0.0420764568
C   C56       1.0  0.15013  0.16480  0.14216  1.0000 -0.0974770962
C   C57       1.0  0.11359  0.21247  0.15542  1.0000 -0.1479670235
C   C58       1.0  0.05992  0.22880  0.13690  1.0000 0.0797541117
C   C59       1.0  0.77202  0.40068  0.27409  1.0000 0.5965767482
C   C60       1.0  0.77257  0.34622  0.29861  1.0000 -0.0484247202
C   C61       1.0  0.72343  0.30592  0.29916  1.0000 -0.0799906231
C   C62       1.0  0.72201  0.25688  0.32361  1.0000 -0.1286529073
C   C63       1.0  0.76932  0.24708  0.34890  1.0000 0.0797541117
C   C64       1.0  0.81949  0.28623  0.34748  1.0000 -0.1405441158
C   C65       1.0  0.82125  0.33480  0.32256  1.0000 -0.0906301327
C   C66       1.0  0.76480  0.19873  0.37791  1.0000 0.0797541117
C   C67       1.0  0.81637  0.16817  0.39115  1.0000 -0.1405441158
C   C68       1.0  0.81211  0.12639  0.42031  1.0000 -0.0906301327
C   C69       1.0  0.75618  0.11434  0.43726  1.0000 -0.0484247202
C   C70       1.0  0.70464  0.14377  0.42328  1.0000 -0.0974770962
C   C71       1.0  0.70870  0.18462  0.39396  1.0000 -0.1405441158
C   C72       1.0  0.74972  0.06960  0.46811  1.0000 0.5696252191
C   C73       1.0  0.88206  0.58666  0.17792  1.0000 0.5799297073
C   C74       1.0  0.92554  0.63640  0.16586  1.0000 -0.0484247202
C   C75       1.0  0.92660  0.65579  0.12900  1.0000 -0.0906301327
C   C76       1.0  0.96736  0.70016  0.11645  1.0000 -0.1405441158
C   C77       1.0  0.00942  0.72912  0.14009  1.0000 0.0797541117
C   C78       1.0  0.00851  0.70918  0.17747  1.0000 -0.1479670235
C   C79       1.0  0.96787  0.66361  0.18995  1.0000 -0.1141716904
C   C80       1.0  0.05289  0.77868  0.12550  1.0000 0.0797541117
C   C81       1.0  0.04867  0.80149  0.08893  1.0000 -0.1479670235
C   C82       1.0  0.08817  0.84619  0.07515  1.0000 -0.0974770962
C   C83       1.0  0.13397  0.87167  0.09710  1.0000 -0.0420764568
C   C84       1.0  0.13849  0.85026  0.13368  1.0000 -0.0974770962
C   C85       1.0  0.09939  0.80459  0.14746  1.0000 -0.1479670235
C   C86       1.0  0.17438  0.92180  0.08233  1.0000 0.5935653313
C   C87       1.0  0.93364  0.54445  0.28420  1.0000 0.6971464732
C   C88       1.0  0.72585  0.36015  0.00912  1.0000 -0.1608779955
C   C89       1.0  0.91886  0.61031  0.42844  1.0000 0.5935653313
C   C90       1.0  0.87177  0.56473  0.41842  1.0000 -0.0484247202
C   C91       1.0  0.86257  0.54850  0.38148  1.0000 -0.0799906231
C   C92       1.0  0.81829  0.50622  0.37177  1.0000 -0.1286529073
C   C93       1.0  0.78116  0.47923  0.39867  1.0000 0.0797541117
C   C94       1.0  0.79181  0.49351  0.43590  1.0000 -0.1479670235
C   C95       1.0  0.83650  0.53587  0.44567  1.0000 -0.0799906231
C   C96       1.0  0.58538  0.32740  0.34301  1.0000 0.5965767482
C   C97       1.0  0.69475  0.45769  0.35646  1.0000 -0.1206649584
C   C98       1.0  0.64705  0.42228  0.34390  1.0000 -0.0799906231
C   C99       1.0  0.63206  0.36723  0.36085  1.0000 -0.0420764568
C   C100      1.0  0.66496  0.35037  0.39249  1.0000 -0.0974770962
C   C101      1.0  0.71281  0.38676  0.40565  1.0000 -0.1405441158
C   C102      1.0  0.72914  0.44041  0.38711  1.0000 0.0797541117
C   C103      1.0  0.90078  0.72791  0.52402  1.0000 0.5965767482
C   C104      1.0  0.84631  0.72721  0.54846  1.0000 -0.0484247202
C   C105      1.0  0.80599  0.77624  0.54893  1.0000 -0.0799906231
C   C106      1.0  0.75694  0.77768  0.57334  1.0000 -0.1286529073
C   C107      1.0  0.74720  0.73042  0.59869  1.0000 0.0797541117
C   C108      1.0  0.78638  0.68029  0.59737  1.0000 -0.1405441158
C   C109      1.0  0.83491  0.67848  0.57246  1.0000 -0.0799906231
C   C110      1.0  0.69883  0.73507  0.62765  1.0000 0.0797541117
C   C111      1.0  0.66858  0.68343  0.64104  1.0000 -0.1405441158
C   C112      1.0  0.62673  0.68766  0.67015  1.0000 -0.0906301327
C   C113      1.0  0.61441  0.74361  0.68691  1.0000 -0.0484247202
C   C114      1.0  0.64349  0.79527  0.67274  1.0000 -0.0974770962
C   C115      1.0  0.68442  0.79124  0.64348  1.0000 -0.1405441158
C   C116      1.0  0.56980  0.75004  0.71779  1.0000 0.5696252191
C   C117      1.0  0.08701  0.61782  0.42796  1.0000 0.5799297073
C   C118      1.0  0.13676  0.57448  0.41590  1.0000 -0.0484247202
C   C119      1.0  0.15622  0.57334  0.37905  1.0000 -0.0906301327
C   C120      1.0  0.20052  0.53240  0.36654  1.0000 -0.1405441158
C   C121      1.0  0.22933  0.49029  0.39022  1.0000 0.0797541117
C   C122      1.0  0.20929  0.49137  0.42758  1.0000 -0.1479670235
C   C123      1.0  0.16383  0.53220  0.44003  1.0000 -0.1141716904
C   C124      1.0  0.27884  0.44663  0.37573  1.0000 0.0797541117
C   C125      1.0  0.30162  0.45071  0.33914  1.0000 -0.1405441158
C   C126      1.0  0.34630  0.41124  0.32536  1.0000 -0.0974770962
C   C127      1.0  0.37199  0.36563  0.34731  1.0000 -0.0420764568
C   C128      1.0  0.35050  0.36095  0.38385  1.0000 -0.0974770962
C   C129      1.0  0.30476  0.40004  0.39769  1.0000 -0.1479670235
C   C130      1.0  0.42234  0.32556  0.33247  1.0000 0.5935653313
C   C131      1.0  0.04439  0.56596  0.53433  1.0000 0.6879740634
C   C132      1.0  0.86140  0.77673  0.25854  1.0000 -0.1608779955
C   C133      1.0  0.08242  0.38935  0.92792  1.0000 0.5935653313
C   C134      1.0  0.12920  0.43548  0.91804  1.0000 -0.0484247202
C   C135      1.0  0.13823  0.45223  0.88116  1.0000 -0.0799906231
C   C136      1.0  0.18233  0.49479  0.87162  1.0000 -0.1286529073
C   C137      1.0  0.21932  0.52175  0.89862  1.0000 0.0797541117
C   C138      1.0  0.20862  0.50726  0.93580  1.0000 -0.1479670235
C   C139      1.0  0.16410  0.46461  0.94540  1.0000 -0.0799906231
C   C140      1.0  0.41511  0.67358  0.84290  1.0000 0.5935653313
C   C141      1.0  0.30574  0.54325  0.85646  1.0000 -0.1206649584
C   C142      1.0  0.35328  0.57879  0.84385  1.0000 -0.0799906231
C   C143      1.0  0.36829  0.63394  0.86079  1.0000 -0.0484247202
C   C144      1.0  0.33545  0.65077  0.89246  1.0000 -0.0974770962
C   C145      1.0  0.28776  0.61418  0.90569  1.0000 -0.1479670235
C   C146      1.0  0.27144  0.56054  0.88711  1.0000 0.0797541117
C   C147      1.0  0.09971  0.27105  0.02414  1.0000 0.5965767482
C   C148      1.0  0.15406  0.27187  0.04880  1.0000 -0.0484247202
C   C149      1.0  0.19458  0.22291  0.04932  1.0000 -0.0799906231
C   C150      1.0  0.24359  0.22163  0.07379  1.0000 -0.1286529073
C   C151      1.0  0.25322  0.26891  0.09910  1.0000 0.0797541117
C   C152      1.0  0.21400  0.31903  0.09769  1.0000 -0.1405441158
C   C153      1.0  0.16533  0.32055  0.07280  1.0000 -0.0906301327
C   C154      1.0  0.30134  0.26426  0.12819  1.0000 0.0898943448
C   C155      1.0  0.33223  0.31574  0.14121  1.0000 -0.1405441158
C   C156      1.0  0.37389  0.31152  0.17041  1.0000 -0.0906301327
C   C157      1.0  0.38547  0.25571  0.18761  1.0000 -0.0565691604
C   C158      1.0  0.35565  0.20417  0.17389  1.0000 -0.0974770962
C   C159      1.0  0.31487  0.20823  0.14451  1.0000 -0.1405441158
C   C160      1.0  0.43025  0.24940  0.21834  1.0000 0.5696252191
C   C161      1.0  0.91392  0.38171  0.92788  1.0000 0.5799297073
C   C162      1.0  0.86389  0.42484  0.91582  1.0000 -0.0484247202
C   C163      1.0  0.84450  0.42595  0.87893  1.0000 -0.0906301327
C   C164      1.0  0.80013  0.46680  0.86637  1.0000 -0.1405441158
C   C165      1.0  0.77118  0.50883  0.89005  1.0000 0.0797541117
C   C166      1.0  0.79103  0.50769  0.92743  1.0000 -0.1479670235
C   C167      1.0  0.83648  0.46693  0.93994  1.0000 -0.1141716904
C   C168      1.0  0.72158  0.55245  0.87561  1.0000 0.0797541117
C   C169      1.0  0.69863  0.54844  0.83905  1.0000 -0.1405441158
C   C170      1.0  0.65387  0.58806  0.82542  1.0000 -0.0974770962
C   C171      1.0  0.62850  0.63379  0.84740  1.0000 -0.0420764568
C   C172      1.0  0.65004  0.63813  0.88401  1.0000 -0.0974770962
C   C173      1.0  0.69574  0.59889  0.89766  1.0000 -0.1479670235
C   C174      1.0  0.57843  0.67443  0.83260  1.0000 0.5965767482
C   C175      1.0  0.95948  0.43509  0.03429  1.0000 0.6810828625
C   C176      1.0  0.14163  0.22611  0.75860  1.0000 -0.1608779955
C   C177      1.0  0.38953  0.08169  0.07145  1.0000 0.5935653313
C   C178      1.0  0.43553  0.12858  0.08139  1.0000 -0.0420764568
C   C179      1.0  0.45220  0.13771  0.11827  1.0000 -0.0799906231
C   C180      1.0  0.49468  0.18192  0.12782  1.0000 -0.1286529073
C   C181      1.0  0.52162  0.21899  0.10084  1.0000 0.0797541117
C   C182      1.0  0.50709  0.20823  0.06365  1.0000 -0.1479670235
C   C183      1.0  0.46450  0.16362  0.05404  1.0000 -0.0799906231
C   C184      1.0  0.67351  0.41497  0.15655  1.0000 0.5935653313
C   C185      1.0  0.54384  0.30489  0.14338  1.0000 -0.1206649584
C   C186      1.0  0.57945  0.35236  0.15599  1.0000 -0.0799906231
C   C187      1.0  0.63403  0.36807  0.13864  1.0000 -0.0484247202
C   C188      1.0  0.65030  0.33583  0.10659  1.0000 -0.0974770962
C   C189      1.0  0.61367  0.28806  0.09345  1.0000 -0.1479670235
C   C190      1.0  0.56054  0.27110  0.11238  1.0000 0.0797541117
C   C191      1.0  0.27177  0.09988  0.97598  1.0000 0.5935653313
C   C192      1.0  0.27244  0.15423  0.95148  1.0000 -0.0484247202
C   C193      1.0  0.22314  0.19432  0.95073  1.0000 -0.0799906231
C   C194      1.0  0.22164  0.24309  0.92611  1.0000 -0.1286529073
C   C195      1.0  0.26900  0.25278  0.90089  1.0000 0.0797541117
C   C196      1.0  0.31931  0.21386  0.90246  1.0000 -0.1405441158
C   C197      1.0  0.32115  0.16553  0.92752  1.0000 -0.0906301327
C   C198      1.0  0.26448  0.30085  0.87182  1.0000 0.0797541117
C   C199      1.0  0.31594  0.33211  0.85909  1.0000 -0.1405441158
C   C200      1.0  0.31185  0.37377  0.82987  1.0000 -0.0906301327
C   C201      1.0  0.25608  0.38521  0.81254  1.0000 -0.0565691604
C   C202      1.0  0.20461  0.35513  0.82608  1.0000 -0.0974770962
C   C203      1.0  0.20859  0.31406  0.85525  1.0000 -0.1405441158
C   C204      1.0  0.24964  0.42990  0.78172  1.0000 0.5696252191
C   C205      1.0  0.38259  0.91427  0.07227  1.0000 0.5799297073
C   C206      1.0  0.42640  0.86483  0.08449  1.0000 -0.0565691604
C   C207      1.0  0.42655  0.84448  0.12118  1.0000 -0.0906301327
C   C208      1.0  0.46711  0.79984  0.13372  1.0000 -0.1405441158
C   C209      1.0  0.50980  0.77151  0.11022  1.0000 0.0742293836
C   C210      1.0  0.50995  0.79258  0.07308  1.0000 -0.1479670235
C   C211      1.0  0.46979  0.83861  0.06068  1.0000 -0.1206649584
C   C212      1.0  0.55302  0.72160  0.12466  1.0000 0.0797541117
C   C213      1.0  0.54881  0.69853  0.16119  1.0000 -0.1479670235
C   C214      1.0  0.58833  0.65367  0.17481  1.0000 -0.0906301327
C   C215      1.0  0.63411  0.62837  0.15276  1.0000 -0.0420764568
C   C216      1.0  0.63844  0.64989  0.11621  1.0000 -0.0906301327
C   C217      1.0  0.59934  0.69564  0.10258  1.0000 -0.1479670235
C   C218      1.0  0.67474  0.57834  0.16742  1.0000 0.5935653313
C   C219      1.0  0.43390  0.95530  0.96575  1.0000 0.6810828625
C   C220      1.0  0.22859  0.14160  0.24484  1.0000 -0.1608779955
C   C221      1.0  0.61043  0.91778  0.57125  1.0000 0.5935653313
C   C222      1.0  0.56437  0.87115  0.58128  1.0000 -0.0484247202
C   C223      1.0  0.54739  0.86269  0.61815  1.0000 -0.0799906231
C   C224      1.0  0.50502  0.81849  0.62789  1.0000 -0.1286529073
C   C225      1.0  0.47835  0.78104  0.60101  1.0000 0.0797541117
C   C226      1.0  0.49280  0.79152  0.56379  1.0000 -0.1479670235
C   C227      1.0  0.53535  0.83602  0.55404  1.0000 -0.0799906231
C   C228      1.0  0.32701  0.58489  0.65678  1.0000 0.5935653313
C   C229      1.0  0.45673  0.69501  0.64344  1.0000 -0.1206649584
C   C230      1.0  0.42132  0.64738  0.65609  1.0000 -0.0799906231
C   C231      1.0  0.36665  0.63168  0.63891  1.0000 -0.0420764568
C   C232      1.0  0.35009  0.66406  0.60694  1.0000 -0.0974770962
C   C233      1.0  0.38637  0.71209  0.59380  1.0000 -0.1479670235
C   C234      1.0  0.43963  0.72891  0.61257  1.0000 0.0797541117
C   C235      1.0  0.72813  0.90006  0.47609  1.0000 0.5935653313
C   C236      1.0  0.72740  0.84579  0.45153  1.0000 -0.0484247202
C   C237      1.0  0.77668  0.80568  0.45072  1.0000 -0.0799906231
C   C238      1.0  0.77814  0.75694  0.42606  1.0000 -0.1286529073
C   C239      1.0  0.73075  0.74731  0.40083  1.0000 0.0797541117
C   C240      1.0  0.68050  0.78634  0.40244  1.0000 -0.1405441158
C   C241      1.0  0.67875  0.83463  0.42755  1.0000 -0.0799906231
C   C242      1.0  0.73530  0.69936  0.37168  1.0000 0.0797541117
C   C243      1.0  0.68385  0.66803  0.35898  1.0000 -0.1405441158
C   C244      1.0  0.68793  0.62639  0.32974  1.0000 -0.0906301327
C   C245      1.0  0.74356  0.61514  0.31225  1.0000 -0.0565691604
C   C246      1.0  0.79506  0.64532  0.32574  1.0000 -0.0974770962
C   C247      1.0  0.79113  0.68621  0.35506  1.0000 -0.1405441158
C   C248      1.0  0.74982  0.57027  0.28149  1.0000 0.5696252191
C   C249      1.0  0.61706  0.08517  0.57262  1.0000 0.5799297073
C   C250      1.0  0.57310  0.13439  0.58496  1.0000 -0.0565691604
C   C251      1.0  0.57291  0.15477  0.62165  1.0000 -0.0974770962
C   C252      1.0  0.53252  0.19966  0.63408  1.0000 -0.1405441158
C   C253      1.0  0.48990  0.22798  0.61050  1.0000 0.0797541117
C   C254      1.0  0.48980  0.20679  0.57340  1.0000 -0.1479670235
C   C255      1.0  0.52995  0.16073  0.56106  1.0000 -0.1206649584
C   C256      1.0  0.44680  0.27815  0.62476  1.0000 0.0797541117
C   C257      1.0  0.45102  0.30138  0.66125  1.0000 -0.1479670235
C   C258      1.0  0.41166  0.34636  0.67478  1.0000 -0.0906301327
C   C259      1.0  0.36617  0.37188  0.65262  1.0000 -0.0420764568
C   C260      1.0  0.36161  0.35008  0.61616  1.0000 -0.0974770962
C   C261      1.0  0.40058  0.30414  0.60261  1.0000 -0.1479670235
C   C262      1.0  0.32618  0.42233  0.66737  1.0000 0.5965767482
C   C263      1.0  0.56559  0.04377  0.46564  1.0000 0.6741251626
C   C264      1.0  0.77256  0.86217  0.74252  1.0000 -0.1608779955
C   C265      1.0  0.58247  0.11069  0.32193  1.0000 0.5935653313
C   C266      1.0  0.62916  0.06446  0.33174  1.0000 -0.0484247202
C   C267      1.0  0.63803  0.04728  0.36855  1.0000 -0.0799906231
C   C268      1.0  0.68212  0.00463  0.37796  1.0000 -0.1286529073
C   C269      1.0  0.71918  0.97793  0.35089  1.0000 0.0797541117
C   C270      1.0  0.70845  0.99271  0.31375  1.0000 -0.1405441158
C   C271      1.0  0.66403  0.03554  0.30429  1.0000 -0.0799906231
C   C272      1.0  0.91531  0.82617  0.40642  1.0000 0.5935653313
C   C273      1.0  0.80518  0.95596  0.39325  1.0000 -0.1206649584
C   C274      1.0  0.85268  0.92039  0.40584  1.0000 -0.0799906231
C   C275      1.0  0.86842  0.86576  0.38851  1.0000 -0.0484247202
C   C276      1.0  0.83622  0.84952  0.35644  1.0000 -0.0974770962
C   C277      1.0  0.78837  0.88605  0.34334  1.0000 -0.1479670235
C   C278      1.0  0.77139  0.93914  0.36231  1.0000 0.0797541117
C   C279      1.0  0.59996  0.22881  0.22580  1.0000 0.5965767482
C   C280      1.0  0.65428  0.22804  0.20112  1.0000 -0.0484247202
C   C281      1.0  0.69466  0.27710  0.20045  1.0000 -0.0799906231
C   C282      1.0  0.74350  0.27844  0.17586  1.0000 -0.1286529073
C   C283      1.0  0.75308  0.23109  0.15058  1.0000 0.0797541117
C   C284      1.0  0.71401  0.18088  0.15215  1.0000 -0.1405441158
C   C285      1.0  0.66550  0.17930  0.17714  1.0000 -0.0906301327
C   C286      1.0  0.80101  0.23568  0.12138  1.0000 0.0797541117
C   C287      1.0  0.83216  0.18424  0.10853  1.0000 -0.1405441158
C   C288      1.0  0.87370  0.18839  0.07926  1.0000 -0.0906301327
C   C289      1.0  0.88507  0.24415  0.06193  1.0000 -0.0565691604
C   C290      1.0  0.85501  0.29564  0.07548  1.0000 -0.0974770962
C   C291      1.0  0.81416  0.29160  0.10481  1.0000 -0.1405441158
C   C292      1.0  0.93008  0.25042  0.03129  1.0000 0.5696252191
C   C293      1.0  0.41463  0.11787  0.32232  1.0000 0.5799297073
C   C294      1.0  0.36477  0.07455  0.33449  1.0000 -0.0565691604
C   C295      1.0  0.34482  0.07395  0.37128  1.0000 -0.0906301327
C   C296      1.0  0.30024  0.03326  0.38379  1.0000 -0.1405441158
C   C297      1.0  0.27161  0.99094  0.36014  1.0000 0.0742293836
C   C298      1.0  0.29207  0.99155  0.32290  1.0000 -0.1479670235
C   C299      1.0  0.33786  0.03194  0.31048  1.0000 -0.1206649584
C   C300      1.0  0.22176  0.94749  0.37445  1.0000 0.0797541117
C   C301      1.0  0.19862  0.95148  0.41096  1.0000 -0.1479670235
C   C302      1.0  0.15372  0.91190  0.42446  1.0000 -0.0974770962
C   C303      1.0  0.12843  0.86625  0.40240  1.0000 -0.0420764568
C   C304      1.0  0.15008  0.86199  0.36582  1.0000 -0.0974770962
C   C305      1.0  0.19590  0.90118  0.35230  1.0000 -0.1479670235
C   C306      1.0  0.07840  0.82554  0.41712  1.0000 0.5965767482
C   C307      1.0  0.45939  0.06482  0.21555  1.0000 0.6741251626
C   C308      1.0  0.63837  0.27141  0.49383  1.0000 -0.1608779955
C   C309      1.0  0.41899  0.88989  0.82129  1.0000 0.5935653313
C   C310      1.0  0.37209  0.93577  0.83120  1.0000 -0.0420764568
C   C311      1.0  0.36333  0.95277  0.86804  1.0000 -0.0799906231
C   C312      1.0  0.31890  0.99501  0.87764  1.0000 -0.1286529073
C   C313      1.0  0.28143  0.02144  0.85069  1.0000 0.0797541117
C   C314      1.0  0.29197  0.00673  0.81351  1.0000 -0.1479670235
C   C315      1.0  0.33662  0.96421  0.80388  1.0000 -0.0799906231
C   C316      1.0  0.08520  0.17304  0.90627  1.0000 0.5965767482
C   C317      1.0  0.19534  0.04336  0.89310  1.0000 -0.1206649584
C   C318      1.0  0.14759  0.07871  0.90563  1.0000 -0.0799906231
C   C319      1.0  0.13189  0.13329  0.88836  1.0000 -0.0484247202
C   C320      1.0  0.16411  0.14960  0.85628  1.0000 -0.0974770962
C   C321      1.0  0.21215  0.11324  0.84322  1.0000 -0.1479670235
C   C322      1.0  0.22923  0.06020  0.86217  1.0000 0.0797541117
C   C323      1.0  0.40038  0.77181  0.72586  1.0000 0.5935653313
C   C324      1.0  0.34588  0.77254  0.70142  1.0000 -0.0484247202
C   C325      1.0  0.30566  0.72343  0.70078  1.0000 -0.0799906231
C   C326      1.0  0.25679  0.72197  0.67622  1.0000 -0.1286529073
C   C327      1.0  0.24712  0.76931  0.65095  1.0000 0.0797541117
C   C328      1.0  0.28610  0.81958  0.65246  1.0000 -0.1405441158
C   C329      1.0  0.33450  0.82136  0.67748  1.0000 -0.0906301327
C   C330      1.0  0.19901  0.76463  0.62186  1.0000 0.0797541117
C   C331      1.0  0.16787  0.81609  0.60901  1.0000 -0.1405441158
C   C332      1.0  0.12620  0.81195  0.57979  1.0000 -0.0906301327
C   C333      1.0  0.11477  0.75627  0.56249  1.0000 -0.0484247202
C   C334      1.0  0.14473  0.70469  0.57616  1.0000 -0.0974770962
C   C335      1.0  0.18567  0.70867  0.60543  1.0000 -0.1405441158
C   C336      1.0  0.07008  0.74988  0.53162  1.0000 0.5696252191
C   C337      1.0  0.58656  0.88225  0.82199  1.0000 0.5799297073
C   C338      1.0  0.63618  0.92577  0.83414  1.0000 -0.0565691604
C   C339      1.0  0.65576  0.92679  0.87099  1.0000 -0.0906301327
C   C340      1.0  0.70021  0.96763  0.88348  1.0000 -0.1405441158
C   C341      1.0  0.72898  0.00976  0.85981  1.0000 0.0797541117
C   C342      1.0  0.70879  0.00883  0.82248  1.0000 -0.1479670235
C   C343      1.0  0.66323  0.96811  0.81004  1.0000 -0.1141716904
C   C344      1.0  0.77861  0.05336  0.87424  1.0000 0.0797541117
C   C345      1.0  0.80149  0.04933  0.91080  1.0000 -0.1405441158
C   C346      1.0  0.84624  0.08883  0.92452  1.0000 -0.0974770962
C   C347      1.0  0.87184  0.13443  0.90251  1.0000 -0.0420764568
C   C348      1.0  0.85028  0.13900  0.86598  1.0000 -0.0974770962
C   C349      1.0  0.80451  0.09989  0.85223  1.0000 -0.1479670235
C   C350      1.0  0.92225  0.17450  0.91727  1.0000 0.5935653313
C   C351      1.0  0.54446  0.93414  0.71556  1.0000 0.6810828625
C   C352      1.0  0.35786  0.72880  0.99636  1.0000 -0.1608779955
C   C353      1.0  0.92187  0.92197  0.49976  1.0000 0.5346223094
C   C354      1.0  0.07779  0.07743  0.99964  1.0000 0.5405992844
C   C355      1.0  0.57760  0.42216  0.24969  1.0000 0.5405992844
C   C356      1.0  0.42197  0.57753  0.74979  1.0000 0.5405992844
N   N1        1.0  0.21545  0.66294  0.49310  1.0000 -0.4588222028
N   N2        1.0  0.78136  0.33629  0.99270  1.0000 -0.4588222028
N   N3        1.0  0.84236  0.71869  0.24312  1.0000 -0.4588222028
N   N4        1.0  0.16858  0.28136  0.74391  1.0000 -0.468628878
N   N5        1.0  0.28188  0.16803  0.26225  1.0000 -0.468628878
N   N6        1.0  0.71773  0.83666  0.75884  1.0000 -0.468628878
N   N7        1.0  0.65958  0.21699  0.51247  1.0000 -0.468628878
N   N8        1.0  0.33774  0.78750  0.01015  1.0000 -0.4588222028
O   O1        1.0  0.30360  0.94336  0.97804  1.0000 -0.5879392571
O   O2        1.0  0.20315  0.95456  0.98217  1.0000 -0.5506114584
O   O3        1.0  0.18053  0.56794  0.77079  1.0000 -0.5506114584
O   O4        1.0  0.27796  0.58559  0.75778  1.0000 -0.5506114584
O   O5        1.0  0.14970  0.56449  0.65465  1.0000 -0.5394809789
O   O6        1.0  0.10846  0.56012  0.71118  1.0000 -0.5506114584
O   O7        1.0  0.77955  0.93489  0.60949  1.0000 -0.5584509434
O   O8        1.0  0.84167  0.93115  0.56070  1.0000 -0.5696509786
O   O9        1.0  0.15605  0.43541  0.65423  1.0000 -0.5506114584
O   O10       1.0  0.11606  0.43313  0.71094  1.0000 -0.601777429
O   O11       1.0  0.77855  0.06165  0.60132  1.0000 -0.5803148967
O   O12       1.0  0.84016  0.05163  0.55233  1.0000 -0.5696509786
O   O13       1.0  0.88469  0.96124  0.49440  1.0000 -0.4588222028
O   O14       1.0  0.08710  0.50167  0.77194  1.0000 -0.4279134593
O   O15       1.0  0.04422  0.41103  0.79662  1.0000 -0.3602160386
O   O16       1.0  0.22609  0.51759  0.70682  1.0000 -1.0068985245
O   O17       1.0  0.20265  0.50897  0.60013  1.0000 -0.8211601398
O   O18       1.0  0.69609  0.05703  0.47856  1.0000 -0.5879392571
O   O19       1.0  0.79656  0.04493  0.48256  1.0000 -0.5506114584
O   O20       1.0  0.82016  0.43228  0.27106  1.0000 -0.5506114584
O   O21       1.0  0.72270  0.41416  0.25728  1.0000 -0.5584509434
O   O22       1.0  0.85120  0.43652  0.15409  1.0000 -0.5584509434
O   O23       1.0  0.89089  0.43958  0.21104  1.0000 -0.5506114584
O   O24       1.0  0.22061  0.06519  0.10884  1.0000 -0.5394809789
O   O25       1.0  0.15786  0.06799  0.06028  1.0000 -0.5696509786
O   O26       1.0  0.84496  0.56445  0.15424  1.0000 -0.5696509786
O   O27       1.0  0.88398  0.56693  0.21110  1.0000 -0.601777429
O   O28       1.0  0.22140  0.93774  0.10083  1.0000 -0.5584509434
O   O29       1.0  0.15959  0.94788  0.05189  1.0000 -0.5696509786
O   O30       1.0  0.11489  0.03811  0.99415  1.0000 -0.4588222028
O   O31       1.0  0.91251  0.49887  0.27190  1.0000 -0.4279134593
O   O32       1.0  0.95462  0.58993  0.29653  1.0000 -0.3480934224
O   O33       1.0  0.77306  0.48290  0.20681  1.0000 -1.0068985245
O   O34       1.0  0.79299  0.49266  0.09969  1.0000 -0.826448696
O   O35       1.0  0.55671  0.80358  0.72804  1.0000 -0.5879392571
O   O36       1.0  0.54575  0.70310  0.73245  1.0000 -0.5506114584
O   O37       1.0  0.93247  0.67991  0.52106  1.0000 -0.5506114584
O   O38       1.0  0.91415  0.77703  0.50716  1.0000 -0.5584509434
O   O39       1.0  0.93710  0.64872  0.40423  1.0000 -0.5394809789
O   O40       1.0  0.93961  0.60900  0.46126  1.0000 -0.5506114584
O   O41       1.0  0.56628  0.27933  0.35907  1.0000 -0.5584509434
O   O42       1.0  0.56752  0.34283  0.31085  1.0000 -0.5696509786
O   O43       1.0  0.06490  0.65500  0.40433  1.0000 -0.5696509786
O   O44       1.0  0.06714  0.61574  0.46111  1.0000 -0.601777429
O   O45       1.0  0.43877  0.27882  0.35104  1.0000 -0.5506114584
O   O46       1.0  0.44809  0.34029  0.30196  1.0000 -0.5696509786
O   O47       1.0  0.53833  0.38501  0.24419  1.0000 -0.4588222028
O   O48       1.0  0.99884  0.58715  0.52187  1.0000 -0.4279134593
O   O49       1.0  0.08973  0.54489  0.54683  1.0000 -0.3396626434
O   O50       1.0  0.98329  0.72640  0.45681  1.0000 -1.0068985245
O   O51       1.0  0.99391  0.70446  0.34991  1.0000 -0.826448696
O   O52       1.0  0.44310  0.19589  0.22882  1.0000 -0.5879392571
O   O53       1.0  0.45482  0.29642  0.23255  1.0000 -0.5506114584
O   O54       1.0  0.06759  0.31890  0.02135  1.0000 -0.5506114584
O   O55       1.0  0.08672  0.22223  0.00694  1.0000 -0.5584509434
O   O56       1.0  0.06456  0.35094  0.90365  1.0000 -0.5696509786
O   O57       1.0  0.06137  0.39036  0.96065  1.0000 -0.5506114584
O   O58       1.0  0.43535  0.72110  0.85910  1.0000 -0.5394809789
O   O59       1.0  0.43210  0.65824  0.81055  1.0000 -0.5696509786
O   O60       1.0  0.93668  0.34504  0.90411  1.0000 -0.5506114584
O   O61       1.0  0.93339  0.38367  0.96113  1.0000 -0.601777429
O   O62       1.0  0.56283  0.72168  0.85087  1.0000 -0.5696509786
O   O63       1.0  0.55208  0.65955  0.80223  1.0000 -0.5696509786
O   O64       1.0  0.46163  0.61422  0.74457  1.0000 -0.4588222028
O   O65       1.0  0.00398  0.41318  0.02114  1.0000 -0.4279134593
O   O66       1.0  0.91511  0.45695  0.04754  1.0000 -0.3602160386
O   O67       1.0  0.01702  0.27315  0.95651  1.0000 -1.0068985245
O   O68       1.0  0.00358  0.29304  0.84916  1.0000 -0.8211601398
O   O69       1.0  0.19605  0.44257  0.77127  1.0000 -0.5879392571
O   O70       1.0  0.29647  0.45449  0.76726  1.0000 -0.5506114584
O   O71       1.0  0.32019  0.06880  0.97937  1.0000 -0.5506114584
O   O72       1.0  0.22250  0.08584  0.99237  1.0000 -0.5506114584
O   O73       1.0  0.35082  0.06397  0.09561  1.0000 -0.5584509434
O   O74       1.0  0.39090  0.06051  0.03875  1.0000 -0.5506114584
O   O75       1.0  0.72101  0.43530  0.14039  1.0000 -0.5394809789
O   O76       1.0  0.65811  0.43184  0.18886  1.0000 -0.5696509786
O   O77       1.0  0.34527  0.93639  0.09586  1.0000 -0.5696509786
O   O78       1.0  0.38427  0.93363  0.03899  1.0000 -0.601777429
O   O79       1.0  0.72166  0.56242  0.14872  1.0000 -0.5584509434
O   O80       1.0  0.66004  0.55225  0.19787  1.0000 -0.5696509786
O   O81       1.0  0.61469  0.46146  0.25522  1.0000 -0.4588222028
O   O82       1.0  0.41277  0.00098  0.97794  1.0000 -0.4279134593
O   O83       1.0  0.45488  0.90975  0.95351  1.0000 -0.3480934224
O   O84       1.0  0.27315  0.01635  0.04283  1.0000 -1.0068985245
O   O85       1.0  0.29183  0.00787  0.15000  1.0000 -0.826448696
O   O86       1.0  0.80335  0.55745  0.27106  1.0000 -0.5879392571
O   O87       1.0  0.70293  0.54547  0.26714  1.0000 -0.5506114584
O   O88       1.0  0.67983  0.93142  0.47933  1.0000 -0.5506114584
O   O89       1.0  0.77720  0.91378  0.49268  1.0000 -0.5506114584
O   O90       1.0  0.64972  0.93482  0.59521  1.0000 -0.5394809789
O   O91       1.0  0.60844  0.93954  0.53872  1.0000 -0.5506114584
O   O92       1.0  0.27978  0.56462  0.64038  1.0000 -0.5584509434
O   O93       1.0  0.34176  0.56813  0.68923  1.0000 -0.5584509434
O   O94       1.0  0.65460  0.06308  0.59614  1.0000 -0.5506114584
O   O95       1.0  0.61524  0.06602  0.53928  1.0000 -0.601777429
O   O96       1.0  0.27909  0.43830  0.64883  1.0000 -0.5803148967
O   O97       1.0  0.34074  0.44835  0.69774  1.0000 -0.5696509786
O   O98       1.0  0.38472  0.53845  0.75519  1.0000 -0.4588222028
O   O99       1.0  0.58716  0.99835  0.47781  1.0000 -0.4279134593
O   O100      1.0  0.54416  0.08914  0.45341  1.0000 -0.3602160386
O   O101      1.0  0.72634  0.98319  0.54307  1.0000 -1.0068985245
O   O102      1.0  0.70299  0.99099  0.64990  1.0000 -0.8211601398
O   O103      1.0  0.94289  0.30396  0.02085  1.0000 -0.5879392571
O   O104      1.0  0.95494  0.20345  0.01708  1.0000 -0.5506114584
O   O105      1.0  0.56821  0.18076  0.22886  1.0000 -0.5506114584
O   O106      1.0  0.58669  0.27771  0.24279  1.0000 -0.5584509434
O   O107      1.0  0.56480  0.14922  0.34618  1.0000 -0.5696509786
O   O108      1.0  0.56133  0.10963  0.28923  1.0000 -0.5506114584
O   O109      1.0  0.93580  0.77875  0.39020  1.0000 -0.5394809789
O   O110      1.0  0.93206  0.84144  0.43882  1.0000 -0.5696509786
O   O111      1.0  0.43728  0.15480  0.34601  1.0000 -0.5506114584
O   O112      1.0  0.43390  0.11599  0.28902  1.0000 -0.601777429
O   O113      1.0  0.06293  0.77830  0.39881  1.0000 -0.5803148967
O   O114      1.0  0.05194  0.84035  0.44745  1.0000 -0.5696509786
O   O115      1.0  0.96127  0.88490  0.50522  1.0000 -0.4588222028
O   O116      1.0  0.50393  0.08688  0.22857  1.0000 -0.4230503163
O   O117      1.0  0.41502  0.04279  0.20240  1.0000 -0.3602160386
O   O118      1.0  0.51680  0.22699  0.29316  1.0000 -1.0068985245
O   O119      1.0  0.50431  0.20828  0.40065  1.0000 -0.8211601398
O   O120      1.0  0.05726  0.69634  0.52128  1.0000 -0.5879392571
O   O121      1.0  0.04563  0.79675  0.51710  1.0000 -0.5506114584
O   O122      1.0  0.43164  0.82005  0.72916  1.0000 -0.5506114584
O   O123      1.0  0.41426  0.72248  0.74233  1.0000 -0.5584509434
O   O124      1.0  0.43697  0.85135  0.84550  1.0000 -0.5394809789
O   O125      1.0  0.43983  0.89110  0.78850  1.0000 -0.5506114584
O   O126      1.0  0.06573  0.22092  0.89022  1.0000 -0.5584509434
O   O127      1.0  0.06779  0.15767  0.93850  1.0000 -0.5584509434
O   O128      1.0  0.56424  0.84524  0.84565  1.0000 -0.5696509786
O   O129      1.0  0.56711  0.88394  0.78873  1.0000 -0.601777429
O   O130      1.0  0.93853  0.22134  0.89870  1.0000 -0.5506114584
O   O131      1.0  0.94808  0.15976  0.94776  1.0000 -0.5696509786
O   O132      1.0  0.03855  0.11463  0.00505  1.0000 -0.4588222028
O   O133      1.0  0.49888  0.91278  0.72786  1.0000 -0.4279134593
O   O134      1.0  0.58984  0.95535  0.70321  1.0000 -0.3396626434
O   O135      1.0  0.48348  0.77331  0.79277  1.0000 -1.0068985245
O   O136      1.0  0.49318  0.79404  0.89980  1.0000 -0.826448696
