# DDEC6 charges by PACMAN v1.1 (https://github.com/mtap-research/PACMAN-charge/)
data_2011[Cd][flu]3[ION]1
_chemical_formula_sum              "Cd3 H58 C68 N2 O24"
_cell_length_a       11.97
_cell_length_b       16.341
_cell_length_c       16.436
_cell_angle_alpha    107.913
_cell_angle_beta     103.4
_cell_angle_gamma    100.533

_symmetry_space_group_name_H-M    "P 1"
_symmetry_Int_Tables_number       1

loop_
  _symmetry_equiv_pos_as_xyz
  'x, y, z'

loop_
  _atom_site_type_symbol
  _atom_site_label
  _atom_site_symmetry_multiplicity
  _atom_site_fract_x
  _atom_site_fract_y
  _atom_site_fract_z
  _atom_site_occupancy
  _atom_site_charge
Cd  Cd1       1.0  0.19441  0.88805  0.39255  1.0000 1.1670130777
Cd  Cd2       1.0  0.80594  0.11109  0.60924  1.0000 1.15838912
Cd  Cd3       1.0  0.50022  0.99957  0.50054  1.0000 1.1928979444
H   H1        1.0  0.31922  0.40889  0.08763  1.0000 0.0683623782
H   H2        1.0  0.23388  0.66432  0.22470  1.0000 0.1119816348
H   H3        1.0  0.26565  0.52619  0.13940  1.0000 0.1119816348
H   H4        1.0  0.61244  0.33171  0.00262  1.0000 0.0816925737
H   H5        1.0  0.58162  0.43759  0.02551  1.0000 0.0527272622
H   H6        1.0  0.75680  0.53307  0.05993  1.0000 0.0998190953
H   H7        1.0  0.89357  0.68327  0.14224  1.0000 0.0998190953
H   H8        1.0  0.92543  0.64019  0.39157  1.0000 0.0998190953
H   H9        1.0  0.78530  0.49096  0.30908  1.0000 0.1195611658
H   H10       1.0  0.37346  0.32716  0.91938  1.0000 0.0527272622
H   H11       1.0  0.28316  0.26131  0.96342  1.0000 0.0683623782
H   H12       1.0  0.52475  0.10566  0.84004  1.0000 0.1195611658
H   H13       1.0  0.45976  0.01113  0.68228  1.0000 0.0998190953
H   H14       1.0  0.14161  0.09840  0.63876  1.0000 0.0880449998
H   H15       1.0  0.20533  0.19315  0.79930  1.0000 0.1119816348
H   H16       1.0  0.51780  0.23267  0.09098  1.0000 0.0816925737
H   H17       1.0  0.52512  0.32689  0.18701  1.0000 0.0683623782
H   H18       1.0  0.15749  0.14603  0.12771  1.0000 0.1119816348
H   H19       1.0  0.13879  0.05674  0.22303  1.0000 0.0998190953
H   H20       1.0  0.52308  0.12629  0.32670  1.0000 0.1119816348
H   H21       1.0  0.54184  0.20797  0.22977  1.0000 0.1119816348
H   H22       1.0  0.61154  0.77048  0.36717  1.0000 0.0998190953
H   H23       1.0  0.64356  0.63080  0.28191  1.0000 0.1119816348
H   H24       1.0  0.68061  0.59053  0.91238  1.0000 0.0683623782
H   H25       1.0  0.76472  0.33425  0.77495  1.0000 0.1119816348
H   H26       1.0  0.73393  0.47311  0.85978  1.0000 0.1119816348
H   H27       1.0  0.38779  0.66838  0.99768  1.0000 0.0816925737
H   H28       1.0  0.41853  0.56240  0.97511  1.0000 0.0527272622
H   H29       1.0  0.24370  0.46696  0.94083  1.0000 0.0998190953
H   H30       1.0  0.10559  0.31715  0.85877  1.0000 0.0998190953
H   H31       1.0  0.07218  0.36017  0.60936  1.0000 0.0998190953
H   H32       1.0  0.21425  0.50885  0.69146  1.0000 0.1195611658
H   H33       1.0  0.71699  0.73888  0.03679  1.0000 0.0683623782
H   H34       1.0  0.62741  0.67289  0.08108  1.0000 0.0527272622
H   H35       1.0  0.47687  0.89504  0.16156  1.0000 0.1195611658
H   H36       1.0  0.54302  0.98912  0.31935  1.0000 0.0998190953
H   H37       1.0  0.86161  0.90257  0.36120  1.0000 0.0816925737
H   H38       1.0  0.79644  0.80743  0.20068  1.0000 0.1119816348
H   H39       1.0  0.47442  0.67267  0.81342  1.0000 0.0683623782
H   H40       1.0  0.48230  0.76706  0.90952  1.0000 0.0816925737
H   H41       1.0  0.84160  0.85444  0.87384  1.0000 0.1195611658
H   H42       1.0  0.86106  0.94792  0.78323  1.0000 0.0998190953
H   H43       1.0  0.47709  0.87356  0.67311  1.0000 0.1119816348
H   H44       1.0  0.45794  0.79072  0.76950  1.0000 0.1119816348
H   H45       1.0  0.38708  0.22942  0.63291  1.0000 0.0998190953
H   H46       1.0  0.35551  0.36925  0.71749  1.0000 0.1119816348
H   H47       1.0  0.10082  0.09694  0.48292  1.0000 0.2832654504
H   H48       1.0  0.00455  0.15782  0.50603  1.0000 0.2708323228
H   H49       1.0  0.00796  0.05347  0.33787  1.0000 0.0998190953
H   H50       1.0  0.06028  0.16876  0.34977  1.0000 0.0880449998
H   H51       1.0  0.91666  0.12878  0.36251  1.0000 0.0998190953
H   H52       1.0  0.95629  0.87386  0.49118  1.0000 0.2832654504
H   H53       1.0  0.83630  0.87440  0.53020  1.0000 0.2832654504
H   H54       1.0  0.06474  0.93525  0.63621  1.0000 0.0998190953
H   H55       1.0  0.02674  0.82069  0.62941  1.0000 0.0998190953
H   H56       1.0  0.93988  0.89421  0.66973  1.0000 0.0998190953
H   H57       1.0  0.88056  0.77934  0.49960  1.0000 0.2708323228
H   H58       1.0  0.13728  0.20663  0.49726  1.0000 0.2708323228
C   C1        1.0  0.46137  0.34234  0.05829  1.0000 -0.0005815696
C   C2        1.0  0.41457  0.41898  0.10263  1.0000 0.0683623782
C   C3        1.0  0.42126  0.72934  0.30241  1.0000 -0.0690480888
C   C4        1.0  0.32444  0.65832  0.23768  1.0000 -0.0690480888
C   C5        1.0  0.34273  0.57781  0.18878  1.0000 -0.227998051
C   C6        1.0  0.40050  0.81263  0.35640  1.0000 0.5821078904
C   C7        1.0  0.58766  0.38309  0.05192  1.0000 -0.0097848654
C   C8        1.0  0.75485  0.50143  0.17900  1.0000 0.2599815714
C   C9        1.0  0.78782  0.55692  0.13253  1.0000 -0.227998051
C   C10       1.0  0.86763  0.64327  0.17992  1.0000 -0.0919983261
C   C11       1.0  0.91864  0.67543  0.27426  1.0000 -0.0690480888
C   C12       1.0  0.88707  0.61884  0.31952  1.0000 -0.0954916688
C   C13       1.0  0.80708  0.53333  0.27245  1.0000 -0.2102894796
C   C14       1.0  0.01536  0.76189  0.32410  1.0000 0.5112844694
C   C15       1.0  0.37539  0.28535  0.96158  1.0000 -0.0236593264
C   C16       1.0  0.37268  0.15863  0.83158  1.0000 0.2599815714
C   C17       1.0  0.44139  0.10516  0.79654  1.0000 -0.2002940563
C   C18       1.0  0.40454  0.05105  0.70603  1.0000 -0.0919983261
C   C19       1.0  0.29817  0.04835  0.64703  1.0000 -0.0604873508
C   C20       1.0  0.22645  0.10080  0.68192  1.0000 -0.1086494488
C   C21       1.0  0.26318  0.15546  0.77373  1.0000 -0.227998051
C   C22       1.0  0.26211  0.98904  0.55072  1.0000 0.474040209
C   C23       1.0  0.47103  0.28315  0.11684  1.0000 -0.0097848654
C   C24       1.0  0.35039  0.18580  0.17124  1.0000 0.2708323228
C   C25       1.0  0.23771  0.14115  0.17089  1.0000 -0.227998051
C   C26       1.0  0.22731  0.09009  0.22552  1.0000 -0.0919983261
C   C27       1.0  0.32992  0.08341  0.28295  1.0000 -0.0919983261
C   C28       1.0  0.44212  0.12872  0.28339  1.0000 -0.0690480888
C   C29       1.0  0.45264  0.17731  0.22758  1.0000 -0.2424385038
C   C30       1.0  0.32329  0.02909  0.34128  1.0000 0.5882877397
C   C31       1.0  0.01008  0.12352  0.37557  1.0000 -0.1615179938
C   C32       1.0  0.45908  0.56668  0.20478  1.0000 0.2411445218
C   C33       1.0  0.53598  0.71792  0.31724  1.0000 -0.0604873508
C   C34       1.0  0.55404  0.63778  0.26897  1.0000 -0.2002940563
C   C35       1.0  0.53878  0.65747  0.94217  1.0000 0.0006245134
C   C36       1.0  0.58533  0.58064  0.89753  1.0000 0.0683623782
C   C37       1.0  0.57765  0.27020  0.69825  1.0000 -0.0762036828
C   C38       1.0  0.67460  0.34111  0.76248  1.0000 -0.0690480888
C   C39       1.0  0.65664  0.42178  0.81092  1.0000 -0.227998051
C   C40       1.0  0.59736  0.18658  0.64448  1.0000 0.5821078904
C   C41       1.0  0.41248  0.61679  0.94855  1.0000 -0.0097848654
C   C42       1.0  0.24487  0.49853  0.82160  1.0000 0.2599815714
C   C43       1.0  0.21198  0.44319  0.86824  1.0000 -0.227998051
C   C44       1.0  0.13139  0.35713  0.82101  1.0000 -0.0954916688
C   C45       1.0  0.07927  0.32535  0.72685  1.0000 -0.0690480888
C   C46       1.0  0.11092  0.38166  0.68137  1.0000 -0.0919983261
C   C47       1.0  0.19205  0.46675  0.72821  1.0000 -0.2102894796
C   C48       1.0  0.98208  0.23927  0.67757  1.0000 0.5112844694
C   C49       1.0  0.62501  0.71461  0.03884  1.0000 -0.0236593264
C   C50       1.0  0.62885  0.84181  0.16902  1.0000 0.2599815714
C   C51       1.0  0.56080  0.89558  0.20462  1.0000 -0.2002940563
C   C52       1.0  0.59823  0.94938  0.29528  1.0000 -0.0954916688
C   C53       1.0  0.70428  0.95106  0.35417  1.0000 -0.0604873508
C   C54       1.0  0.77651  0.89999  0.31833  1.0000 -0.1086494488
C   C55       1.0  0.73899  0.84528  0.22638  1.0000 -0.227998051
C   C56       1.0  0.73961  0.00940  0.45095  1.0000 0.4779830861
C   C57       1.0  0.52881  0.71649  0.88348  1.0000 -0.0097848654
C   C58       1.0  0.64911  0.81407  0.82927  1.0000 0.2708323228
C   C59       1.0  0.76183  0.85960  0.83116  1.0000 -0.227998051
C   C60       1.0  0.77305  0.91211  0.77848  1.0000 -0.0919983261
C   C61       1.0  0.67109  0.91730  0.71961  1.0000 -0.0919983261
C   C62       1.0  0.55813  0.87141  0.71738  1.0000 -0.0690480888
C   C63       1.0  0.54699  0.82231  0.77258  1.0000 -0.2424385038
C   C64       1.0  0.67877  0.97171  0.66205  1.0000 0.5821078904
C   C65       1.0  0.98955  0.87614  0.62079  1.0000 -0.1615179938
C   C66       1.0  0.54034  0.43307  0.79502  1.0000 0.2411445218
C   C67       1.0  0.46299  0.28194  0.68278  1.0000 -0.0604873508
C   C68       1.0  0.44514  0.36219  0.73073  1.0000 -0.2002940563
N   N1        1.0  0.06706  0.14812  0.47181  1.0000 -0.4834041608
N   N2        1.0  0.91033  0.84910  0.52921  1.0000 -0.4701241029
O   O1        1.0  0.48813  0.87959  0.41050  1.0000 -0.5500430378
O   O2        1.0  0.29308  0.81300  0.34809  1.0000 -0.513314457
O   O3        1.0  0.67932  0.41267  0.13734  1.0000 -0.2197981757
O   O4        1.0  0.03195  0.82515  0.29475  1.0000 -0.4701241029
O   O5        1.0  0.09287  0.77594  0.39778  1.0000 -0.4701241029
O   O6        1.0  0.41758  0.21020  0.92420  1.0000 -0.2197981757
O   O7        1.0  0.33362  0.94217  0.51098  1.0000 -0.5796864343
O   O8        1.0  0.16295  0.97265  0.49922  1.0000 -0.4521548462
O   O9        1.0  0.35543  0.23805  0.11650  1.0000 -0.2197981757
O   O10       1.0  0.22476  0.97264  0.32752  1.0000 -0.5198087407
O   O11       1.0  0.41867  0.03877  0.40214  1.0000 -0.5500430378
O   O12       1.0  0.49096  0.49066  0.15933  1.0000 -0.1260282633
O   O13       1.0  0.50954  0.12169  0.58756  1.0000 -0.5500430378
O   O14       1.0  0.70459  0.18323  0.65618  1.0000 -0.5198087407
O   O15       1.0  0.32090  0.58712  0.86308  1.0000 -0.2197981757
O   O16       1.0  0.97290  0.17240  0.70212  1.0000 -0.4701241029
O   O17       1.0  0.89762  0.22859  0.60900  1.0000 -0.4701241029
O   O18       1.0  0.58272  0.78976  0.07652  1.0000 -0.227998051
O   O19       1.0  0.66878  0.05786  0.49007  1.0000 -0.5796864343
O   O20       1.0  0.83813  0.02387  0.50314  1.0000 -0.4521548462
O   O21       1.0  0.64411  0.76133  0.88338  1.0000 -0.2197981757
O   O22       1.0  0.77629  0.02926  0.67653  1.0000 -0.5198087407
O   O23       1.0  0.58332  0.96038  0.60012  1.0000 -0.5590498758
O   O24       1.0  0.50884  0.50919  0.84054  1.0000 -0.1245659751
