# DDEC6 charges by PACMAN v1.1 (https://github.com/mtap-research/PACMAN-charge/)
data_2011[CoSm][nan]3[ION]1
_chemical_formula_sum              "Sm4 Co2 H60 C72 N18 O54"
_cell_length_a       11.2397
_cell_length_b       12.4964
_cell_length_c       22.302
_cell_angle_alpha    102.114
_cell_angle_beta     103.41
_cell_angle_gamma    95.597

_symmetry_space_group_name_H-M    "P 1"
_symmetry_Int_Tables_number       1

loop_
  _symmetry_equiv_pos_as_xyz
  'x, y, z'

loop_
  _atom_site_type_symbol
  _atom_site_label
  _atom_site_symmetry_multiplicity
  _atom_site_fract_x
  _atom_site_fract_y
  _atom_site_fract_z
  _atom_site_occupancy
  _atom_site_charge
Sm  Sm1       1.0  0.69867  0.55341  0.54878  1.0000 2.1613826721
Sm  Sm2       1.0  0.30133  0.44659  0.45122  1.0000 2.1613826721
Sm  Sm3       1.0  0.04029  0.36847  0.05059  1.0000 2.14308798
Sm  Sm4       1.0  0.95971  0.63153  0.94941  1.0000 2.14308798
Co  Co1       1.0  0.67802  0.91368  0.25714  1.0000 0.4821267693
Co  Co2       1.0  0.32198  0.08632  0.74286  1.0000 0.4821267693
H   H1        1.0  0.77560  0.87170  0.38850  1.0000 0.1291999115
H   H2        1.0  0.22440  0.12830  0.61150  1.0000 0.1291999115
H   H3        1.0  0.69440  0.76590  0.45020  1.0000 0.1483440164
H   H4        1.0  0.30560  0.23410  0.54980  1.0000 0.1483440164
H   H5        1.0  0.40550  0.64120  0.29770  1.0000 0.1381737059
H   H6        1.0  0.59450  0.35880  0.70230  1.0000 0.1381737059
H   H7        1.0  0.32680  0.63340  0.19200  1.0000 0.1381737059
H   H8        1.0  0.67320  0.36660  0.80800  1.0000 0.1381737059
H   H9        1.0  0.31840  0.81860  0.06750  1.0000 0.160491307
H   H10       1.0  0.68160  0.18140  0.93250  1.0000 0.160491307
H   H11       1.0  0.49820  0.92600  0.13030  1.0000 0.1187633121
H   H12       1.0  0.50180  0.07400  0.86970  1.0000 0.1187633121
H   H13       1.0  0.68120  0.15090  0.22540  1.0000 0.1187633121
H   H14       1.0  0.31880  0.84910  0.77460  1.0000 0.1187633121
H   H15       1.0  0.76140  0.22740  0.15920  1.0000 0.1381737059
H   H16       1.0  0.23860  0.77260  0.84080  1.0000 0.1381737059
H   H17       1.0  0.84890  0.93700  0.07950  1.0000 0.1381737059
H   H18       1.0  0.15110  0.06300  0.92050  1.0000 0.1381737059
H   H19       1.0  0.84260  0.75830  0.08140  1.0000 0.1291999115
H   H20       1.0  0.15740  0.24170  0.91860  1.0000 0.1291999115
H   H21       1.0  0.80220  0.54200  0.18680  1.0000 0.1483440164
H   H22       1.0  0.19780  0.45800  0.81320  1.0000 0.1483440164
H   H23       1.0  0.73220  0.67470  0.25040  1.0000 0.1187633121
H   H24       1.0  0.26780  0.32530  0.74960  1.0000 0.1187633121
H   H25       1.0  0.94890  0.86900  0.28040  1.0000 0.1133645854
H   H26       1.0  0.05110  0.13100  0.71960  1.0000 0.1133645854
H   H27       1.0  0.13670  0.95990  0.34870  1.0000 0.1381737059
H   H28       1.0  0.86330  0.04010  0.65130  1.0000 0.1381737059
H   H29       1.0  0.95820  0.21420  0.41280  1.0000 0.1381737059
H   H30       1.0  0.04180  0.78580  0.58720  1.0000 0.1381737059
H   H31       1.0  0.76760  0.24980  0.41890  1.0000 0.1483440164
H   H32       1.0  0.23240  0.75020  0.58110  1.0000 0.1483440164
H   H33       1.0  0.40180  0.16770  0.33450  1.0000 0.1381737059
H   H34       1.0  0.59820  0.83230  0.66550  1.0000 0.1381737059
H   H35       1.0  0.43940  0.01540  0.26860  1.0000 0.1133645854
H   H36       1.0  0.56060  0.98460  0.73140  1.0000 0.1133645854
H   H37       1.0  0.74230  0.67450  0.68160  1.0000 0.430184403
H   H38       1.0  0.25770  0.32550  0.31840  1.0000 0.430184403
H   H39       1.0  0.87330  0.68240  0.66690  1.0000 0.4122243791
H   H40       1.0  0.12670  0.31760  0.33310  1.0000 0.4122243791
H   H41       1.0  0.83900  0.39970  0.60180  1.0000 0.4122243791
H   H42       1.0  0.16100  0.60030  0.39820  1.0000 0.4122243791
H   H43       1.0  0.93110  0.51150  0.61860  1.0000 0.3990789323
H   H44       1.0  0.06890  0.48850  0.38140  1.0000 0.3990789323
H   H45       1.0  0.88200  0.61490  0.48380  1.0000 0.430184403
H   H46       1.0  0.11800  0.38510  0.51620  1.0000 0.430184403
H   H47       1.0  0.77390  0.53370  0.43120  1.0000 0.430184403
H   H48       1.0  0.22610  0.46630  0.56880  1.0000 0.430184403
H   H49       1.0  0.05100  0.35640  0.18070  1.0000 0.430184403
H   H50       1.0  0.94900  0.64360  0.81930  1.0000 0.430184403
H   H51       1.0  0.16570  0.44400  0.18530  1.0000 0.4122243791
H   H52       1.0  0.83430  0.55600  0.81470  1.0000 0.4122243791
H   H53       1.0  0.25620  0.27590  0.03120  1.0000 0.430184403
H   H54       1.0  0.74380  0.72410  0.96880  1.0000 0.430184403
H   H55       1.0  0.30530  0.38930  0.08200  1.0000 0.4198191135
H   H56       1.0  0.69470  0.61070  0.91800  1.0000 0.4198191135
H   H57       1.0  0.98140  0.19930  0.93430  1.0000 0.3304075419
H   H58       1.0  0.01860  0.80070  0.06570  1.0000 0.3304075419
H   H59       1.0  0.98240  0.13800  0.97690  1.0000 0.3464997529
H   H60       1.0  0.01760  0.86200  0.02310  1.0000 0.3464997529
C   C1        1.0  0.69900  0.82680  0.37100  1.0000 0.0598968361
C   C2        1.0  0.30100  0.17320  0.62900  1.0000 0.0598968361
C   C3        1.0  0.65200  0.75950  0.40820  1.0000 -0.1088641764
C   C4        1.0  0.34800  0.24050  0.59180  1.0000 -0.1088641764
C   C5        1.0  0.54650  0.68750  0.38188  1.0000 0.0217513561
C   C6        1.0  0.45350  0.31250  0.61812  1.0000 0.0217513561
C   C7        1.0  0.47930  0.68930  0.31740  1.0000 -0.1714119122
C   C8        1.0  0.52070  0.31070  0.68260  1.0000 -0.1714119122
C   C9        1.0  0.52260  0.75930  0.28625  1.0000 0.1483440164
C   C10       1.0  0.47740  0.24070  0.71375  1.0000 0.1483440164
C   C11       1.0  0.46610  0.76850  0.22139  1.0000 0.1688998236
C   C12       1.0  0.53390  0.23150  0.77861  1.0000 0.1688998236
C   C13       1.0  0.36030  0.69320  0.17930  1.0000 -0.1905002923
C   C14       1.0  0.63970  0.30680  0.82070  1.0000 -0.1905002923
C   C15       1.0  0.30700  0.71000  0.11850  1.0000 0.0284877501
C   C16       1.0  0.69300  0.29000  0.88150  1.0000 0.0284877501
C   C17       1.0  0.35670  0.80050  0.10490  1.0000 -0.1240712485
C   C18       1.0  0.64330  0.19950  0.89510  1.0000 -0.1240712485
C   C19       1.0  0.46240  0.86850  0.14400  1.0000 0.0598968361
C   C20       1.0  0.53760  0.13150  0.85600  1.0000 0.0598968361
C   C21       1.0  0.49500  0.60770  0.41475  1.0000 0.6619945336
C   C22       1.0  0.50500  0.39230  0.58525  1.0000 0.6619945336
C   C23       1.0  0.19460  0.63140  0.07510  1.0000 0.6250016659
C   C24       1.0  0.80540  0.36860  0.92490  1.0000 0.6250016659
C   C25       1.0  0.71680  0.10800  0.19710  1.0000 0.0217513561
C   C26       1.0  0.28320  0.89200  0.80290  1.0000 0.0217513561
C   C27       1.0  0.76220  0.15240  0.15716  1.0000 -0.1240712485
C   C28       1.0  0.23780  0.84760  0.84284  1.0000 -0.1240712485
C   C29       1.0  0.81250  0.08980  0.11110  1.0000 0.0217513561
C   C30       1.0  0.18750  0.91020  0.88890  1.0000 0.0217513561
C   C31       1.0  0.81730  0.98050  0.10960  1.0000 -0.1714119122
C   C32       1.0  0.18270  0.01950  0.89040  1.0000 -0.1714119122
C   C33       1.0  0.77330  0.93490  0.15440  1.0000 0.1688998236
C   C34       1.0  0.22670  0.06510  0.84560  1.0000 0.1688998236
C   C35       1.0  0.77060  0.81790  0.15620  1.0000 0.1291999115
C   C36       1.0  0.22940  0.18210  0.84380  1.0000 0.1291999115
C   C37       1.0  0.81640  0.73960  0.11500  1.0000 -0.1602772654
C   C38       1.0  0.18360  0.26040  0.88500  1.0000 -0.1602772654
C   C39       1.0  0.82160  0.63530  0.12550  1.0000 0.0009259195
C   C40       1.0  0.17840  0.36470  0.87450  1.0000 0.0009259195
C   C41       1.0  0.79380  0.61030  0.17720  1.0000 -0.1308841922
C   C42       1.0  0.20620  0.38970  0.82280  1.0000 -0.1308841922
C   C43       1.0  0.75190  0.69340  0.21525  1.0000 0.0883459008
C   C44       1.0  0.24810  0.30660  0.78475  1.0000 0.0883459008
C   C45       1.0  0.86680  0.14290  0.06820  1.0000 0.6082006066
C   C46       1.0  0.13320  0.85710  0.93180  1.0000 0.6082006066
C   C47       1.0  0.87830  0.56050  0.08440  1.0000 0.648844537
C   C48       1.0  0.12170  0.43950  0.91560  1.0000 0.648844537
C   C49       1.0  0.95220  0.93670  0.30830  1.0000 0.0598968361
C   C50       1.0  0.04780  0.06330  0.69170  1.0000 0.0598968361
C   C51       1.0  0.06560  0.99280  0.34690  1.0000 -0.1240712485
C   C52       1.0  0.93440  0.00720  0.65310  1.0000 -0.1240712485
C   C53       1.0  0.07090  0.09690  0.38190  1.0000 0.0420459106
C   C54       1.0  0.92910  0.90310  0.61810  1.0000 0.0420459106
C   C55       1.0  0.95620  0.14550  0.38622  1.0000 -0.1714119122
C   C56       1.0  0.04380  0.85450  0.61378  1.0000 -0.1714119122
C   C57       1.0  0.84700  0.08200  0.34830  1.0000 0.160491307
C   C58       1.0  0.15300  0.91800  0.65170  1.0000 0.160491307
C   C59       1.0  0.72420  0.11450  0.35023  1.0000 0.1291999115
C   C60       1.0  0.27580  0.88550  0.64977  1.0000 0.1291999115
C   C61       1.0  0.70170  0.20210  0.38910  1.0000 -0.1417482973
C   C62       1.0  0.29830  0.79790  0.61090  1.0000 -0.1417482973
C   C63       1.0  0.57750  0.22480  0.38592  1.0000 0.0420459106
C   C64       1.0  0.42250  0.77520  0.61408  1.0000 0.0420459106
C   C65       1.0  0.48260  0.15330  0.33900  1.0000 -0.1308841922
C   C66       1.0  0.51740  0.84670  0.66100  1.0000 -0.1308841922
C   C67       1.0  0.50450  0.06250  0.29930  1.0000 0.0541389628
C   C68       1.0  0.49550  0.93750  0.70070  1.0000 0.0541389628
C   C69       1.0  0.19260  0.17100  0.41760  1.0000 0.5866653889
C   C70       1.0  0.80740  0.82900  0.58240  1.0000 0.5866653889
C   C71       1.0  0.54230  0.32080  0.42800  1.0000 0.648844537
C   C72       1.0  0.45770  0.67920  0.57200  1.0000 0.648844537
N   N1        1.0  0.63290  0.82660  0.30963  1.0000 -0.2149584622
N   N2        1.0  0.36710  0.17340  0.69037  1.0000 -0.2149584622
N   N3        1.0  0.51570  0.85280  0.20256  1.0000 -0.1905002923
N   N4        1.0  0.48430  0.14720  0.79744  1.0000 -0.1905002923
N   N5        1.0  0.72180  0.99250  0.19720  1.0000 -0.2375144691
N   N6        1.0  0.27820  0.00750  0.80280  1.0000 -0.2375144691
N   N7        1.0  0.73570  0.79300  0.20992  1.0000 -0.2306040258
N   N8        1.0  0.26430  0.20700  0.79008  1.0000 -0.2306040258
N   N9        1.0  0.84460  0.97910  0.31040  1.0000 -0.223009947
N   N10       1.0  0.15540  0.02090  0.68960  1.0000 -0.223009947
N   N11       1.0  0.62370  0.04160  0.30531  1.0000 -0.2306040258
N   N12       1.0  0.37630  0.95840  0.69469  1.0000 -0.2306040258
N   N13       1.0  0.21210  0.84930  0.46143  1.0000 0.6654433577
N   N14       1.0  0.78790  0.15070  0.53857  1.0000 0.6654433577
N   N15       1.0  0.12380  0.60470  0.70920  1.0000 0.6619945336
N   N16       1.0  0.87620  0.39530  0.29080  1.0000 0.6619945336
N   N17       1.0  0.86150  0.03610  0.79918  1.0000 0.6619945336
N   N18       1.0  0.13850  0.96390  0.20082  1.0000 0.6619945336
O   O1        1.0  0.57030  0.58990  0.46191  1.0000 -0.7290739448
O   O2        1.0  0.42970  0.41010  0.53809  1.0000 -0.7290739448
O   O3        1.0  0.38040  0.56790  0.39940  1.0000 -0.6608853371
O   O4        1.0  0.61960  0.43210  0.60060  1.0000 -0.6608853371
O   O5        1.0  0.16070  0.54890  0.09138  1.0000 -0.638264987
O   O6        1.0  0.83930  0.45110  0.90862  1.0000 -0.638264987
O   O7        1.0  0.14440  0.65940  0.02854  1.0000 -0.5787843198
O   O8        1.0  0.85560  0.34060  0.97146  1.0000 -0.5787843198
O   O9        1.0  0.90840  0.24490  0.08176  1.0000 -0.6692137749
O   O10       1.0  0.09160  0.75510  0.91824  1.0000 -0.6692137749
O   O11       1.0  0.87140  0.07640  0.01641  1.0000 -0.5524395139
O   O12       1.0  0.12860  0.92360  0.98359  1.0000 -0.5524395139
O   O13       1.0  0.90470  0.58430  0.03698  1.0000 -0.7236900658
O   O14       1.0  0.09530  0.41570  0.96302  1.0000 -0.7236900658
O   O15       1.0  0.90890  0.47290  0.10363  1.0000 -0.6692137749
O   O16       1.0  0.09110  0.52710  0.89637  1.0000 -0.6692137749
O   O17       1.0  0.28660  0.12600  0.42873  1.0000 -0.4945811362
O   O18       1.0  0.71340  0.87400  0.57127  1.0000 -0.4950436384
O   O19       1.0  0.19510  0.27350  0.43871  1.0000 -0.7290739448
O   O20       1.0  0.80490  0.72650  0.56129  1.0000 -0.7290739448
O   O21       1.0  0.63640  0.37670  0.47075  1.0000 -0.6518236429
O   O22       1.0  0.36360  0.62330  0.52925  1.0000 -0.6518236429
O   O23       1.0  0.44430  0.35330  0.41319  1.0000 -0.638264987
O   O24       1.0  0.55570  0.64670  0.58681  1.0000 -0.638264987
O   O25       1.0  0.79820  0.63350  0.66243  1.0000 -0.8201302519
O   O26       1.0  0.20180  0.36650  0.33757  1.0000 -0.8201302519
O   O27       1.0  0.86820  0.46010  0.58543  1.0000 -0.8201302519
O   O28       1.0  0.13180  0.53990  0.41457  1.0000 -0.8201302519
O   O29       1.0  0.82670  0.54590  0.47363  1.0000 -0.8002712161
O   O30       1.0  0.17330  0.45410  0.52637  1.0000 -0.8002712161
O   O31       1.0  0.11950  0.37190  0.16284  1.0000 -0.8073563606
O   O32       1.0  0.88050  0.62810  0.83716  1.0000 -0.8073563606
O   O33       1.0  0.24580  0.32240  0.06944  1.0000 -0.8201302519
O   O34       1.0  0.75420  0.67760  0.93056  1.0000 -0.8201302519
O   O35       1.0  0.02060  0.18980  0.97423  1.0000 -0.7497525842
O   O36       1.0  0.97940  0.81020  0.02577  1.0000 -0.7497525842
O   O37       1.0  0.31720  0.89670  0.47721  1.0000 -0.3536587388
O   O38       1.0  0.18920  0.74810  0.43772  1.0000 -0.4000990496
O   O39       1.0  0.12390  0.89850  0.46839  1.0000 -0.4000990496
O   O40       1.0  0.68280  0.10330  0.52279  1.0000 -0.3536587388
O   O41       1.0  0.81080  0.25190  0.56228  1.0000 -0.4000990496
O   O42       1.0  0.87610  0.10150  0.53161  1.0000 -0.4000990496
O   O43       1.0  0.03810  0.62350  0.73497  1.0000 -0.4373077781
O   O44       1.0  0.21200  0.57130  0.73853  1.0000 -0.4000990496
O   O45       1.0  0.12560  0.62880  0.65853  1.0000 -0.4214208902
O   O46       1.0  0.96190  0.37650  0.26503  1.0000 -0.4373077781
O   O47       1.0  0.78800  0.42870  0.26147  1.0000 -0.4000990496
O   O48       1.0  0.87440  0.37120  0.34147  1.0000 -0.4214208902
O   O49       1.0  0.90220  0.94830  0.79717  1.0000 -0.394794348
O   O50       1.0  0.90940  0.11720  0.84420  1.0000 -0.4214208902
O   O51       1.0  0.77520  0.04590  0.75792  1.0000 -0.4000990496
O   O52       1.0  0.09780  0.05170  0.20283  1.0000 -0.394794348
O   O53       1.0  0.09060  0.88280  0.15580  1.0000 -0.4214208902
O   O54       1.0  0.22480  0.95410  0.24208  1.0000 -0.4000990496
