# DDEC6 charges by PACMAN v1.1 (https://github.com/mtap-research/PACMAN-charge/)
data_2011[Nd][pcu]3[ION]1
_chemical_formula_sum              "Nd16 H88 C48 N12 Cl8 O136"
_cell_length_a       11.5675
_cell_length_b       20.924
_cell_length_c       23.7993
_cell_angle_alpha    90
_cell_angle_beta     90
_cell_angle_gamma    90

_symmetry_space_group_name_H-M    "P 1"
_symmetry_Int_Tables_number       1

loop_
  _symmetry_equiv_pos_as_xyz
  'x, y, z'

loop_
  _atom_site_type_symbol
  _atom_site_label
  _atom_site_symmetry_multiplicity
  _atom_site_fract_x
  _atom_site_fract_y
  _atom_site_fract_z
  _atom_site_occupancy
  _atom_site_charge
Nd  Nd1       1.0  0.57841  0.96361  0.26898  1.0000 2.2162466292
Nd  Nd2       1.0  0.92159  0.03639  0.76898  1.0000 2.2162466292
Nd  Nd3       1.0  0.07841  0.53639  0.73102  1.0000 2.2162466292
Nd  Nd4       1.0  0.42159  0.46361  0.23102  1.0000 2.2162466292
Nd  Nd5       1.0  0.75635  0.87619  0.15049  1.0000 2.2102906152
Nd  Nd6       1.0  0.74365  0.12381  0.65049  1.0000 2.2102906152
Nd  Nd7       1.0  0.25635  0.62381  0.84951  1.0000 2.2102906152
Nd  Nd8       1.0  0.24365  0.37619  0.34951  1.0000 2.2102906152
Nd  Nd9       1.0  0.91993  0.97365  0.26582  1.0000 2.2162466292
Nd  Nd10      1.0  0.58007  0.02635  0.76582  1.0000 2.2162466292
Nd  Nd11      1.0  0.41993  0.52635  0.73418  1.0000 2.2102906152
Nd  Nd12      1.0  0.08007  0.47365  0.23418  1.0000 2.2102906152
Nd  Nd13      1.0  0.73431  0.06776  0.15599  1.0000 2.165468578
Nd  Nd14      1.0  0.76569  0.93224  0.65599  1.0000 2.165468578
Nd  Nd15      1.0  0.23431  0.43224  0.84401  1.0000 2.165468578
Nd  Nd16      1.0  0.26569  0.56776  0.34401  1.0000 2.165468578
H   H1        1.0  0.64990  0.21700  0.20910  1.0000 0.2868729427
H   H2        1.0  0.85010  0.78300  0.70910  1.0000 0.2868729427
H   H3        1.0  0.14990  0.28300  0.79090  1.0000 0.2868729427
H   H4        1.0  0.35010  0.71700  0.29090  1.0000 0.2868729427
H   H5        1.0  0.66060  0.26630  0.25190  1.0000 0.2478116497
H   H6        1.0  0.83940  0.73370  0.75190  1.0000 0.2478116497
H   H7        1.0  0.16060  0.23370  0.74810  1.0000 0.2478116497
H   H8        1.0  0.33940  0.76630  0.24810  1.0000 0.2478116497
H   H9        1.0  0.62060  0.28280  0.19580  1.0000 0.2795408531
H   H10       1.0  0.87940  0.71720  0.69580  1.0000 0.2795408531
H   H11       1.0  0.12060  0.21720  0.80420  1.0000 0.2795408531
H   H12       1.0  0.37940  0.78280  0.30420  1.0000 0.2795408531
H   H13       1.0  0.09720  0.14740  0.31630  1.0000 0.2742191448
H   H14       1.0  0.40280  0.85260  0.81630  1.0000 0.2742191448
H   H15       1.0  0.59720  0.35260  0.68370  1.0000 0.2742191448
H   H16       1.0  0.90280  0.64740  0.18370  1.0000 0.2795408531
H   H17       1.0  0.12970  0.21430  0.31190  1.0000 0.3026723906
H   H18       1.0  0.37030  0.78570  0.81190  1.0000 0.3026723906
H   H19       1.0  0.62970  0.28570  0.68810  1.0000 0.3026723906
H   H20       1.0  0.87030  0.71430  0.18810  1.0000 0.3026723906
H   H21       1.0  0.14940  0.17130  0.26490  1.0000 0.2565135156
H   H22       1.0  0.35060  0.82870  0.76490  1.0000 0.2478116497
H   H23       1.0  0.64940  0.32870  0.73510  1.0000 0.2565135156
H   H24       1.0  0.85060  0.67130  0.23510  1.0000 0.2565135156
H   H25       1.0  0.41230  0.18210  0.29270  1.0000 0.1696053043
H   H26       1.0  0.08770  0.81790  0.79270  1.0000 0.1696053043
H   H27       1.0  0.91230  0.31790  0.70730  1.0000 0.1696053043
H   H28       1.0  0.58770  0.68210  0.20730  1.0000 0.1696053043
H   H29       1.0  0.53990  0.19500  0.31140  1.0000 0.1696053043
H   H30       1.0  0.96010  0.80500  0.81140  1.0000 0.1696053043
H   H31       1.0  0.03990  0.30500  0.68860  1.0000 0.1696053043
H   H32       1.0  0.46010  0.69500  0.18860  1.0000 0.1696053043
H   H33       1.0  0.45240  0.23000  0.20680  1.0000 0.1328228999
H   H34       1.0  0.04760  0.77000  0.70680  1.0000 0.1328228999
H   H35       1.0  0.95240  0.27000  0.79320  1.0000 0.1328228999
H   H36       1.0  0.54760  0.73000  0.29320  1.0000 0.1328228999
H   H37       1.0  0.63540  0.08300  0.00680  1.0000 0.3026723906
H   H38       1.0  0.86460  0.91700  0.50680  1.0000 0.3026723906
H   H39       1.0  0.13540  0.41700  0.99320  1.0000 0.3026723906
H   H40       1.0  0.36460  0.58300  0.49320  1.0000 0.3026723906
H   H41       1.0  0.57330  0.05860  0.95830  1.0000 0.2742191448
H   H42       1.0  0.92670  0.94140  0.45830  1.0000 0.2795408531
H   H43       1.0  0.07330  0.44140  0.04170  1.0000 0.2742191448
H   H44       1.0  0.42670  0.55860  0.54170  1.0000 0.2742191448
H   H45       1.0  0.62930  0.12070  0.95560  1.0000 0.2795408531
H   H46       1.0  0.87070  0.87930  0.45560  1.0000 0.2795408531
H   H47       1.0  0.12930  0.37930  0.04440  1.0000 0.2795408531
H   H48       1.0  0.37070  0.62070  0.54440  1.0000 0.2795408531
H   H49       1.0  0.93360  0.20800  0.30200  1.0000 0.115280275
H   H50       1.0  0.56640  0.79200  0.80200  1.0000 0.115280275
H   H51       1.0  0.43360  0.29200  0.69800  1.0000 0.115280275
H   H52       1.0  0.06640  0.70800  0.19800  1.0000 0.1148735627
H   H53       1.0  0.04460  0.24330  0.20060  1.0000 0.1696053043
H   H54       1.0  0.45540  0.75670  0.70060  1.0000 0.1696053043
H   H55       1.0  0.54460  0.25670  0.79940  1.0000 0.1696053043
H   H56       1.0  0.95540  0.74330  0.29940  1.0000 0.1696053043
H   H57       1.0  0.91630  0.26100  0.21420  1.0000 0.1696053043
H   H58       1.0  0.58370  0.73900  0.71420  1.0000 0.1696053043
H   H59       1.0  0.41630  0.23900  0.78580  1.0000 0.1696053043
H   H60       1.0  0.08370  0.76100  0.28580  1.0000 0.1696053043
H   H61       1.0  0.81970  0.96260  0.95530  1.0000 0.1838407859
H   H62       1.0  0.68030  0.03740  0.45530  1.0000 0.1838407859
H   H63       1.0  0.31970  0.53740  0.04470  1.0000 0.1838407859
H   H64       1.0  0.18030  0.46260  0.54470  1.0000 0.1838407859
H   H65       1.0  0.68470  0.95860  0.95510  1.0000 0.1633679464
H   H66       1.0  0.81530  0.04140  0.45510  1.0000 0.1633679464
H   H67       1.0  0.18470  0.54140  0.04490  1.0000 0.1633679464
H   H68       1.0  0.31530  0.45860  0.54490  1.0000 0.1633679464
H   H69       1.0  0.81110  0.07420  0.96130  1.0000 0.1328228999
H   H70       1.0  0.68890  0.92580  0.46130  1.0000 0.1328228999
H   H71       1.0  0.31110  0.42580  0.03870  1.0000 0.1328228999
H   H72       1.0  0.18890  0.57420  0.53870  1.0000 0.1328228999
H   H73       1.0  0.73990  0.06980  0.28190  1.0000 0.4622902877
H   H74       1.0  0.76010  0.93020  0.78190  1.0000 0.4622902877
H   H75       1.0  0.23990  0.43020  0.71810  1.0000 0.4622902877
H   H76       1.0  0.26010  0.56980  0.21810  1.0000 0.4622902877
H   H77       1.0  0.75810  0.86640  0.27400  1.0000 0.4534729987
H   H78       1.0  0.74190  0.13360  0.77400  1.0000 0.4534729987
H   H79       1.0  0.25810  0.63360  0.72600  1.0000 0.4534729987
H   H80       1.0  0.24190  0.36640  0.22600  1.0000 0.4534729987
H   H81       1.0  0.93150  0.97910  0.14370  1.0000 0.4366101517
H   H82       1.0  0.56850  0.02090  0.64370  1.0000 0.4366101517
H   H83       1.0  0.43150  0.52090  0.85630  1.0000 0.4366101517
H   H84       1.0  0.06850  0.47910  0.35630  1.0000 0.4366101517
H   H85       1.0  0.55430  0.96660  0.14630  1.0000 0.4622902877
H   H86       1.0  0.94570  0.03340  0.64630  1.0000 0.4622902877
H   H87       1.0  0.05430  0.53340  0.85370  1.0000 0.4622902877
H   H88       1.0  0.44570  0.46660  0.35370  1.0000 0.4622902877
C   C1        1.0  0.52780  0.12180  0.25400  1.0000 0.7129583403
C   C2        1.0  0.97220  0.87820  0.75400  1.0000 0.7129583403
C   C3        1.0  0.02780  0.37820  0.74600  1.0000 0.7129583403
C   C4        1.0  0.47220  0.62180  0.24600  1.0000 0.7129583403
C   C5        1.0  0.49110  0.18600  0.27920  1.0000 -0.3812585348
C   C6        1.0  0.00890  0.81400  0.77920  1.0000 -0.3738776798
C   C7        1.0  0.99110  0.31400  0.72080  1.0000 -0.3738776798
C   C8        1.0  0.50890  0.68600  0.22080  1.0000 -0.3738776798
C   C9        1.0  0.49700  0.24100  0.24040  1.0000 0.046888334
C   C10       1.0  0.00300  0.75900  0.74040  1.0000 0.046888334
C   C11       1.0  0.99700  0.25900  0.75960  1.0000 0.046888334
C   C12       1.0  0.50300  0.74100  0.25960  1.0000 0.046888334
C   C13       1.0  0.44840  0.30340  0.26380  1.0000 0.6103202328
C   C14       1.0  0.05160  0.69660  0.76380  1.0000 0.6103202328
C   C15       1.0  0.94840  0.19660  0.73620  1.0000 0.6103202328
C   C16       1.0  0.55160  0.80340  0.23620  1.0000 0.6103202328
C   C17       1.0  0.93330  0.13680  0.24210  1.0000 0.6103202328
C   C18       1.0  0.56670  0.86320  0.74210  1.0000 0.6039976522
C   C19       1.0  0.43330  0.36320  0.75790  1.0000 0.6103202328
C   C20       1.0  0.06670  0.63680  0.25790  1.0000 0.6039976522
C   C21       1.0  0.98370  0.19640  0.27040  1.0000 0.046888334
C   C22       1.0  0.51630  0.80360  0.77040  1.0000 0.046888334
C   C23       1.0  0.48370  0.30360  0.72960  1.0000 0.046888334
C   C24       1.0  0.01630  0.69640  0.22960  1.0000 0.046888334
C   C25       1.0  0.99180  0.25390  0.23080  1.0000 -0.38800308
C   C26       1.0  0.50820  0.74610  0.73080  1.0000 -0.38800308
C   C27       1.0  0.49180  0.24610  0.76920  1.0000 -0.38800308
C   C28       1.0  0.00820  0.75390  0.26920  1.0000 -0.38800308
C   C29       1.0  0.03130  0.31510  0.25720  1.0000 0.7176606699
C   C30       1.0  0.46870  0.68490  0.75720  1.0000 0.7176606699
C   C31       1.0  0.53130  0.18490  0.74280  1.0000 0.7176606699
C   C32       1.0  0.96870  0.81510  0.24280  1.0000 0.7176606699
C   C33       1.0  0.75010  0.97560  0.03340  1.0000 0.7301069542
C   C34       1.0  0.74990  0.02440  0.53340  1.0000 0.7301069542
C   C35       1.0  0.25010  0.52440  0.96660  1.0000 0.7301069542
C   C36       1.0  0.24990  0.47560  0.46660  1.0000 0.7301069542
C   C37       1.0  0.75000  0.98220  0.97000  1.0000 -0.38800308
C   C38       1.0  0.75000  0.01780  0.47000  1.0000 -0.38800308
C   C39       1.0  0.25000  0.51780  0.03000  1.0000 -0.38800308
C   C40       1.0  0.25000  0.48220  0.53000  1.0000 -0.38800308
C   C41       1.0  0.74350  0.05000  0.94860  1.0000 0.0382249288
C   C42       1.0  0.75650  0.95000  0.44860  1.0000 0.0382249288
C   C43       1.0  0.24350  0.45000  0.05140  1.0000 0.0382249288
C   C44       1.0  0.25650  0.55000  0.55140  1.0000 0.0382249288
C   C45       1.0  0.74110  0.04710  0.88460  1.0000 0.6103202328
C   C46       1.0  0.75890  0.95290  0.38460  1.0000 0.6103202328
C   C47       1.0  0.24110  0.45290  0.11540  1.0000 0.6103202328
C   C48       1.0  0.25890  0.54710  0.61540  1.0000 0.6103202328
N   N1        1.0  0.61950  0.25300  0.22250  1.0000 -0.4096592024
N   N2        1.0  0.88050  0.74700  0.72250  1.0000 -0.4096592024
N   N3        1.0  0.11950  0.24700  0.77750  1.0000 -0.4096592024
N   N4        1.0  0.38050  0.75300  0.27750  1.0000 -0.4096592024
N   N5        1.0  0.10210  0.18070  0.29320  1.0000 -0.38800308
N   N6        1.0  0.39790  0.81930  0.79320  1.0000 -0.38800308
N   N7        1.0  0.60210  0.31930  0.70680  1.0000 -0.38800308
N   N8        1.0  0.89790  0.68070  0.20680  1.0000 -0.38800308
N   N9        1.0  0.63410  0.08130  0.96940  1.0000 -0.4409600303
N   N10       1.0  0.86590  0.91870  0.46940  1.0000 -0.4409600303
N   N11       1.0  0.13410  0.41870  0.03060  1.0000 -0.4409600303
N   N12       1.0  0.36590  0.58130  0.53060  1.0000 -0.4409600303
Cl  Cl1       1.0  0.90590  0.48596  0.49725  1.0000 1.0822117373
Cl  Cl2       1.0  0.59410  0.51404  0.99725  1.0000 1.1138600751
Cl  Cl3       1.0  0.40590  0.01404  0.50275  1.0000 1.0822117373
Cl  Cl4       1.0  0.09410  0.98596  0.00275  1.0000 1.087458913
Cl  Cl5       1.0  0.48770  0.28781  0.05021  1.0000 1.2023869201
Cl  Cl6       1.0  0.01230  0.71219  0.55021  1.0000 1.205863957
Cl  Cl7       1.0  0.98770  0.21219  0.94979  1.0000 1.2023869201
Cl  Cl8       1.0  0.51230  0.78781  0.44979  1.0000 1.205863957
O   O1        1.0  0.74250  0.03327  0.25616  1.0000 -1.1537039037
O   O2        1.0  0.75750  0.96673  0.75616  1.0000 -1.1561413363
O   O3        1.0  0.24250  0.46673  0.74384  1.0000 -1.1537039037
O   O4        1.0  0.25750  0.53327  0.24384  1.0000 -1.1537039037
O   O5        1.0  0.75360  0.90470  0.25040  1.0000 -1.135616
O   O6        1.0  0.74640  0.09530  0.75040  1.0000 -1.135616
O   O7        1.0  0.25360  0.59530  0.74960  1.0000 -1.1325625137
O   O8        1.0  0.24640  0.40470  0.24960  1.0000 -1.1325625137
O   O9        1.0  0.86380  0.97580  0.16824  1.0000 -1.1057228401
O   O10       1.0  0.63620  0.02420  0.66824  1.0000 -1.1036400393
O   O11       1.0  0.36380  0.52420  0.83176  1.0000 -1.1057228401
O   O12       1.0  0.13620  0.47580  0.33176  1.0000 -1.1036400393
O   O13       1.0  0.62390  0.96810  0.16978  1.0000 -1.1036400393
O   O14       1.0  0.87610  0.03190  0.66978  1.0000 -1.1036400393
O   O15       1.0  0.12390  0.53190  0.83022  1.0000 -1.1057228401
O   O16       1.0  0.37610  0.46810  0.33022  1.0000 -1.1036400393
O   O17       1.0  0.49920  0.07260  0.27940  1.0000 -0.6203581125
O   O18       1.0  0.00080  0.92740  0.77940  1.0000 -0.6203581125
O   O19       1.0  0.99920  0.42740  0.72060  1.0000 -0.6203581125
O   O20       1.0  0.50080  0.57260  0.22060  1.0000 -0.6203581125
O   O21       1.0  0.58100  0.12350  0.20820  1.0000 -0.6203581125
O   O22       1.0  0.91900  0.87650  0.70820  1.0000 -0.6203581125
O   O23       1.0  0.08100  0.37650  0.79180  1.0000 -0.6203581125
O   O24       1.0  0.41900  0.62350  0.29180  1.0000 -0.6203581125
O   O25       1.0  0.48910  0.35440  0.24580  1.0000 -0.5898339816
O   O26       1.0  0.01090  0.64560  0.74580  1.0000 -0.5898339816
O   O27       1.0  0.98910  0.14560  0.75420  1.0000 -0.5898339816
O   O28       1.0  0.51090  0.85440  0.25420  1.0000 -0.5898339816
O   O29       1.0  0.36880  0.29760  0.29890  1.0000 -0.5898339816
O   O30       1.0  0.13120  0.70240  0.79890  1.0000 -0.5898339816
O   O31       1.0  0.86880  0.20240  0.70110  1.0000 -0.5898339816
O   O32       1.0  0.63120  0.79760  0.20110  1.0000 -0.5898339816
O   O33       1.0  0.84940  0.14590  0.21090  1.0000 -0.6003536736
O   O34       1.0  0.65060  0.85410  0.71090  1.0000 -0.6003536736
O   O35       1.0  0.34940  0.35410  0.78910  1.0000 -0.6003536736
O   O36       1.0  0.15060  0.64590  0.28910  1.0000 -0.6003536736
O   O37       1.0  0.97860  0.08470  0.25370  1.0000 -0.6112065108
O   O38       1.0  0.52140  0.91530  0.75370  1.0000 -0.6112065108
O   O39       1.0  0.47860  0.41530  0.74630  1.0000 -0.6112065108
O   O40       1.0  0.02140  0.58470  0.24630  1.0000 -0.6112065108
O   O41       1.0  0.00120  0.36620  0.23510  1.0000 -0.6203581125
O   O42       1.0  0.49880  0.63380  0.73510  1.0000 -0.6203581125
O   O43       1.0  0.50120  0.13380  0.76490  1.0000 -0.6203581125
O   O44       1.0  0.99880  0.86620  0.26490  1.0000 -0.6203581125
O   O45       1.0  0.09790  0.31130  0.29890  1.0000 -0.6003536736
O   O46       1.0  0.40210  0.68870  0.79890  1.0000 -0.6003536736
O   O47       1.0  0.59790  0.18870  0.70110  1.0000 -0.6003536736
O   O48       1.0  0.90210  0.81130  0.20110  1.0000 -0.6003536736
O   O49       1.0  0.74500  0.02610  0.06163  1.0000 -0.5898339816
O   O50       1.0  0.75500  0.97390  0.56163  1.0000 -0.5898339816
O   O51       1.0  0.24500  0.47390  0.93837  1.0000 -0.5898339816
O   O52       1.0  0.25500  0.52610  0.43837  1.0000 -0.5898339816
O   O53       1.0  0.75740  0.92010  0.05340  1.0000 -0.5898339816
O   O54       1.0  0.74260  0.07990  0.55340  1.0000 -0.5898339816
O   O55       1.0  0.25740  0.57990  0.94660  1.0000 -0.5898339816
O   O56       1.0  0.24260  0.42010  0.44660  1.0000 -0.5898339816
O   O57       1.0  0.83930  0.04170  0.86150  1.0000 -0.6203581125
O   O58       1.0  0.66070  0.95830  0.36150  1.0000 -0.6203581125
O   O59       1.0  0.33930  0.45830  0.13850  1.0000 -0.6203581125
O   O60       1.0  0.16070  0.54170  0.63850  1.0000 -0.6203581125
O   O61       1.0  0.64580  0.04640  0.86110  1.0000 -0.6112065108
O   O62       1.0  0.85420  0.95360  0.36110  1.0000 -0.6112065108
O   O63       1.0  0.14580  0.45360  0.13890  1.0000 -0.6112065108
O   O64       1.0  0.35420  0.54640  0.63890  1.0000 -0.6112065108
O   O65       1.0  0.38300  0.96710  0.21970  1.0000 -0.4220323419
O   O66       1.0  0.11700  0.03290  0.71970  1.0000 -0.4220323419
O   O67       1.0  0.88300  0.53290  0.78030  1.0000 -0.4220323419
O   O68       1.0  0.61700  0.46710  0.28030  1.0000 -0.4220323419
O   O69       1.0  0.42150  0.94570  0.34370  1.0000 -0.1708812967
O   O70       1.0  0.07850  0.05430  0.84370  1.0000 -0.1767519892
O   O71       1.0  0.92150  0.55430  0.65630  1.0000 -0.1708812967
O   O72       1.0  0.57850  0.44570  0.15630  1.0000 -0.1767519892
O   O73       1.0  0.76680  0.76940  0.10190  1.0000 -0.6112065108
O   O74       1.0  0.73320  0.23060  0.60190  1.0000 -0.6112065108
O   O75       1.0  0.26680  0.73060  0.89810  1.0000 -0.6003536736
O   O76       1.0  0.23320  0.26940  0.39810  1.0000 -0.6112065108
O   O77       1.0  0.56570  0.85630  0.09740  1.0000 -0.4826223806
O   O78       1.0  0.93430  0.14370  0.59740  1.0000 -0.4899375931
O   O79       1.0  0.06570  0.64370  0.90260  1.0000 -0.4899375931
O   O80       1.0  0.43430  0.35630  0.40260  1.0000 -0.4899375931
O   O81       1.0  0.95030  0.86350  0.09850  1.0000 -0.3128101185
O   O82       1.0  0.54970  0.13650  0.59850  1.0000 -0.3128101185
O   O83       1.0  0.45030  0.63650  0.90150  1.0000 -0.3177149699
O   O84       1.0  0.04970  0.36350  0.40150  1.0000 -0.3177149699
O   O85       1.0  0.10370  0.97240  0.20540  1.0000 -0.3373200253
O   O86       1.0  0.39630  0.02760  0.70540  1.0000 -0.3373200253
O   O87       1.0  0.60370  0.52760  0.79460  1.0000 -0.3373200253
O   O88       1.0  0.89630  0.47240  0.29460  1.0000 -0.3308548585
O   O89       1.0  0.08910  0.98590  0.33110  1.0000 -0.4899375931
O   O90       1.0  0.41090  0.01410  0.83110  1.0000 -0.4899375931
O   O91       1.0  0.58910  0.51410  0.66890  1.0000 -0.5014735416
O   O92       1.0  0.91090  0.48590  0.16890  1.0000 -0.5014735416
O   O93       1.0  0.54340  0.08290  0.09600  1.0000 -0.38800308
O   O94       1.0  0.95660  0.91710  0.59600  1.0000 -0.38800308
O   O95       1.0  0.04340  0.41710  0.90400  1.0000 -0.38800308
O   O96       1.0  0.45660  0.58290  0.40400  1.0000 -0.38800308
O   O97       1.0  0.71180  0.18000  0.11260  1.0000 -0.3522116348
O   O98       1.0  0.78820  0.82000  0.61260  1.0000 -0.3522116348
O   O99       1.0  0.21180  0.32000  0.88740  1.0000 -0.3522116348
O   O100      1.0  0.28820  0.68000  0.38740  1.0000 -0.3522116348
O   O101      1.0  0.92450  0.09620  0.10510  1.0000 -0.2427464481
O   O102      1.0  0.57550  0.90380  0.60510  1.0000 -0.2427464481
O   O103      1.0  0.42450  0.40380  0.89490  1.0000 -0.247272487
O   O104      1.0  0.07550  0.59620  0.39490  1.0000 -0.2427464481
O   O105      1.0  0.98500  0.53640  0.50650  1.0000 -0.3614125729
O   O106      1.0  0.98400  0.43540  0.48670  1.0000 -0.3614125729
O   O107      1.0  0.84600  0.48160  0.54940  1.0000 -0.2688226507
O   O108      1.0  0.80600  0.49470  0.46380  1.0000 -0.3812585348
O   O109      1.0  0.51500  0.46360  0.00650  1.0000 -0.3614125729
O   O110      1.0  0.51600  0.56460  0.98670  1.0000 -0.3614125729
O   O111      1.0  0.65400  0.51840  0.04940  1.0000 -0.2688226507
O   O112      1.0  0.69400  0.50530  0.96380  1.0000 -0.3812585348
O   O113      1.0  0.48500  0.96360  0.49350  1.0000 -0.3614125729
O   O114      1.0  0.48400  0.06460  0.51330  1.0000 -0.3614125729
O   O115      1.0  0.34600  0.01840  0.45060  1.0000 -0.2688226507
O   O116      1.0  0.30600  0.00530  0.53620  1.0000 -0.3812585348
O   O117      1.0  0.01500  0.03640  0.99350  1.0000 -0.3614125729
O   O118      1.0  0.01600  0.93540  0.01330  1.0000 -0.3614125729
O   O119      1.0  0.15400  0.98160  0.95060  1.0000 -0.2688226507
O   O120      1.0  0.19400  0.99470  0.03620  1.0000 -0.3812585348
O   O121      1.0  0.51220  0.31270  0.10280  1.0000 -0.4257147268
O   O122      1.0  0.51470  0.22270  0.04870  1.0000 -0.38800308
O   O123      1.0  0.36900  0.29650  0.04310  1.0000 -0.4096592024
O   O124      1.0  0.54230  0.31580  0.00390  1.0000 -0.38800308
O   O125      1.0  0.98780  0.68730  0.60280  1.0000 -0.4220323419
O   O126      1.0  0.98530  0.77730  0.54870  1.0000 -0.3812585348
O   O127      1.0  0.13100  0.70350  0.54310  1.0000 -0.4096592024
O   O128      1.0  0.95770  0.68420  0.50390  1.0000 -0.3812585348
O   O129      1.0  0.01220  0.18730  0.89720  1.0000 -0.4257147268
O   O130      1.0  0.01470  0.27730  0.95130  1.0000 -0.3812585348
O   O131      1.0  0.86900  0.20350  0.95690  1.0000 -0.4096592024
O   O132      1.0  0.04230  0.18420  0.99610  1.0000 -0.3812585348
O   O133      1.0  0.48780  0.81270  0.39720  1.0000 -0.4220323419
O   O134      1.0  0.48530  0.72270  0.45130  1.0000 -0.3812585348
O   O135      1.0  0.63100  0.79650  0.45690  1.0000 -0.4096592024
O   O136      1.0  0.45770  0.81580  0.49610  1.0000 -0.3812585348
