# DDEC6 charges by PACMAN v1.1 (https://github.com/mtap-research/PACMAN-charge/)
data_2011[Cd][nuc]3[ION]2
_chemical_formula_sum              "Cd4 H144 C192 N48 Cl4 O16"
_cell_length_a       15.8638
_cell_length_b       15.8638
_cell_length_c       21.568
_cell_angle_alpha    90
_cell_angle_beta     90
_cell_angle_gamma    90

_symmetry_space_group_name_H-M    "P 1"
_symmetry_Int_Tables_number       1

loop_
  _symmetry_equiv_pos_as_xyz
  'x, y, z'

loop_
  _atom_site_type_symbol
  _atom_site_label
  _atom_site_symmetry_multiplicity
  _atom_site_fract_x
  _atom_site_fract_y
  _atom_site_fract_z
  _atom_site_occupancy
  _atom_site_charge
Cd  Cd1       1.0  0.94084  0.05916  0.25000  1.0000 0.6415841889
Cd  Cd2       1.0  0.05916  0.94084  0.75000  1.0000 0.6415841889
Cd  Cd3       1.0  0.44084  0.44084  0.50000  1.0000 0.6415841889
Cd  Cd4       1.0  0.55916  0.55916  0.00000  1.0000 0.6415841889
H   H1        1.0  0.06160  0.15730  0.15820  1.0000 0.1005206134
H   H2        1.0  0.93840  0.84270  0.65820  1.0000 0.1005206134
H   H3        1.0  0.34270  0.56160  0.40820  1.0000 0.1005206134
H   H4        1.0  0.65730  0.43840  0.90820  1.0000 0.1005206134
H   H5        1.0  0.43840  0.65730  0.09180  1.0000 0.1005206134
H   H6        1.0  0.56160  0.34270  0.59180  1.0000 0.1005206134
H   H7        1.0  0.15730  0.06160  0.84180  1.0000 0.1005206134
H   H8        1.0  0.84270  0.93840  0.34180  1.0000 0.1005206134
H   H9        1.0  0.15560  0.26440  0.14270  1.0000 0.1285969663
H   H10       1.0  0.84440  0.73560  0.64270  1.0000 0.1285969663
H   H11       1.0  0.23560  0.65560  0.39270  1.0000 0.1285969663
H   H12       1.0  0.76440  0.34440  0.89270  1.0000 0.1285969663
H   H13       1.0  0.34440  0.76440  0.10730  1.0000 0.1285969663
H   H14       1.0  0.65560  0.23560  0.60730  1.0000 0.1285969663
H   H15       1.0  0.26440  0.15560  0.85730  1.0000 0.1285969663
H   H16       1.0  0.73560  0.84440  0.35730  1.0000 0.1285969663
H   H17       1.0  0.10030  0.34960  0.31270  1.0000 0.1285969663
H   H18       1.0  0.89970  0.65040  0.81270  1.0000 0.1285969663
H   H19       1.0  0.15040  0.60030  0.56270  1.0000 0.1285969663
H   H20       1.0  0.84960  0.39970  0.06270  1.0000 0.1285969663
H   H21       1.0  0.39970  0.84960  0.93730  1.0000 0.1285969663
H   H22       1.0  0.60030  0.15040  0.43730  1.0000 0.1285969663
H   H23       1.0  0.34960  0.10030  0.68730  1.0000 0.1285969663
H   H24       1.0  0.65040  0.89970  0.18730  1.0000 0.1285969663
H   H25       1.0  0.00600  0.23860  0.32380  1.0000 0.0940256744
H   H26       1.0  0.99400  0.76140  0.82380  1.0000 0.0940256744
H   H27       1.0  0.26140  0.50600  0.57380  1.0000 0.0940256744
H   H28       1.0  0.73860  0.49400  0.07380  1.0000 0.0940256744
H   H29       1.0  0.49400  0.73860  0.92620  1.0000 0.0940256744
H   H30       1.0  0.50600  0.26140  0.42620  1.0000 0.0940256744
H   H31       1.0  0.23860  0.00600  0.67620  1.0000 0.0940256744
H   H32       1.0  0.76140  0.99400  0.17620  1.0000 0.0940256744
H   H33       1.0  0.27890  0.32400  0.15630  1.0000 0.1005206134
H   H34       1.0  0.72110  0.67600  0.65630  1.0000 0.1005206134
H   H35       1.0  0.17600  0.77890  0.40630  1.0000 0.1005206134
H   H36       1.0  0.82400  0.22110  0.90630  1.0000 0.1005206134
H   H37       1.0  0.22110  0.82400  0.09370  1.0000 0.1005206134
H   H38       1.0  0.77890  0.17600  0.59370  1.0000 0.1005206134
H   H39       1.0  0.32400  0.27890  0.84370  1.0000 0.1005206134
H   H40       1.0  0.67600  0.72110  0.34370  1.0000 0.1005206134
H   H41       1.0  0.38050  0.54430  0.21040  1.0000 0.1093969431
H   H42       1.0  0.61950  0.45570  0.71040  1.0000 0.1093969431
H   H43       1.0  0.95570  0.88050  0.46040  1.0000 0.1093969431
H   H44       1.0  0.04430  0.11950  0.96040  1.0000 0.1093969431
H   H45       1.0  0.11950  0.04430  0.03960  1.0000 0.1093969431
H   H46       1.0  0.88050  0.95570  0.53960  1.0000 0.1093969431
H   H47       1.0  0.54430  0.38050  0.78960  1.0000 0.1093969431
H   H48       1.0  0.45570  0.61950  0.28960  1.0000 0.1093969431
H   H49       1.0  0.26480  0.56780  0.27390  1.0000 0.1093969431
H   H50       1.0  0.73520  0.43220  0.77390  1.0000 0.1093969431
H   H51       1.0  0.93220  0.76480  0.52390  1.0000 0.1093969431
H   H52       1.0  0.06780  0.23520  0.02390  1.0000 0.1093969431
H   H53       1.0  0.23520  0.06780  0.97610  1.0000 0.1093969431
H   H54       1.0  0.76480  0.93220  0.47610  1.0000 0.1093969431
H   H55       1.0  0.56780  0.26480  0.72610  1.0000 0.1093969431
H   H56       1.0  0.43220  0.73520  0.22610  1.0000 0.1093969431
H   H57       1.0  0.16550  0.46390  0.28880  1.0000 0.1093969431
H   H58       1.0  0.83450  0.53610  0.78880  1.0000 0.1093969431
H   H59       1.0  0.03610  0.66550  0.53880  1.0000 0.1093969431
H   H60       1.0  0.96390  0.33450  0.03880  1.0000 0.1093969431
H   H61       1.0  0.33450  0.96390  0.96120  1.0000 0.1093969431
H   H62       1.0  0.66550  0.03610  0.46120  1.0000 0.1093969431
H   H63       1.0  0.46390  0.16550  0.71120  1.0000 0.1093969431
H   H64       1.0  0.53610  0.83450  0.21120  1.0000 0.1093969431
H   H65       1.0  0.49080  0.29520  0.95940  1.0000 0.1093969431
H   H66       1.0  0.50920  0.70480  0.45940  1.0000 0.1093969431
H   H67       1.0  0.20480  0.99080  0.20940  1.0000 0.1093969431
H   H68       1.0  0.79520  0.00920  0.70940  1.0000 0.1093969431
H   H69       1.0  0.00920  0.79520  0.29060  1.0000 0.1093969431
H   H70       1.0  0.99080  0.20480  0.79060  1.0000 0.1093969431
H   H71       1.0  0.29520  0.49080  0.04060  1.0000 0.1093969431
H   H72       1.0  0.70480  0.50920  0.54060  1.0000 0.1093969431
H   H73       1.0  0.58460  0.20010  0.91480  1.0000 0.1005206134
H   H74       1.0  0.41540  0.79990  0.41480  1.0000 0.1005206134
H   H75       1.0  0.29990  0.08460  0.16480  1.0000 0.1005206134
H   H76       1.0  0.70010  0.91540  0.66480  1.0000 0.1005206134
H   H77       1.0  0.91540  0.70010  0.33520  1.0000 0.1005206134
H   H78       1.0  0.08460  0.29990  0.83520  1.0000 0.1005206134
H   H79       1.0  0.20010  0.58460  0.08520  1.0000 0.1005206134
H   H80       1.0  0.79990  0.41540  0.58520  1.0000 0.1005206134
H   H81       1.0  0.70180  0.14880  0.96930  1.0000 0.0940256744
H   H82       1.0  0.29820  0.85120  0.46930  1.0000 0.0940256744
H   H83       1.0  0.35120  0.20180  0.21930  1.0000 0.0940256744
H   H84       1.0  0.64880  0.79820  0.71930  1.0000 0.0940256744
H   H85       1.0  0.79820  0.64880  0.28070  1.0000 0.0940256744
H   H86       1.0  0.20180  0.35120  0.78070  1.0000 0.0940256744
H   H87       1.0  0.14880  0.70180  0.03070  1.0000 0.0940256744
H   H88       1.0  0.85120  0.29820  0.53070  1.0000 0.0940256744
H   H89       1.0  0.64100  0.30460  0.11130  1.0000 0.1093969431
H   H90       1.0  0.35900  0.69540  0.61130  1.0000 0.1093969431
H   H91       1.0  0.19540  0.14100  0.36130  1.0000 0.1093969431
H   H92       1.0  0.80460  0.85900  0.86130  1.0000 0.1093969431
H   H93       1.0  0.85900  0.80460  0.13870  1.0000 0.1093969431
H   H94       1.0  0.14100  0.19540  0.63870  1.0000 0.1093969431
H   H95       1.0  0.30460  0.64100  0.88870  1.0000 0.1093969431
H   H96       1.0  0.69540  0.35900  0.38870  1.0000 0.1093969431
H   H97       1.0  0.76170  0.28700  0.14510  1.0000 0.1285969663
H   H98       1.0  0.23830  0.71300  0.64510  1.0000 0.1285969663
H   H99       1.0  0.21300  0.26170  0.39510  1.0000 0.1285969663
H   H100      1.0  0.78700  0.73830  0.89510  1.0000 0.1285969663
H   H101      1.0  0.73830  0.78700  0.10490  1.0000 0.1285969663
H   H102      1.0  0.26170  0.21300  0.60490  1.0000 0.1285969663
H   H103      1.0  0.28700  0.76170  0.85490  1.0000 0.1285969663
H   H104      1.0  0.71300  0.23830  0.35490  1.0000 0.1285969663
H   H105      1.0  0.86050  0.23090  0.20890  1.0000 0.1005206134
H   H106      1.0  0.13950  0.76910  0.70890  1.0000 0.1005206134
H   H107      1.0  0.26910  0.36050  0.45890  1.0000 0.1005206134
H   H108      1.0  0.73090  0.63950  0.95890  1.0000 0.1005206134
H   H109      1.0  0.63950  0.73090  0.04110  1.0000 0.1005206134
H   H110      1.0  0.36050  0.26910  0.54110  1.0000 0.1005206134
H   H111      1.0  0.23090  0.86050  0.79110  1.0000 0.1005206134
H   H112      1.0  0.76910  0.13950  0.29110  1.0000 0.1005206134
H   H113      1.0  0.88750  0.03590  0.09980  1.0000 0.1005206134
H   H114      1.0  0.11250  0.96410  0.59980  1.0000 0.1005206134
H   H115      1.0  0.46410  0.38750  0.34980  1.0000 0.1005206134
H   H116      1.0  0.53590  0.61250  0.84980  1.0000 0.1005206134
H   H117      1.0  0.61250  0.53590  0.15020  1.0000 0.1005206134
H   H118      1.0  0.38750  0.46410  0.65020  1.0000 0.1005206134
H   H119      1.0  0.03590  0.88750  0.90020  1.0000 0.1005206134
H   H120      1.0  0.96410  0.11250  0.40020  1.0000 0.1005206134
H   H121      1.0  0.78630  0.08500  0.03250  1.0000 0.1285969663
H   H122      1.0  0.21370  0.91500  0.53250  1.0000 0.1285969663
H   H123      1.0  0.41500  0.28630  0.28250  1.0000 0.1285969663
H   H124      1.0  0.58500  0.71370  0.78250  1.0000 0.1285969663
H   H125      1.0  0.71370  0.58500  0.21750  1.0000 0.1285969663
H   H126      1.0  0.28630  0.41500  0.71750  1.0000 0.1285969663
H   H127      1.0  0.08500  0.78630  0.96750  1.0000 0.1285969663
H   H128      1.0  0.91500  0.21370  0.46750  1.0000 0.1285969663
H   H129      1.0  0.47240  0.24330  0.14490  1.0000 0.2665284883
H   H130      1.0  0.52760  0.75670  0.64490  1.0000 0.2665284883
H   H131      1.0  0.25670  0.97240  0.39490  1.0000 0.2665284883
H   H132      1.0  0.74330  0.02760  0.89490  1.0000 0.2665284883
H   H133      1.0  0.02760  0.74330  0.10510  1.0000 0.2665284883
H   H134      1.0  0.97240  0.25670  0.60510  1.0000 0.2665284883
H   H135      1.0  0.24330  0.47240  0.85510  1.0000 0.2665284883
H   H136      1.0  0.75670  0.52760  0.35510  1.0000 0.2665284883
H   H137      1.0  0.40110  0.23900  0.10030  1.0000 0.2583642613
H   H138      1.0  0.59890  0.76100  0.60030  1.0000 0.2583642613
H   H139      1.0  0.26100  0.90110  0.35030  1.0000 0.2583642613
H   H140      1.0  0.73900  0.09890  0.85030  1.0000 0.2583642613
H   H141      1.0  0.09890  0.73900  0.14970  1.0000 0.2583642613
H   H142      1.0  0.90110  0.26100  0.64970  1.0000 0.2583642613
H   H143      1.0  0.23900  0.40110  0.89970  1.0000 0.2583642613
H   H144      1.0  0.76100  0.59890  0.39970  1.0000 0.2583642613
C   C1        1.0  0.06940  0.19690  0.19070  1.0000 0.0693478586
C   C2        1.0  0.93060  0.80310  0.69070  1.0000 0.0693478586
C   C3        1.0  0.30310  0.56940  0.44070  1.0000 0.0693478586
C   C4        1.0  0.69690  0.43060  0.94070  1.0000 0.0693478586
C   C5        1.0  0.43060  0.69690  0.05930  1.0000 0.0693478586
C   C6        1.0  0.56940  0.30310  0.55930  1.0000 0.0693478586
C   C7        1.0  0.19690  0.06940  0.80930  1.0000 0.0693478586
C   C8        1.0  0.80310  0.93060  0.30930  1.0000 0.0693478586
C   C9        1.0  0.12670  0.26020  0.18120  1.0000 -0.2111552198
C   C10       1.0  0.87330  0.73980  0.68120  1.0000 -0.2111552198
C   C11       1.0  0.23980  0.62670  0.43120  1.0000 -0.2111552198
C   C12       1.0  0.76020  0.37330  0.93120  1.0000 -0.2111552198
C   C13       1.0  0.37330  0.76020  0.06880  1.0000 -0.2111552198
C   C14       1.0  0.62670  0.23980  0.56880  1.0000 -0.2111552198
C   C15       1.0  0.26020  0.12670  0.81880  1.0000 -0.2111552198
C   C16       1.0  0.73980  0.87330  0.31880  1.0000 -0.2111552198
C   C17       1.0  0.14220  0.31860  0.22830  1.0000 0.1093969431
C   C18       1.0  0.85780  0.68140  0.72830  1.0000 0.1093969431
C   C19       1.0  0.18140  0.64220  0.47830  1.0000 0.1093969431
C   C20       1.0  0.81860  0.35780  0.97830  1.0000 0.1093969431
C   C21       1.0  0.35780  0.81860  0.02170  1.0000 0.1093969431
C   C22       1.0  0.64220  0.18140  0.52170  1.0000 0.1093969431
C   C23       1.0  0.31860  0.14220  0.77170  1.0000 0.1093969431
C   C24       1.0  0.68140  0.85780  0.27170  1.0000 0.1093969431
C   C25       1.0  0.09460  0.30980  0.28000  1.0000 -0.1986533435
C   C26       1.0  0.90540  0.69020  0.78000  1.0000 -0.1986533435
C   C27       1.0  0.19020  0.59460  0.53000  1.0000 -0.1986533435
C   C28       1.0  0.80980  0.40540  0.03000  1.0000 -0.1932166026
C   C29       1.0  0.40540  0.80980  0.97000  1.0000 -0.1986533435
C   C30       1.0  0.59460  0.19020  0.47000  1.0000 -0.1986533435
C   C31       1.0  0.30980  0.09460  0.72000  1.0000 -0.1986533435
C   C32       1.0  0.69020  0.90540  0.22000  1.0000 -0.1986533435
C   C33       1.0  0.03710  0.24360  0.28640  1.0000 0.0610059651
C   C34       1.0  0.96290  0.75640  0.78640  1.0000 0.0610059651
C   C35       1.0  0.25640  0.53710  0.53640  1.0000 0.0610059651
C   C36       1.0  0.74360  0.46290  0.03640  1.0000 0.0610059651
C   C37       1.0  0.46290  0.74360  0.96360  1.0000 0.0610059651
C   C38       1.0  0.53710  0.25640  0.46360  1.0000 0.0610059651
C   C39       1.0  0.24360  0.03710  0.71360  1.0000 0.0610059651
C   C40       1.0  0.75640  0.96290  0.21360  1.0000 0.0610059651
C   C41       1.0  0.20810  0.38390  0.22130  1.0000 0.0693478586
C   C42       1.0  0.79190  0.61610  0.72130  1.0000 0.0693478586
C   C43       1.0  0.11610  0.70810  0.47130  1.0000 0.0693478586
C   C44       1.0  0.88390  0.29190  0.97130  1.0000 0.0693478586
C   C45       1.0  0.29190  0.88390  0.02870  1.0000 0.0693478586
C   C46       1.0  0.70810  0.11610  0.52870  1.0000 0.0693478586
C   C47       1.0  0.38390  0.20810  0.77870  1.0000 0.0693478586
C   C48       1.0  0.61610  0.79190  0.27870  1.0000 0.0693478586
C   C49       1.0  0.27620  0.37350  0.18090  1.0000 -0.1932166026
C   C50       1.0  0.72380  0.62650  0.68090  1.0000 -0.1932166026
C   C51       1.0  0.12650  0.77620  0.43090  1.0000 -0.1932166026
C   C52       1.0  0.87350  0.22380  0.93090  1.0000 -0.1932166026
C   C53       1.0  0.22380  0.87350  0.06910  1.0000 -0.1932166026
C   C54       1.0  0.77620  0.12650  0.56910  1.0000 -0.1932166026
C   C55       1.0  0.37350  0.27620  0.81910  1.0000 -0.1932166026
C   C56       1.0  0.62650  0.72380  0.31910  1.0000 -0.1932166026
C   C57       1.0  0.33920  0.43230  0.17550  1.0000 0.0321355771
C   C58       1.0  0.66080  0.56770  0.67550  1.0000 0.0321355771
C   C59       1.0  0.06770  0.83920  0.42550  1.0000 0.0321355771
C   C60       1.0  0.93230  0.16080  0.92550  1.0000 0.0321355771
C   C61       1.0  0.16080  0.93230  0.07450  1.0000 0.0321355771
C   C62       1.0  0.83920  0.06770  0.57450  1.0000 0.0321355771
C   C63       1.0  0.43230  0.33920  0.82450  1.0000 0.0321355771
C   C64       1.0  0.56770  0.66080  0.32450  1.0000 0.0321355771
C   C65       1.0  0.33630  0.50410  0.21230  1.0000 -0.1531431217
C   C66       1.0  0.66370  0.49590  0.71230  1.0000 -0.1531431217
C   C67       1.0  0.99590  0.83630  0.46230  1.0000 -0.1531431217
C   C68       1.0  0.00410  0.16370  0.96230  1.0000 -0.1531431217
C   C69       1.0  0.16370  0.00410  0.03770  1.0000 -0.1531431217
C   C70       1.0  0.83630  0.99590  0.53770  1.0000 -0.1531431217
C   C71       1.0  0.50410  0.33630  0.78770  1.0000 -0.1531431217
C   C72       1.0  0.49590  0.66370  0.28770  1.0000 -0.1531431217
C   C73       1.0  0.26900  0.51650  0.25140  1.0000 -0.1043607954
C   C74       1.0  0.73100  0.48350  0.75140  1.0000 -0.1043607954
C   C75       1.0  0.98350  0.76900  0.50140  1.0000 -0.1043607954
C   C76       1.0  0.01650  0.23100  0.00140  1.0000 -0.10513766
C   C77       1.0  0.23100  0.01650  0.99860  1.0000 -0.1043607954
C   C78       1.0  0.76900  0.98350  0.49860  1.0000 -0.1043607954
C   C79       1.0  0.51650  0.26900  0.74860  1.0000 -0.1043607954
C   C80       1.0  0.48350  0.73100  0.24860  1.0000 -0.1043607954
C   C81       1.0  0.20820  0.45650  0.25840  1.0000 -0.1564209468
C   C82       1.0  0.79180  0.54350  0.75840  1.0000 -0.1564209468
C   C83       1.0  0.04350  0.70820  0.50840  1.0000 -0.1564209468
C   C84       1.0  0.95650  0.29180  0.00840  1.0000 -0.1564209468
C   C85       1.0  0.29180  0.95650  0.99160  1.0000 -0.1564209468
C   C86       1.0  0.70820  0.04350  0.49160  1.0000 -0.1564209468
C   C87       1.0  0.45650  0.20820  0.74160  1.0000 -0.1564209468
C   C88       1.0  0.54350  0.79180  0.24160  1.0000 -0.1564209468
C   C89       1.0  0.40850  0.42510  0.13260  1.0000 0.1786097188
C   C90       1.0  0.59150  0.57490  0.63260  1.0000 0.1786097188
C   C91       1.0  0.07490  0.90850  0.38260  1.0000 0.1786097188
C   C92       1.0  0.92510  0.09150  0.88260  1.0000 0.1786097188
C   C93       1.0  0.09150  0.92510  0.11740  1.0000 0.1786097188
C   C94       1.0  0.90850  0.07490  0.61740  1.0000 0.1786097188
C   C95       1.0  0.42510  0.40850  0.86740  1.0000 0.1786097188
C   C96       1.0  0.57490  0.59150  0.36740  1.0000 0.1786097188
C   C97       1.0  0.50490  0.37270  0.06900  1.0000 0.1685751744
C   C98       1.0  0.49510  0.62730  0.56900  1.0000 0.1685751744
C   C99       1.0  0.12730  0.00490  0.31900  1.0000 0.1685751744
C   C100      1.0  0.87270  0.99510  0.81900  1.0000 0.1685751744
C   C101      1.0  0.99510  0.87270  0.18100  1.0000 0.1685751744
C   C102      1.0  0.00490  0.12730  0.68100  1.0000 0.1685751744
C   C103      1.0  0.37270  0.50490  0.93100  1.0000 0.1685751744
C   C104      1.0  0.62730  0.49510  0.43100  1.0000 0.1685751744
C   C105      1.0  0.55900  0.31050  0.03830  1.0000 0.0170383912
C   C106      1.0  0.44100  0.68950  0.53830  1.0000 0.0170383912
C   C107      1.0  0.18950  0.05900  0.28830  1.0000 0.0170383912
C   C108      1.0  0.81050  0.94100  0.78830  1.0000 0.0170383912
C   C109      1.0  0.94100  0.81050  0.21170  1.0000 0.0170383912
C   C110      1.0  0.05900  0.18950  0.71170  1.0000 0.0170383912
C   C111      1.0  0.31050  0.55900  0.96170  1.0000 0.0170383912
C   C112      1.0  0.68950  0.44100  0.46170  1.0000 0.0170383912
C   C113      1.0  0.54010  0.27820  0.98100  1.0000 -0.1564209468
C   C114      1.0  0.45990  0.72180  0.48100  1.0000 -0.1564209468
C   C115      1.0  0.22180  0.04010  0.23100  1.0000 -0.1564209468
C   C116      1.0  0.77820  0.95990  0.73100  1.0000 -0.1564209468
C   C117      1.0  0.95990  0.77820  0.26900  1.0000 -0.1564209468
C   C118      1.0  0.04010  0.22180  0.76900  1.0000 -0.1564209468
C   C119      1.0  0.27820  0.54010  0.01900  1.0000 -0.1564209468
C   C120      1.0  0.72180  0.45990  0.51900  1.0000 -0.1564209468
C   C121      1.0  0.59500  0.22010  0.95560  1.0000 -0.1043607954
C   C122      1.0  0.40500  0.77990  0.45560  1.0000 -0.10513766
C   C123      1.0  0.27990  0.09500  0.20560  1.0000 -0.10513766
C   C124      1.0  0.72010  0.90500  0.70560  1.0000 -0.10513766
C   C125      1.0  0.90500  0.72010  0.29440  1.0000 -0.10513766
C   C126      1.0  0.09500  0.27990  0.79440  1.0000 -0.10513766
C   C127      1.0  0.22010  0.59500  0.04440  1.0000 -0.10513766
C   C128      1.0  0.77990  0.40500  0.54440  1.0000 -0.1043607954
C   C129      1.0  0.66580  0.18960  0.98780  1.0000 -0.1687756486
C   C130      1.0  0.33420  0.81040  0.48780  1.0000 -0.1687756486
C   C131      1.0  0.31040  0.16580  0.23780  1.0000 -0.1687756486
C   C132      1.0  0.68960  0.83420  0.73780  1.0000 -0.1687756486
C   C133      1.0  0.83420  0.68960  0.26220  1.0000 -0.1687756486
C   C134      1.0  0.16580  0.31040  0.76220  1.0000 -0.1687756486
C   C135      1.0  0.18960  0.66580  0.01220  1.0000 -0.1687756486
C   C136      1.0  0.81040  0.33420  0.51220  1.0000 -0.1687756486
C   C137      1.0  0.68170  0.21950  0.04600  1.0000 0.0693478586
C   C138      1.0  0.31830  0.78050  0.54600  1.0000 0.0693478586
C   C139      1.0  0.28050  0.18170  0.29600  1.0000 0.0693478586
C   C140      1.0  0.71950  0.81830  0.79600  1.0000 0.0693478586
C   C141      1.0  0.81830  0.71950  0.20400  1.0000 0.0693478586
C   C142      1.0  0.18170  0.28050  0.70400  1.0000 0.0693478586
C   C143      1.0  0.21950  0.68170  0.95400  1.0000 0.0693478586
C   C144      1.0  0.78050  0.31830  0.45400  1.0000 0.0693478586
C   C145      1.0  0.62890  0.28190  0.07150  1.0000 -0.1986533435
C   C146      1.0  0.37110  0.71810  0.57150  1.0000 -0.1986533435
C   C147      1.0  0.21810  0.12890  0.32150  1.0000 -0.1986533435
C   C148      1.0  0.78190  0.87110  0.82150  1.0000 -0.1986533435
C   C149      1.0  0.87110  0.78190  0.17850  1.0000 -0.1986533435
C   C150      1.0  0.12890  0.21810  0.67850  1.0000 -0.1986533435
C   C151      1.0  0.28190  0.62890  0.92850  1.0000 -0.1986533435
C   C152      1.0  0.71810  0.37110  0.42850  1.0000 -0.1986533435
C   C153      1.0  0.75360  0.19010  0.08390  1.0000 0.1200456928
C   C154      1.0  0.24640  0.80990  0.58390  1.0000 0.1200456928
C   C155      1.0  0.30990  0.25360  0.33390  1.0000 0.1200456928
C   C156      1.0  0.69010  0.74640  0.83390  1.0000 0.1200456928
C   C157      1.0  0.74640  0.69010  0.16610  1.0000 0.1200456928
C   C158      1.0  0.25360  0.30990  0.66610  1.0000 0.1200456928
C   C159      1.0  0.19010  0.75360  0.91610  1.0000 0.1200456928
C   C160      1.0  0.80990  0.24640  0.41610  1.0000 0.1200456928
C   C161      1.0  0.78380  0.23280  0.13580  1.0000 -0.1986533435
C   C162      1.0  0.21620  0.76720  0.63580  1.0000 -0.1986533435
C   C163      1.0  0.26720  0.28380  0.38580  1.0000 -0.1986533435
C   C164      1.0  0.73280  0.71620  0.88580  1.0000 -0.1986533435
C   C165      1.0  0.71620  0.73280  0.11420  1.0000 -0.1986533435
C   C166      1.0  0.28380  0.26720  0.61420  1.0000 -0.1986533435
C   C167      1.0  0.23280  0.78380  0.86420  1.0000 -0.1986533435
C   C168      1.0  0.76720  0.21620  0.36420  1.0000 -0.1986533435
C   C169      1.0  0.84360  0.19970  0.17340  1.0000 0.0409584988
C   C170      1.0  0.15640  0.80030  0.67340  1.0000 0.0409584988
C   C171      1.0  0.30030  0.34360  0.42340  1.0000 0.0409584988
C   C172      1.0  0.69970  0.65640  0.92340  1.0000 0.0409584988
C   C173      1.0  0.65640  0.69970  0.07660  1.0000 0.0409584988
C   C174      1.0  0.34360  0.30030  0.57660  1.0000 0.0409584988
C   C175      1.0  0.19970  0.84360  0.82660  1.0000 0.0409584988
C   C176      1.0  0.80030  0.15640  0.32660  1.0000 0.0409584988
C   C177      1.0  0.85880  0.08650  0.11010  1.0000 0.0610059651
C   C178      1.0  0.14120  0.91350  0.61010  1.0000 0.0610059651
C   C179      1.0  0.41350  0.35880  0.36010  1.0000 0.0610059651
C   C180      1.0  0.58650  0.64120  0.86010  1.0000 0.0610059651
C   C181      1.0  0.64120  0.58650  0.13990  1.0000 0.0610059651
C   C182      1.0  0.35880  0.41350  0.63990  1.0000 0.0610059651
C   C183      1.0  0.08650  0.85880  0.88990  1.0000 0.0610059651
C   C184      1.0  0.91350  0.14120  0.38990  1.0000 0.0610059651
C   C185      1.0  0.79820  0.11510  0.06960  1.0000 -0.1986533435
C   C186      1.0  0.20180  0.88490  0.56960  1.0000 -0.1986533435
C   C187      1.0  0.38490  0.29820  0.31960  1.0000 -0.1986533435
C   C188      1.0  0.61510  0.70180  0.81960  1.0000 -0.1986533435
C   C189      1.0  0.70180  0.61510  0.18040  1.0000 -0.1986533435
C   C190      1.0  0.29820  0.38490  0.68040  1.0000 -0.1986533435
C   C191      1.0  0.11510  0.79820  0.93040  1.0000 -0.1986533435
C   C192      1.0  0.88490  0.20180  0.43040  1.0000 -0.1986533435
N   N1        1.0  0.02450  0.18670  0.24120  1.0000 -0.2324221589
N   N2        1.0  0.97550  0.81330  0.74120  1.0000 -0.2324221589
N   N3        1.0  0.31330  0.52450  0.49120  1.0000 -0.2324221589
N   N4        1.0  0.68670  0.47550  0.99120  1.0000 -0.2324221589
N   N5        1.0  0.47550  0.68670  0.00880  1.0000 -0.2324221589
N   N6        1.0  0.52450  0.31330  0.50880  1.0000 -0.2324221589
N   N7        1.0  0.18670  0.02450  0.75880  1.0000 -0.2324221589
N   N8        1.0  0.81330  0.97550  0.25880  1.0000 -0.2324221589
N   N9        1.0  0.50620  0.45570  0.06640  1.0000 -0.2238320921
N   N10       1.0  0.49380  0.54430  0.56640  1.0000 -0.2238320921
N   N11       1.0  0.04430  0.00620  0.31640  1.0000 -0.2238320921
N   N12       1.0  0.95570  0.99380  0.81640  1.0000 -0.2238320921
N   N13       1.0  0.99380  0.95570  0.18360  1.0000 -0.2238320921
N   N14       1.0  0.00620  0.04430  0.68360  1.0000 -0.2238320921
N   N15       1.0  0.45570  0.50620  0.93360  1.0000 -0.2238320921
N   N16       1.0  0.54430  0.49380  0.43360  1.0000 -0.2238320921
N   N17       1.0  0.44610  0.48780  0.10520  1.0000 -0.2599728394
N   N18       1.0  0.55390  0.51220  0.60520  1.0000 -0.2599728394
N   N19       1.0  0.01220  0.94610  0.35520  1.0000 -0.2599728394
N   N20       1.0  0.98780  0.05390  0.85520  1.0000 -0.2599728394
N   N21       1.0  0.05390  0.98780  0.14480  1.0000 -0.2599728394
N   N22       1.0  0.94610  0.01220  0.64480  1.0000 -0.2599728394
N   N23       1.0  0.48780  0.44610  0.89480  1.0000 -0.2599728394
N   N24       1.0  0.51220  0.55390  0.39480  1.0000 -0.2599728394
N   N25       1.0  0.44360  0.35150  0.11040  1.0000 0.0693478586
N   N26       1.0  0.55640  0.64850  0.61040  1.0000 0.0693478586
N   N27       1.0  0.14850  0.94360  0.36040  1.0000 0.0693478586
N   N28       1.0  0.85150  0.05640  0.86040  1.0000 0.0693478586
N   N29       1.0  0.05640  0.85150  0.13960  1.0000 0.0693478586
N   N30       1.0  0.94360  0.14850  0.63960  1.0000 0.0693478586
N   N31       1.0  0.35150  0.44360  0.88960  1.0000 0.0693478586
N   N32       1.0  0.64850  0.55640  0.38960  1.0000 0.0693478586
N   N33       1.0  0.42420  0.26910  0.13190  1.0000 -0.5014166523
N   N34       1.0  0.57580  0.73090  0.63190  1.0000 -0.5014166523
N   N35       1.0  0.23090  0.92420  0.38190  1.0000 -0.5014166523
N   N36       1.0  0.76910  0.07580  0.88190  1.0000 -0.5014166523
N   N37       1.0  0.07580  0.76910  0.11810  1.0000 -0.5014166523
N   N38       1.0  0.92420  0.23090  0.61810  1.0000 -0.5014166523
N   N39       1.0  0.26910  0.42420  0.86810  1.0000 -0.5014166523
N   N40       1.0  0.73090  0.57580  0.36810  1.0000 -0.5014166523
N   N41       1.0  0.87990  0.12510  0.16280  1.0000 -0.2368648805
N   N42       1.0  0.12010  0.87490  0.66280  1.0000 -0.2368648805
N   N43       1.0  0.37490  0.37990  0.41280  1.0000 -0.2368648805
N   N44       1.0  0.62510  0.62010  0.91280  1.0000 -0.2368648805
N   N45       1.0  0.62010  0.62510  0.08720  1.0000 -0.2368648805
N   N46       1.0  0.37990  0.37490  0.58720  1.0000 -0.2368648805
N   N47       1.0  0.12510  0.87990  0.83720  1.0000 -0.2368648805
N   N48       1.0  0.87490  0.12010  0.33720  1.0000 -0.2368648805
Cl  Cl1       1.0  0.12370  0.12370  0.50000  1.0000 0.9394480299
Cl  Cl2       1.0  0.87630  0.87630  0.00000  1.0000 0.9394480299
Cl  Cl3       1.0  0.62370  0.37630  0.25000  1.0000 0.9394480299
Cl  Cl4       1.0  0.37630  0.62370  0.75000  1.0000 0.9394480299
O   O1        1.0  0.06650  0.11930  0.53900  1.0000 -0.318311489
O   O2        1.0  0.11930  0.06650  0.46100  1.0000 -0.318311489
O   O3        1.0  0.19180  0.11430  0.52760  1.0000 -0.318311489
O   O4        1.0  0.11430  0.19180  0.47240  1.0000 -0.318311489
O   O5        1.0  0.93350  0.88070  0.03900  1.0000 -0.318311489
O   O6        1.0  0.88070  0.93350  0.96100  1.0000 -0.318311489
O   O7        1.0  0.80820  0.88570  0.02760  1.0000 -0.318311489
O   O8        1.0  0.88570  0.80820  0.97240  1.0000 -0.318311489
O   O9        1.0  0.61930  0.43350  0.28900  1.0000 -0.318311489
O   O10       1.0  0.56650  0.38070  0.21100  1.0000 -0.318311489
O   O11       1.0  0.61430  0.30820  0.27760  1.0000 -0.318311489
O   O12       1.0  0.69180  0.38570  0.22240  1.0000 -0.318311489
O   O13       1.0  0.38070  0.56650  0.78900  1.0000 -0.318311489
O   O14       1.0  0.43350  0.61930  0.71100  1.0000 -0.318311489
O   O15       1.0  0.38570  0.69180  0.77760  1.0000 -0.318311489
O   O16       1.0  0.30820  0.61430  0.72240  1.0000 -0.318311489
