# DDEC6 charges by PACMAN v1.1 (https://github.com/mtap-research/PACMAN-charge/)
data_2011[Zn][nan]3[ION]1
_chemical_formula_sum              "Zn8 H176 C228 N64 O40"
_cell_length_a       9.9055
_cell_length_b       27.766
_cell_length_c       28.33
_cell_angle_alpha    90
_cell_angle_beta     90
_cell_angle_gamma    90

_symmetry_space_group_name_H-M    "P 1"
_symmetry_Int_Tables_number       1

loop_
  _symmetry_equiv_pos_as_xyz
  'x, y, z'

loop_
  _atom_site_type_symbol
  _atom_site_label
  _atom_site_symmetry_multiplicity
  _atom_site_fract_x
  _atom_site_fract_y
  _atom_site_fract_z
  _atom_site_occupancy
  _atom_site_charge
Zn  Zn1       1.0  0.38402  0.48744  0.36850  1.0000 0.6636382028
Zn  Zn2       1.0  0.38402  0.51256  0.13150  1.0000 0.6636382028
Zn  Zn3       1.0  0.11598  0.01256  0.36850  1.0000 0.6636382028
Zn  Zn4       1.0  0.11598  0.98744  0.13150  1.0000 0.6636382028
Zn  Zn5       1.0  0.61598  0.51256  0.63150  1.0000 0.6636382028
Zn  Zn6       1.0  0.61598  0.48744  0.86850  1.0000 0.6636382028
Zn  Zn7       1.0  0.88402  0.98744  0.63150  1.0000 0.6636382028
Zn  Zn8       1.0  0.88402  0.01256  0.86850  1.0000 0.6636382028
H   H1        1.0  0.61630  0.55620  0.41390  1.0000 0.1314446274
H   H2        1.0  0.61630  0.44380  0.08610  1.0000 0.1314446274
H   H3        1.0  0.88370  0.94380  0.41390  1.0000 0.1314446274
H   H4        1.0  0.88370  0.05620  0.08610  1.0000 0.1314446274
H   H5        1.0  0.38370  0.44380  0.58610  1.0000 0.1314446274
H   H6        1.0  0.38370  0.55620  0.91390  1.0000 0.1314446274
H   H7        1.0  0.11630  0.05620  0.58610  1.0000 0.1314446274
H   H8        1.0  0.11630  0.94380  0.91390  1.0000 0.1314446274
H   H9        1.0  0.58950  0.60240  0.48320  1.0000 0.1314446274
H   H10       1.0  0.58950  0.39760  0.01680  1.0000 0.1314446274
H   H11       1.0  0.91050  0.89760  0.48320  1.0000 0.1314446274
H   H12       1.0  0.91050  0.10240  0.01680  1.0000 0.1314446274
H   H13       1.0  0.41050  0.39760  0.51680  1.0000 0.1314446274
H   H14       1.0  0.41050  0.60240  0.98320  1.0000 0.1314446274
H   H15       1.0  0.08950  0.10240  0.51680  1.0000 0.1314446274
H   H16       1.0  0.08950  0.89760  0.98320  1.0000 0.1314446274
H   H17       1.0  0.26350  0.52430  0.46360  1.0000 0.1107988007
H   H18       1.0  0.26350  0.47570  0.03640  1.0000 0.1107988007
H   H19       1.0  0.23650  0.97570  0.46360  1.0000 0.1107988007
H   H20       1.0  0.23650  0.02430  0.03640  1.0000 0.1107988007
H   H21       1.0  0.73650  0.47570  0.53640  1.0000 0.1107988007
H   H22       1.0  0.73650  0.52430  0.96360  1.0000 0.1107988007
H   H23       1.0  0.76350  0.02430  0.53640  1.0000 0.1107988007
H   H24       1.0  0.76350  0.97570  0.96360  1.0000 0.1107988007
H   H25       1.0  0.71810  0.92150  0.55810  1.0000 0.1207554733
H   H26       1.0  0.71810  0.07850  0.94190  1.0000 0.1207554733
H   H27       1.0  0.78190  0.57850  0.55810  1.0000 0.1207554733
H   H28       1.0  0.78190  0.42150  0.94190  1.0000 0.1207554733
H   H29       1.0  0.28190  0.07850  0.44190  1.0000 0.1207554733
H   H30       1.0  0.28190  0.92150  0.05810  1.0000 0.1207554733
H   H31       1.0  0.21810  0.42150  0.44190  1.0000 0.1207554733
H   H32       1.0  0.21810  0.57850  0.05810  1.0000 0.1207554733
H   H33       1.0  0.74810  0.83500  0.54930  1.0000 0.1314446274
H   H34       1.0  0.74810  0.16500  0.95070  1.0000 0.1314446274
H   H35       1.0  0.75190  0.66500  0.54930  1.0000 0.1314446274
H   H36       1.0  0.75190  0.33500  0.95070  1.0000 0.1314446274
H   H37       1.0  0.25190  0.16500  0.45070  1.0000 0.1314446274
H   H38       1.0  0.25190  0.83500  0.04930  1.0000 0.1314446274
H   H39       1.0  0.24810  0.33500  0.45070  1.0000 0.1314446274
H   H40       1.0  0.24810  0.66500  0.04930  1.0000 0.1314446274
H   H41       1.0  0.98230  0.88430  0.65390  1.0000 0.1107988007
H   H42       1.0  0.98230  0.11570  0.84610  1.0000 0.1107988007
H   H43       1.0  0.51770  0.61570  0.65390  1.0000 0.1107988007
H   H44       1.0  0.51770  0.38430  0.84610  1.0000 0.1107988007
H   H45       1.0  0.01770  0.11570  0.34610  1.0000 0.1107988007
H   H46       1.0  0.01770  0.88430  0.15390  1.0000 0.1107988007
H   H47       1.0  0.48230  0.38430  0.34610  1.0000 0.1107988007
H   H48       1.0  0.48230  0.61570  0.15390  1.0000 0.1107988007
H   H49       1.0  0.72180  0.54560  0.78050  1.0000 0.1207554733
H   H50       1.0  0.72180  0.45440  0.71950  1.0000 0.1207554733
H   H51       1.0  0.77820  0.95440  0.78050  1.0000 0.1207554733
H   H52       1.0  0.77820  0.04560  0.71950  1.0000 0.1207554733
H   H53       1.0  0.27820  0.45440  0.21950  1.0000 0.1207554733
H   H54       1.0  0.27820  0.54560  0.28050  1.0000 0.1207554733
H   H55       1.0  0.22180  0.04560  0.21950  1.0000 0.1207554733
H   H56       1.0  0.22180  0.95440  0.28050  1.0000 0.1207554733
H   H57       1.0  0.93440  0.50070  0.88840  1.0000 0.1207554733
H   H58       1.0  0.93440  0.49930  0.61160  1.0000 0.1207554733
H   H59       1.0  0.56560  0.99930  0.88840  1.0000 0.1207554733
H   H60       1.0  0.56560  0.00070  0.61160  1.0000 0.1207554733
H   H61       1.0  0.06560  0.49930  0.11160  1.0000 0.1207554733
H   H62       1.0  0.06560  0.50070  0.38840  1.0000 0.1207554733
H   H63       1.0  0.43440  0.00070  0.11160  1.0000 0.1207554733
H   H64       1.0  0.43440  0.99930  0.38840  1.0000 0.1207554733
H   H65       1.0  0.09070  0.54400  0.83610  1.0000 0.1314446274
H   H66       1.0  0.09070  0.45600  0.66390  1.0000 0.1314446274
H   H67       1.0  0.40930  0.95600  0.83610  1.0000 0.1314446274
H   H68       1.0  0.40930  0.04400  0.66390  1.0000 0.1314446274
H   H69       1.0  0.90930  0.45600  0.16390  1.0000 0.1314446274
H   H70       1.0  0.90930  0.54400  0.33610  1.0000 0.1314446274
H   H71       1.0  0.59070  0.04400  0.16390  1.0000 0.1314446274
H   H72       1.0  0.59070  0.95600  0.33610  1.0000 0.1314446274
H   H73       1.0  0.39280  0.65970  0.51450  1.0000 0.1314446274
H   H74       1.0  0.39280  0.34030  0.98550  1.0000 0.1314446274
H   H75       1.0  0.10720  0.84030  0.51450  1.0000 0.1314446274
H   H76       1.0  0.10720  0.15970  0.98550  1.0000 0.1314446274
H   H77       1.0  0.60720  0.34030  0.48550  1.0000 0.1314446274
H   H78       1.0  0.60720  0.65970  0.01450  1.0000 0.1314446274
H   H79       1.0  0.89280  0.15970  0.48550  1.0000 0.1314446274
H   H80       1.0  0.89280  0.84030  0.01450  1.0000 0.1314446274
H   H81       1.0  0.27310  0.69600  0.57520  1.0000 0.1207554733
H   H82       1.0  0.27310  0.30400  0.92480  1.0000 0.1207554733
H   H83       1.0  0.22690  0.80400  0.57520  1.0000 0.1207554733
H   H84       1.0  0.22690  0.19600  0.92480  1.0000 0.1207554733
H   H85       1.0  0.72690  0.30400  0.42480  1.0000 0.1207554733
H   H86       1.0  0.72690  0.69600  0.07520  1.0000 0.1207554733
H   H87       1.0  0.77310  0.19600  0.42480  1.0000 0.1207554733
H   H88       1.0  0.77310  0.80400  0.07520  1.0000 0.1207554733
H   H89       1.0  0.13360  0.56670  0.61590  1.0000 0.1207554733
H   H90       1.0  0.13360  0.43330  0.88410  1.0000 0.1207554733
H   H91       1.0  0.36640  0.93330  0.61590  1.0000 0.1207554733
H   H92       1.0  0.36640  0.06670  0.88410  1.0000 0.1207554733
H   H93       1.0  0.86640  0.43330  0.38410  1.0000 0.1207554733
H   H94       1.0  0.86640  0.56670  0.11590  1.0000 0.1207554733
H   H95       1.0  0.63360  0.06670  0.38410  1.0000 0.1207554733
H   H96       1.0  0.63360  0.93330  0.11590  1.0000 0.1207554733
H   H97       1.0  0.25330  0.53030  0.55520  1.0000 0.1207554733
H   H98       1.0  0.25330  0.46970  0.94480  1.0000 0.1207554733
H   H99       1.0  0.24670  0.96970  0.55520  1.0000 0.1207554733
H   H100      1.0  0.24670  0.03030  0.94480  1.0000 0.1207554733
H   H101      1.0  0.74670  0.46970  0.44480  1.0000 0.1207554733
H   H102      1.0  0.74670  0.53030  0.05520  1.0000 0.1207554733
H   H103      1.0  0.75330  0.03030  0.44480  1.0000 0.1207554733
H   H104      1.0  0.75330  0.96970  0.05520  1.0000 0.1207554733
H   H105      1.0  0.90270  0.77010  0.54880  1.0000 0.1314446274
H   H106      1.0  0.90270  0.22990  0.95120  1.0000 0.1314446274
H   H107      1.0  0.59730  0.72990  0.54880  1.0000 0.1314446274
H   H108      1.0  0.59730  0.27010  0.95120  1.0000 0.1314446274
H   H109      1.0  0.09730  0.22990  0.45120  1.0000 0.1314446274
H   H110      1.0  0.09730  0.77010  0.04880  1.0000 0.1314446274
H   H111      1.0  0.40270  0.27010  0.45120  1.0000 0.1314446274
H   H112      1.0  0.40270  0.72990  0.04880  1.0000 0.1314446274
H   H113      1.0  0.00640  0.69540  0.55940  1.0000 0.1314446274
H   H114      1.0  0.00640  0.30460  0.94060  1.0000 0.1314446274
H   H115      1.0  0.49360  0.80460  0.55940  1.0000 0.1314446274
H   H116      1.0  0.49360  0.19540  0.94060  1.0000 0.1314446274
H   H117      1.0  0.99360  0.30460  0.44060  1.0000 0.1314446274
H   H118      1.0  0.99360  0.69540  0.05940  1.0000 0.1314446274
H   H119      1.0  0.50640  0.19540  0.44060  1.0000 0.1314446274
H   H120      1.0  0.50640  0.80460  0.05940  1.0000 0.1314446274
H   H121      1.0  0.07300  0.72760  0.69520  1.0000 0.1314446274
H   H122      1.0  0.07300  0.27240  0.80480  1.0000 0.1314446274
H   H123      1.0  0.42700  0.77240  0.69520  1.0000 0.1314446274
H   H124      1.0  0.42700  0.22760  0.80480  1.0000 0.1314446274
H   H125      1.0  0.92700  0.27240  0.30480  1.0000 0.1314446274
H   H126      1.0  0.92700  0.72760  0.19520  1.0000 0.1314446274
H   H127      1.0  0.57300  0.22760  0.30480  1.0000 0.1314446274
H   H128      1.0  0.57300  0.77240  0.19520  1.0000 0.1314446274
H   H129      1.0  0.99210  0.80510  0.68220  1.0000 0.1207554733
H   H130      1.0  0.99210  0.19490  0.81780  1.0000 0.1207554733
H   H131      1.0  0.50790  0.69490  0.68220  1.0000 0.1207554733
H   H132      1.0  0.50790  0.30510  0.81780  1.0000 0.1207554733
H   H133      1.0  0.00790  0.19490  0.31780  1.0000 0.1207554733
H   H134      1.0  0.00790  0.80510  0.18220  1.0000 0.1207554733
H   H135      1.0  0.49210  0.30510  0.31780  1.0000 0.1207554733
H   H136      1.0  0.49210  0.69490  0.18220  1.0000 0.1207554733
H   H137      1.0  0.78590  0.59570  0.72600  1.0000 0.1314446274
H   H138      1.0  0.78590  0.40430  0.77400  1.0000 0.1314446274
H   H139      1.0  0.71410  0.90430  0.72600  1.0000 0.1314446274
H   H140      1.0  0.71410  0.09570  0.77400  1.0000 0.1314446274
H   H141      1.0  0.21410  0.40430  0.27400  1.0000 0.1314446274
H   H142      1.0  0.21410  0.59570  0.22600  1.0000 0.1314446274
H   H143      1.0  0.28590  0.09570  0.27400  1.0000 0.1314446274
H   H144      1.0  0.28590  0.90430  0.22600  1.0000 0.1314446274
H   H145      1.0  0.87240  0.63610  0.66130  1.0000 0.1207554733
H   H146      1.0  0.87240  0.36390  0.83870  1.0000 0.1207554733
H   H147      1.0  0.62760  0.86390  0.66130  1.0000 0.1207554733
H   H148      1.0  0.62760  0.13610  0.83870  1.0000 0.1207554733
H   H149      1.0  0.12760  0.36390  0.33870  1.0000 0.1207554733
H   H150      1.0  0.12760  0.63610  0.16130  1.0000 0.1207554733
H   H151      1.0  0.37240  0.13610  0.33870  1.0000 0.1207554733
H   H152      1.0  0.37240  0.86390  0.16130  1.0000 0.1207554733
H   H153      1.0  0.23640  0.61360  0.70040  1.0000 0.1314446274
H   H154      1.0  0.23640  0.38640  0.79960  1.0000 0.1314446274
H   H155      1.0  0.26360  0.88640  0.70040  1.0000 0.1314446274
H   H156      1.0  0.26360  0.11360  0.79960  1.0000 0.1314446274
H   H157      1.0  0.76360  0.38640  0.29960  1.0000 0.1314446274
H   H158      1.0  0.76360  0.61360  0.20040  1.0000 0.1314446274
H   H159      1.0  0.73640  0.11360  0.29960  1.0000 0.1314446274
H   H160      1.0  0.73640  0.88640  0.20040  1.0000 0.1314446274
H   H161      1.0  0.16840  0.58160  0.76990  1.0000 0.1207554733
H   H162      1.0  0.16840  0.41840  0.73010  1.0000 0.1207554733
H   H163      1.0  0.33160  0.91840  0.76990  1.0000 0.1207554733
H   H164      1.0  0.33160  0.08160  0.73010  1.0000 0.1207554733
H   H165      1.0  0.83160  0.41840  0.23010  1.0000 0.1207554733
H   H166      1.0  0.83160  0.58160  0.26990  1.0000 0.1207554733
H   H167      1.0  0.66840  0.08160  0.23010  1.0000 0.1207554733
H   H168      1.0  0.66840  0.91840  0.26990  1.0000 0.1207554733
H   H169      1.0  0.67870  0.52710  0.25830  1.0000 0.1509138181
H   H170      1.0  0.67870  0.47290  0.24170  1.0000 0.1509138181
H   H171      1.0  0.82130  0.97290  0.25830  1.0000 0.1509138181
H   H172      1.0  0.82130  0.02710  0.24170  1.0000 0.1509138181
H   H173      1.0  0.32130  0.47290  0.74170  1.0000 0.1509138181
H   H174      1.0  0.32130  0.52710  0.75830  1.0000 0.1509138181
H   H175      1.0  0.17870  0.02710  0.74170  1.0000 0.1509138181
H   H176      1.0  0.17870  0.97290  0.75830  1.0000 0.1509138181
C   C1        1.0  0.54120  0.55505  0.43354  1.0000 -0.051137881
C   C2        1.0  0.54120  0.44495  0.06646  1.0000 -0.051137881
C   C3        1.0  0.95880  0.94495  0.43354  1.0000 -0.051137881
C   C4        1.0  0.95880  0.05505  0.06646  1.0000 -0.051137881
C   C5        1.0  0.45880  0.44495  0.56646  1.0000 -0.051137881
C   C6        1.0  0.45880  0.55505  0.93354  1.0000 -0.051137881
C   C7        1.0  0.04120  0.05505  0.56646  1.0000 -0.051137881
C   C8        1.0  0.04120  0.94495  0.93354  1.0000 -0.051137881
C   C9        1.0  0.52710  0.58070  0.47086  1.0000 -0.1091326659
C   C10       1.0  0.52710  0.41930  0.02914  1.0000 -0.1091326659
C   C11       1.0  0.97290  0.91930  0.47086  1.0000 -0.1091326659
C   C12       1.0  0.97290  0.08070  0.02914  1.0000 -0.1091326659
C   C13       1.0  0.47290  0.41930  0.52914  1.0000 -0.1091326659
C   C14       1.0  0.47290  0.58070  0.97086  1.0000 -0.1091326659
C   C15       1.0  0.02710  0.08070  0.52914  1.0000 -0.1091326659
C   C16       1.0  0.02710  0.91930  0.97086  1.0000 -0.1091326659
C   C17       1.0  0.34930  0.53744  0.46028  1.0000 0.1107988007
C   C18       1.0  0.34930  0.46256  0.03972  1.0000 0.1107988007
C   C19       1.0  0.15070  0.96256  0.46028  1.0000 0.1107988007
C   C20       1.0  0.15070  0.03744  0.03972  1.0000 0.1107988007
C   C21       1.0  0.65070  0.46256  0.53972  1.0000 0.1107988007
C   C22       1.0  0.65070  0.53744  0.96028  1.0000 0.1107988007
C   C23       1.0  0.84930  0.03744  0.53972  1.0000 0.1107988007
C   C24       1.0  0.84930  0.96256  0.96028  1.0000 0.1107988007
C   C25       1.0  0.77490  0.90249  0.57641  1.0000 -0.051137881
C   C26       1.0  0.77490  0.09751  0.92359  1.0000 -0.051137881
C   C27       1.0  0.72510  0.59751  0.57641  1.0000 -0.051137881
C   C28       1.0  0.72510  0.40249  0.92359  1.0000 -0.051137881
C   C29       1.0  0.22510  0.09751  0.42359  1.0000 -0.051137881
C   C30       1.0  0.22510  0.90249  0.07641  1.0000 -0.051137881
C   C31       1.0  0.27490  0.40249  0.42359  1.0000 -0.051137881
C   C32       1.0  0.27490  0.59751  0.07641  1.0000 -0.051137881
C   C33       1.0  0.79020  0.85471  0.57141  1.0000 -0.104470478
C   C34       1.0  0.79020  0.14529  0.92859  1.0000 -0.104470478
C   C35       1.0  0.70980  0.64529  0.57141  1.0000 -0.104470478
C   C36       1.0  0.70980  0.35471  0.92859  1.0000 -0.104470478
C   C37       1.0  0.20980  0.14529  0.42859  1.0000 -0.104470478
C   C38       1.0  0.20980  0.85471  0.07141  1.0000 -0.104470478
C   C39       1.0  0.29020  0.35471  0.42859  1.0000 -0.104470478
C   C40       1.0  0.29020  0.64529  0.07141  1.0000 -0.104470478
C   C41       1.0  0.91980  0.88248  0.62947  1.0000 0.0780380111
C   C42       1.0  0.91980  0.11752  0.87053  1.0000 0.0780380111
C   C43       1.0  0.58020  0.61752  0.62947  1.0000 0.0780380111
C   C44       1.0  0.58020  0.38248  0.87053  1.0000 0.0780380111
C   C45       1.0  0.08020  0.11752  0.37053  1.0000 0.0780380111
C   C46       1.0  0.08020  0.88248  0.12947  1.0000 0.0780380111
C   C47       1.0  0.41980  0.38248  0.37053  1.0000 0.0780380111
C   C48       1.0  0.41980  0.61752  0.12947  1.0000 0.0780380111
C   C49       1.0  0.79390  0.53952  0.80071  1.0000 0.0653406962
C   C50       1.0  0.79390  0.46048  0.69929  1.0000 0.0641680146
C   C51       1.0  0.70610  0.96048  0.80071  1.0000 0.0653406962
C   C52       1.0  0.70610  0.03952  0.69929  1.0000 0.0641680146
C   C53       1.0  0.20610  0.46048  0.19929  1.0000 0.0641680146
C   C54       1.0  0.20610  0.53952  0.30071  1.0000 0.0641680146
C   C55       1.0  0.29390  0.03952  0.19929  1.0000 0.0641680146
C   C56       1.0  0.29390  0.96048  0.30071  1.0000 0.0641680146
C   C57       1.0  0.91050  0.51499  0.85989  1.0000 -0.0293571797
C   C58       1.0  0.91050  0.48501  0.64011  1.0000 -0.0293571797
C   C59       1.0  0.58950  0.98501  0.85989  1.0000 -0.0293571797
C   C60       1.0  0.58950  0.01499  0.64011  1.0000 -0.0293571797
C   C61       1.0  0.08950  0.48501  0.14011  1.0000 -0.0293571797
C   C62       1.0  0.08950  0.51499  0.35989  1.0000 -0.0293571797
C   C63       1.0  0.41050  0.01499  0.14011  1.0000 -0.0293571797
C   C64       1.0  0.41050  0.98501  0.35989  1.0000 -0.0293571797
C   C65       1.0  0.99890  0.53892  0.83124  1.0000 -0.104470478
C   C66       1.0  0.99890  0.46108  0.66876  1.0000 -0.104470478
C   C67       1.0  0.50110  0.96108  0.83124  1.0000 -0.104470478
C   C68       1.0  0.50110  0.03892  0.66876  1.0000 -0.104470478
C   C69       1.0  0.00110  0.46108  0.16876  1.0000 -0.104470478
C   C70       1.0  0.00110  0.53892  0.33124  1.0000 -0.104470478
C   C71       1.0  0.49890  0.03892  0.16876  1.0000 -0.104470478
C   C72       1.0  0.49890  0.96108  0.33124  1.0000 -0.104470478
C   C73       1.0  0.33492  0.59142  0.52884  1.0000 0.158231093
C   C74       1.0  0.33492  0.40858  0.97116  1.0000 0.158231093
C   C75       1.0  0.16508  0.90858  0.52884  1.0000 0.158231093
C   C76       1.0  0.16508  0.09142  0.97116  1.0000 0.158231093
C   C77       1.0  0.66508  0.40858  0.47116  1.0000 0.158231093
C   C78       1.0  0.66508  0.59142  0.02884  1.0000 0.158231093
C   C79       1.0  0.83492  0.09142  0.47116  1.0000 0.158231093
C   C80       1.0  0.83492  0.90858  0.02884  1.0000 0.158231093
C   C81       1.0  0.34086  0.64106  0.53483  1.0000 -0.1505818801
C   C82       1.0  0.34086  0.35894  0.96517  1.0000 -0.1505818801
C   C83       1.0  0.15914  0.85894  0.53483  1.0000 -0.1505818801
C   C84       1.0  0.15914  0.14106  0.96517  1.0000 -0.1505818801
C   C85       1.0  0.65914  0.35894  0.46517  1.0000 -0.1505818801
C   C86       1.0  0.65914  0.64106  0.03483  1.0000 -0.1505818801
C   C87       1.0  0.84086  0.14106  0.46517  1.0000 -0.1505818801
C   C88       1.0  0.84086  0.85894  0.03483  1.0000 -0.1505818801
C   C89       1.0  0.26915  0.66283  0.57121  1.0000 -0.171113554
C   C90       1.0  0.26915  0.33717  0.92879  1.0000 -0.171113554
C   C91       1.0  0.23085  0.83717  0.57121  1.0000 -0.171113554
C   C92       1.0  0.23085  0.16283  0.92879  1.0000 -0.171113554
C   C93       1.0  0.73085  0.33717  0.42879  1.0000 -0.171113554
C   C94       1.0  0.73085  0.66283  0.07121  1.0000 -0.171113554
C   C95       1.0  0.76915  0.16283  0.42879  1.0000 -0.171113554
C   C96       1.0  0.76915  0.83717  0.07121  1.0000 -0.171113554
C   C97       1.0  0.19148  0.63495  0.60160  1.0000 0.1727179105
C   C98       1.0  0.19148  0.36505  0.89840  1.0000 0.1727179105
C   C99       1.0  0.30852  0.86505  0.60160  1.0000 0.1727179105
C   C100      1.0  0.30852  0.13495  0.89840  1.0000 0.1727179105
C   C101      1.0  0.80852  0.36505  0.39840  1.0000 0.1727179105
C   C102      1.0  0.80852  0.63495  0.10160  1.0000 0.1727179105
C   C103      1.0  0.69148  0.13495  0.39840  1.0000 0.1727179105
C   C104      1.0  0.69148  0.86505  0.10160  1.0000 0.1727179105
C   C105      1.0  0.18554  0.58531  0.59561  1.0000 -0.1802572157
C   C106      1.0  0.18554  0.41469  0.90439  1.0000 -0.1802572157
C   C107      1.0  0.31446  0.91469  0.59561  1.0000 -0.1802572157
C   C108      1.0  0.31446  0.08531  0.90439  1.0000 -0.1802572157
C   C109      1.0  0.81446  0.41469  0.40439  1.0000 -0.1802572157
C   C110      1.0  0.81446  0.58531  0.09561  1.0000 -0.1802572157
C   C111      1.0  0.68554  0.08531  0.40439  1.0000 -0.1802572157
C   C112      1.0  0.68554  0.91469  0.09561  1.0000 -0.1802572157
C   C113      1.0  0.25726  0.56354  0.55923  1.0000 -0.1802572157
C   C114      1.0  0.25726  0.43646  0.94077  1.0000 -0.1802572157
C   C115      1.0  0.24274  0.93646  0.55923  1.0000 -0.1802572157
C   C116      1.0  0.24274  0.06354  0.94077  1.0000 -0.1802572157
C   C117      1.0  0.74274  0.43646  0.44077  1.0000 -0.1802572157
C   C118      1.0  0.74274  0.56354  0.05923  1.0000 -0.1802572157
C   C119      1.0  0.75726  0.06354  0.44077  1.0000 -0.1802572157
C   C120      1.0  0.75726  0.93646  0.05923  1.0000 -0.1802572157
C   C121      1.0  0.93520  0.79315  0.61370  1.0000 0.1430798766
C   C122      1.0  0.93520  0.20685  0.88630  1.0000 0.1430798766
C   C123      1.0  0.56480  0.70685  0.61370  1.0000 0.1430798766
C   C124      1.0  0.56480  0.29315  0.88630  1.0000 0.1430798766
C   C125      1.0  0.06480  0.20685  0.38630  1.0000 0.1430798766
C   C126      1.0  0.06480  0.79315  0.11370  1.0000 0.1430798766
C   C127      1.0  0.43520  0.29315  0.38630  1.0000 0.1430798766
C   C128      1.0  0.43520  0.70685  0.11370  1.0000 0.1430798766
C   C129      1.0  0.93970  0.76203  0.57795  1.0000 -0.1505818801
C   C130      1.0  0.93970  0.23797  0.92205  1.0000 -0.1505818801
C   C131      1.0  0.56030  0.73797  0.57795  1.0000 -0.1505818801
C   C132      1.0  0.56030  0.26203  0.92205  1.0000 -0.1505818801
C   C133      1.0  0.06030  0.23797  0.42205  1.0000 -0.1505818801
C   C134      1.0  0.06030  0.76203  0.07795  1.0000 -0.1505818801
C   C135      1.0  0.43970  0.26203  0.42205  1.0000 -0.1505818801
C   C136      1.0  0.43970  0.73797  0.07795  1.0000 -0.1505818801
C   C137      1.0  0.00090  0.71685  0.58453  1.0000 -0.1802572157
C   C138      1.0  0.00090  0.28315  0.91547  1.0000 -0.1802572157
C   C139      1.0  0.49910  0.78315  0.58453  1.0000 -0.1802572157
C   C140      1.0  0.49910  0.21685  0.91547  1.0000 -0.171113554
C   C141      1.0  0.99910  0.28315  0.41547  1.0000 -0.1802572157
C   C142      1.0  0.99910  0.71685  0.08453  1.0000 -0.171113554
C   C143      1.0  0.50090  0.21685  0.41547  1.0000 -0.1802572157
C   C144      1.0  0.50090  0.78315  0.08453  1.0000 -0.1802572157
C   C145      1.0  0.05280  0.70400  0.62796  1.0000 0.1727179105
C   C146      1.0  0.05280  0.29600  0.87204  1.0000 0.1727179105
C   C147      1.0  0.44720  0.79600  0.62796  1.0000 0.1727179105
C   C148      1.0  0.44720  0.20400  0.87204  1.0000 0.1727179105
C   C149      1.0  0.94720  0.29600  0.37204  1.0000 0.1727179105
C   C150      1.0  0.94720  0.70400  0.12796  1.0000 0.1727179105
C   C151      1.0  0.55280  0.20400  0.37204  1.0000 0.1727179105
C   C152      1.0  0.55280  0.79600  0.12796  1.0000 0.1727179105
C   C153      1.0  0.04350  0.73659  0.66535  1.0000 -0.171113554
C   C154      1.0  0.04350  0.26341  0.83465  1.0000 -0.171113554
C   C155      1.0  0.45650  0.76341  0.66535  1.0000 -0.171113554
C   C156      1.0  0.45650  0.23659  0.83465  1.0000 -0.171113554
C   C157      1.0  0.95650  0.26341  0.33465  1.0000 -0.171113554
C   C158      1.0  0.95650  0.73659  0.16535  1.0000 -0.171113554
C   C159      1.0  0.54350  0.23659  0.33465  1.0000 -0.171113554
C   C160      1.0  0.54350  0.76341  0.16535  1.0000 -0.171113554
C   C161      1.0  0.99080  0.78227  0.65818  1.0000 -0.1802572157
C   C162      1.0  0.99080  0.21773  0.84182  1.0000 -0.1802572157
C   C163      1.0  0.50920  0.71773  0.65818  1.0000 -0.1802572157
C   C164      1.0  0.50920  0.28227  0.84182  1.0000 -0.1802572157
C   C165      1.0  0.00920  0.21773  0.34182  1.0000 -0.1802572157
C   C166      1.0  0.00920  0.78227  0.15818  1.0000 -0.1802572157
C   C167      1.0  0.49080  0.28227  0.34182  1.0000 -0.1802572157
C   C168      1.0  0.49080  0.71773  0.15818  1.0000 -0.1802572157
C   C169      1.0  0.96710  0.58057  0.75286  1.0000 0.1430798766
C   C170      1.0  0.96710  0.41943  0.74714  1.0000 0.1430798766
C   C171      1.0  0.53290  0.91943  0.75286  1.0000 0.1430798766
C   C172      1.0  0.53290  0.08057  0.74714  1.0000 0.1430798766
C   C173      1.0  0.03290  0.41943  0.24714  1.0000 0.1430798766
C   C174      1.0  0.03290  0.58057  0.25286  1.0000 0.1430798766
C   C175      1.0  0.46710  0.08057  0.24714  1.0000 0.1430798766
C   C176      1.0  0.46710  0.91943  0.25286  1.0000 0.1430798766
C   C177      1.0  0.87860  0.59918  0.72195  1.0000 -0.1616484836
C   C178      1.0  0.87860  0.40082  0.77805  1.0000 -0.1616484836
C   C179      1.0  0.62140  0.90082  0.72195  1.0000 -0.1616484836
C   C180      1.0  0.62140  0.09918  0.77805  1.0000 -0.1616484836
C   C181      1.0  0.12140  0.40082  0.27805  1.0000 -0.1616484836
C   C182      1.0  0.12140  0.59918  0.22195  1.0000 -0.1616484836
C   C183      1.0  0.37860  0.09918  0.27805  1.0000 -0.1616484836
C   C184      1.0  0.37860  0.90082  0.22195  1.0000 -0.1616484836
C   C185      1.0  0.93260  0.62401  0.68349  1.0000 -0.1916368526
C   C186      1.0  0.93260  0.37599  0.81651  1.0000 -0.1916368526
C   C187      1.0  0.56740  0.87599  0.68349  1.0000 -0.1916368526
C   C188      1.0  0.56740  0.12401  0.81651  1.0000 -0.1916368526
C   C189      1.0  0.06740  0.37599  0.31651  1.0000 -0.1916368526
C   C190      1.0  0.06740  0.62401  0.18349  1.0000 -0.1916368526
C   C191      1.0  0.43260  0.12401  0.31651  1.0000 -0.1916368526
C   C192      1.0  0.43260  0.87599  0.18349  1.0000 -0.1916368526
C   C193      1.0  0.06230  0.63165  0.67622  1.0000 0.1430798766
C   C194      1.0  0.06230  0.36835  0.82378  1.0000 0.1430798766
C   C195      1.0  0.43770  0.86835  0.67622  1.0000 0.1430798766
C   C196      1.0  0.43770  0.13165  0.82378  1.0000 0.1430798766
C   C197      1.0  0.93770  0.36835  0.32378  1.0000 0.1430798766
C   C198      1.0  0.93770  0.63165  0.17622  1.0000 0.1430798766
C   C199      1.0  0.56230  0.13165  0.32378  1.0000 0.1430798766
C   C200      1.0  0.56230  0.86835  0.17622  1.0000 0.1430798766
C   C201      1.0  0.14440  0.61218  0.70681  1.0000 -0.171113554
C   C202      1.0  0.14440  0.38782  0.79319  1.0000 -0.171113554
C   C203      1.0  0.35560  0.88782  0.70681  1.0000 -0.171113554
C   C204      1.0  0.35560  0.11218  0.79319  1.0000 -0.171113554
C   C205      1.0  0.85560  0.38782  0.29319  1.0000 -0.171113554
C   C206      1.0  0.85560  0.61218  0.20681  1.0000 -0.171113554
C   C207      1.0  0.64440  0.11218  0.29319  1.0000 -0.171113554
C   C208      1.0  0.64440  0.88782  0.20681  1.0000 -0.171113554
C   C209      1.0  0.10580  0.59017  0.74693  1.0000 -0.171113554
C   C210      1.0  0.10580  0.40983  0.75307  1.0000 -0.171113554
C   C211      1.0  0.39420  0.90983  0.74693  1.0000 -0.171113554
C   C212      1.0  0.39420  0.09017  0.75307  1.0000 -0.171113554
C   C213      1.0  0.89420  0.40983  0.25307  1.0000 -0.171113554
C   C214      1.0  0.89420  0.59017  0.24693  1.0000 -0.171113554
C   C215      1.0  0.60580  0.09017  0.25307  1.0000 -0.171113554
C   C216      1.0  0.60580  0.90983  0.24693  1.0000 -0.171113554
C   C217      1.0  0.52940  0.48706  0.29047  1.0000 0.5731482192
C   C218      1.0  0.52940  0.51294  0.20953  1.0000 0.5731482192
C   C219      1.0  0.97060  0.01294  0.29047  1.0000 0.5731482192
C   C220      1.0  0.97060  0.98706  0.20953  1.0000 0.5731482192
C   C221      1.0  0.47060  0.51294  0.70953  1.0000 0.5731482192
C   C222      1.0  0.47060  0.48706  0.79047  1.0000 0.5731482192
C   C223      1.0  0.02940  0.98706  0.70953  1.0000 0.5731482192
C   C224      1.0  0.02940  0.01294  0.79047  1.0000 0.5731482192
C   C225      1.0  0.62170  0.50000  0.25000  1.0000 -0.4903613791
C   C226      1.0  0.87830  0.00000  0.25000  1.0000 -0.4903613791
C   C227      1.0  0.37830  0.50000  0.75000  1.0000 -0.4903613791
C   C228      1.0  0.12170  0.00000  0.75000  1.0000 -0.4903613791
N   N1        1.0  0.43110  0.52565  0.42626  1.0000 -0.2810038964
N   N2        1.0  0.43110  0.47435  0.07374  1.0000 -0.2810038964
N   N3        1.0  0.06890  0.97435  0.42626  1.0000 -0.2810038964
N   N4        1.0  0.06890  0.02565  0.07374  1.0000 -0.2810038964
N   N5        1.0  0.56890  0.47435  0.57374  1.0000 -0.2810038964
N   N6        1.0  0.56890  0.52565  0.92626  1.0000 -0.2810038964
N   N7        1.0  0.93110  0.02565  0.57374  1.0000 -0.2810038964
N   N8        1.0  0.93110  0.97435  0.92626  1.0000 -0.2810038964
N   N9        1.0  0.39920  0.56980  0.48962  1.0000 0.0063319588
N   N10       1.0  0.39920  0.43020  0.01038  1.0000 0.0063319588
N   N11       1.0  0.10080  0.93020  0.48962  1.0000 0.0063319588
N   N12       1.0  0.10080  0.06980  0.01038  1.0000 0.0063319588
N   N13       1.0  0.60080  0.43020  0.51038  1.0000 0.0063319588
N   N14       1.0  0.60080  0.56980  0.98962  1.0000 0.0063319588
N   N15       1.0  0.89920  0.06980  0.51038  1.0000 0.0063319588
N   N16       1.0  0.89920  0.93020  0.98962  1.0000 0.0063319588
N   N17       1.0  0.11201  0.65863  0.63695  1.0000 -0.1916368526
N   N18       1.0  0.11201  0.34137  0.86305  1.0000 -0.1916368526
N   N19       1.0  0.38799  0.84137  0.63695  1.0000 -0.1916368526
N   N20       1.0  0.38799  0.15863  0.86305  1.0000 -0.1916368526
N   N21       1.0  0.88799  0.34137  0.36305  1.0000 -0.1916368526
N   N22       1.0  0.88799  0.65863  0.13695  1.0000 -0.1916368526
N   N23       1.0  0.61201  0.15863  0.36305  1.0000 -0.1916368526
N   N24       1.0  0.61201  0.84137  0.13695  1.0000 -0.1916368526
N   N25       1.0  0.85440  0.91927  0.61209  1.0000 -0.2810038964
N   N26       1.0  0.85440  0.08073  0.88791  1.0000 -0.2810038964
N   N27       1.0  0.64560  0.58073  0.61209  1.0000 -0.2810038964
N   N28       1.0  0.64560  0.41927  0.88791  1.0000 -0.2810038964
N   N29       1.0  0.14560  0.08073  0.38791  1.0000 -0.2810038964
N   N30       1.0  0.14560  0.91927  0.11209  1.0000 -0.2810038964
N   N31       1.0  0.35440  0.41927  0.38791  1.0000 -0.2810038964
N   N32       1.0  0.35440  0.58073  0.11209  1.0000 -0.2810038964
N   N33       1.0  0.88336  0.84053  0.60656  1.0000 -0.0016258559
N   N34       1.0  0.88336  0.15947  0.89344  1.0000 -0.0016258559
N   N35       1.0  0.61664  0.65947  0.60656  1.0000 -0.0016258559
N   N36       1.0  0.61664  0.34053  0.89344  1.0000 -0.0016258559
N   N37       1.0  0.11664  0.15947  0.39344  1.0000 -0.0016258559
N   N38       1.0  0.11664  0.84053  0.10656  1.0000 -0.0016258559
N   N39       1.0  0.38336  0.34053  0.39344  1.0000 -0.0016258559
N   N40       1.0  0.38336  0.65947  0.10656  1.0000 -0.0016258559
N   N41       1.0  0.78640  0.51463  0.84225  1.0000 -0.2810038964
N   N42       1.0  0.78640  0.48537  0.65775  1.0000 -0.2810038964
N   N43       1.0  0.71360  0.98537  0.84225  1.0000 -0.2810038964
N   N44       1.0  0.71360  0.01463  0.65775  1.0000 -0.2810038964
N   N45       1.0  0.21360  0.48537  0.15775  1.0000 -0.2810038964
N   N46       1.0  0.21360  0.51463  0.34225  1.0000 -0.2810038964
N   N47       1.0  0.28640  0.01463  0.15775  1.0000 -0.2810038964
N   N48       1.0  0.28640  0.98537  0.34225  1.0000 -0.2810038964
N   N49       1.0  0.92160  0.55381  0.79366  1.0000 0.0240055885
N   N50       1.0  0.92160  0.44619  0.70634  1.0000 0.0240055885
N   N51       1.0  0.57840  0.94619  0.79366  1.0000 0.0240055885
N   N52       1.0  0.57840  0.05381  0.70634  1.0000 0.0240055885
N   N53       1.0  0.07840  0.44619  0.20634  1.0000 0.0240055885
N   N54       1.0  0.07840  0.55381  0.29366  1.0000 0.0240055885
N   N55       1.0  0.42160  0.05381  0.20634  1.0000 0.0240055885
N   N56       1.0  0.42160  0.94619  0.29366  1.0000 0.0240055885
N   N57       1.0  0.65400  0.16895  0.05520  1.0000 0.6636382028
N   N58       1.0  0.65400  0.83105  0.44480  1.0000 0.6636382028
N   N59       1.0  0.84600  0.33105  0.05520  1.0000 0.6636382028
N   N60       1.0  0.84600  0.66895  0.44480  1.0000 0.6636382028
N   N61       1.0  0.34600  0.83105  0.94480  1.0000 0.6636382028
N   N62       1.0  0.34600  0.16895  0.55520  1.0000 0.6636382028
N   N63       1.0  0.15400  0.66895  0.94480  1.0000 0.6636382028
N   N64       1.0  0.15400  0.33105  0.55520  1.0000 0.6636382028
O   O1        1.0  0.44265  0.45497  0.28591  1.0000 -0.5115162373
O   O2        1.0  0.44265  0.54503  0.21409  1.0000 -0.5115162373
O   O3        1.0  0.05735  0.04503  0.28591  1.0000 -0.5115162373
O   O4        1.0  0.05735  0.95497  0.21409  1.0000 -0.5115162373
O   O5        1.0  0.55735  0.54503  0.71409  1.0000 -0.5115162373
O   O6        1.0  0.55735  0.45497  0.78591  1.0000 -0.5115162373
O   O7        1.0  0.94265  0.95497  0.71409  1.0000 -0.5115162373
O   O8        1.0  0.94265  0.04503  0.78591  1.0000 -0.5115162373
O   O9        1.0  0.55069  0.50334  0.32531  1.0000 -0.3932909037
O   O10       1.0  0.55069  0.49666  0.17469  1.0000 -0.3932909037
O   O11       1.0  0.94931  0.99666  0.32531  1.0000 -0.3932909037
O   O12       1.0  0.94931  0.00334  0.17469  1.0000 -0.3932909037
O   O13       1.0  0.44931  0.49666  0.67469  1.0000 -0.3983024076
O   O14       1.0  0.44931  0.50334  0.82531  1.0000 -0.3983024076
O   O15       1.0  0.05069  0.00334  0.67469  1.0000 -0.3983024076
O   O16       1.0  0.05069  0.99666  0.82531  1.0000 -0.3983024076
O   O17       1.0  0.59360  0.13498  0.03632  1.0000 -0.4552105681
O   O18       1.0  0.64403  0.17467  0.09777  1.0000 -0.3461582751
O   O19       1.0  0.71143  0.19875  0.03118  1.0000 -0.3932909037
O   O20       1.0  0.59360  0.86502  0.46368  1.0000 -0.4552105681
O   O21       1.0  0.64403  0.82533  0.40223  1.0000 -0.3461582751
O   O22       1.0  0.71143  0.80125  0.46882  1.0000 -0.3932909037
O   O23       1.0  0.90640  0.36502  0.03632  1.0000 -0.4552105681
O   O24       1.0  0.85597  0.32533  0.09777  1.0000 -0.3461582751
O   O25       1.0  0.78857  0.30125  0.03118  1.0000 -0.3932909037
O   O26       1.0  0.90640  0.63498  0.46368  1.0000 -0.4547554866
O   O27       1.0  0.85597  0.67467  0.40223  1.0000 -0.3461582751
O   O28       1.0  0.78857  0.69875  0.46882  1.0000 -0.3932909037
O   O29       1.0  0.40640  0.86502  0.96368  1.0000 -0.4552105681
O   O30       1.0  0.35597  0.82533  0.90223  1.0000 -0.3461582751
O   O31       1.0  0.28857  0.80125  0.96882  1.0000 -0.3932909037
O   O32       1.0  0.40640  0.13498  0.53632  1.0000 -0.4552105681
O   O33       1.0  0.35597  0.17467  0.59777  1.0000 -0.3461582751
O   O34       1.0  0.28857  0.19875  0.53118  1.0000 -0.3932909037
O   O35       1.0  0.09360  0.63498  0.96368  1.0000 -0.4552105681
O   O36       1.0  0.14403  0.67467  0.90223  1.0000 -0.3461582751
O   O37       1.0  0.21143  0.69875  0.96882  1.0000 -0.3932909037
O   O38       1.0  0.09360  0.36502  0.53632  1.0000 -0.4552105681
O   O39       1.0  0.14403  0.32533  0.59777  1.0000 -0.3461582751
O   O40       1.0  0.21143  0.30125  0.53118  1.0000 -0.3932909037
