# DDEC6 charges by PACMAN v1.1 (https://github.com/mtap-research/PACMAN-charge/)
data_2011[Gd][pcu]3[ION]1
_chemical_formula_sum              "Gd16 H88 C48 N12 Cl12 O152"
_cell_length_a       11.5377
_cell_length_b       20.7238
_cell_length_c       23.5844
_cell_angle_alpha    90
_cell_angle_beta     90
_cell_angle_gamma    90

_symmetry_space_group_name_H-M    "P 1"
_symmetry_Int_Tables_number       1

loop_
  _symmetry_equiv_pos_as_xyz
  'x, y, z'

loop_
  _atom_site_type_symbol
  _atom_site_label
  _atom_site_symmetry_multiplicity
  _atom_site_fract_x
  _atom_site_fract_y
  _atom_site_fract_z
  _atom_site_occupancy
  _atom_site_charge
Gd  Gd1       1.0  0.58132  0.96430  0.26826  1.0000 2.1182624042
Gd  Gd2       1.0  0.91868  0.03570  0.76826  1.0000 2.1182624042
Gd  Gd3       1.0  0.08132  0.53570  0.73174  1.0000 2.1182624042
Gd  Gd4       1.0  0.41868  0.46430  0.23174  1.0000 2.1182624042
Gd  Gd5       1.0  0.91644  0.97318  0.26563  1.0000 2.1182624042
Gd  Gd6       1.0  0.58356  0.02682  0.76563  1.0000 2.1182624042
Gd  Gd7       1.0  0.41644  0.52682  0.73437  1.0000 2.1182624042
Gd  Gd8       1.0  0.08356  0.47318  0.23437  1.0000 2.1182624042
Gd  Gd9       1.0  0.75622  0.87716  0.15220  1.0000 2.1182624042
Gd  Gd10      1.0  0.74378  0.12284  0.65220  1.0000 2.1182624042
Gd  Gd11      1.0  0.25622  0.62284  0.84780  1.0000 2.1182624042
Gd  Gd12      1.0  0.24378  0.37716  0.34780  1.0000 2.1182624042
Gd  Gd13      1.0  0.73558  0.06678  0.15727  1.0000 2.0722110212
Gd  Gd14      1.0  0.76442  0.93322  0.65727  1.0000 2.0722110212
Gd  Gd15      1.0  0.23558  0.43322  0.84273  1.0000 2.0722110212
Gd  Gd16      1.0  0.26442  0.56678  0.34273  1.0000 2.0722110212
H   H1        1.0  0.85960  0.91510  0.50620  1.0000 0.2888908289
H   H2        1.0  0.64040  0.08490  0.00620  1.0000 0.2888908289
H   H3        1.0  0.35960  0.58490  0.49380  1.0000 0.2888908289
H   H4        1.0  0.14040  0.41510  0.99380  1.0000 0.2888908289
H   H5        1.0  0.92320  0.93990  0.45760  1.0000 0.261112982
H   H6        1.0  0.57680  0.06010  0.95760  1.0000 0.261112982
H   H7        1.0  0.42320  0.56010  0.54240  1.0000 0.261112982
H   H8        1.0  0.07680  0.43990  0.04240  1.0000 0.261112982
H   H9        1.0  0.86400  0.87820  0.45380  1.0000 0.2888908289
H   H10       1.0  0.63600  0.12180  0.95380  1.0000 0.2888908289
H   H11       1.0  0.36400  0.62180  0.54620  1.0000 0.2888908289
H   H12       1.0  0.13600  0.37820  0.04620  1.0000 0.2888908289
H   H13       1.0  0.68650  0.92690  0.46090  1.0000 0.1298250533
H   H14       1.0  0.81350  0.07310  0.96090  1.0000 0.1298250533
H   H15       1.0  0.18650  0.57310  0.53910  1.0000 0.1298250533
H   H16       1.0  0.31350  0.42690  0.03910  1.0000 0.1298250533
H   H17       1.0  0.34960  0.71830  0.29180  1.0000 0.2791286051
H   H18       1.0  0.15040  0.28170  0.79180  1.0000 0.2791286051
H   H19       1.0  0.84960  0.78170  0.70820  1.0000 0.2791286051
H   H20       1.0  0.65040  0.21830  0.20820  1.0000 0.2791286051
H   H21       1.0  0.33910  0.76720  0.24790  1.0000 0.2398998678
H   H22       1.0  0.16090  0.23280  0.74790  1.0000 0.2398998678
H   H23       1.0  0.83910  0.73280  0.75210  1.0000 0.2398998678
H   H24       1.0  0.66090  0.26720  0.25210  1.0000 0.2398998678
H   H25       1.0  0.37880  0.78510  0.30420  1.0000 0.2791286051
H   H26       1.0  0.12120  0.21490  0.80420  1.0000 0.2791286051
H   H27       1.0  0.87880  0.71490  0.69580  1.0000 0.2791286051
H   H28       1.0  0.62120  0.28510  0.19580  1.0000 0.2791286051
H   H29       1.0  0.81800  0.04250  0.45730  1.0000 0.1512831148
H   H30       1.0  0.68200  0.95750  0.95730  1.0000 0.1512831148
H   H31       1.0  0.31800  0.45750  0.54270  1.0000 0.1512831148
H   H32       1.0  0.18200  0.54250  0.04270  1.0000 0.1512831148
H   H33       1.0  0.68250  0.04030  0.45650  1.0000 0.1701301673
H   H34       1.0  0.81750  0.95970  0.95650  1.0000 0.1701301673
H   H35       1.0  0.18250  0.45970  0.54350  1.0000 0.1701301673
H   H36       1.0  0.31750  0.54030  0.04350  1.0000 0.1701301673
H   H37       1.0  0.86660  0.71470  0.18930  1.0000 0.2888908289
H   H38       1.0  0.63340  0.28530  0.68930  1.0000 0.2888908289
H   H39       1.0  0.36660  0.78530  0.81070  1.0000 0.2888908289
H   H40       1.0  0.13340  0.21470  0.31070  1.0000 0.2888908289
H   H41       1.0  0.85050  0.66667  0.23360  1.0000 0.2888908289
H   H42       1.0  0.64950  0.33333  0.73360  1.0000 0.2888908289
H   H43       1.0  0.35050  0.83333  0.76640  1.0000 0.2888908289
H   H44       1.0  0.14950  0.16667  0.26640  1.0000 0.2888908289
H   H45       1.0  0.90360  0.64850  0.18000  1.0000 0.2687366545
H   H46       1.0  0.59640  0.35150  0.68000  1.0000 0.2687366545
H   H47       1.0  0.40360  0.85150  0.82000  1.0000 0.2687366545
H   H48       1.0  0.09640  0.14850  0.32000  1.0000 0.2687366545
H   H49       1.0  0.54650  0.73060  0.29430  1.0000 0.1298250533
H   H50       1.0  0.95350  0.26940  0.79430  1.0000 0.1298250533
H   H51       1.0  0.04650  0.76940  0.70570  1.0000 0.1298250533
H   H52       1.0  0.45350  0.23060  0.20570  1.0000 0.1298250533
H   H53       1.0  0.58810  0.68140  0.20790  1.0000 0.1701301673
H   H54       1.0  0.91190  0.31860  0.70790  1.0000 0.1701301673
H   H55       1.0  0.08810  0.81860  0.79210  1.0000 0.1701301673
H   H56       1.0  0.41190  0.18140  0.29210  1.0000 0.1701301673
H   H57       1.0  0.46130  0.69540  0.18780  1.0000 0.1512831148
H   H58       1.0  0.03870  0.30460  0.68780  1.0000 0.1512831148
H   H59       1.0  0.96130  0.80460  0.81220  1.0000 0.1512831148
H   H60       1.0  0.53870  0.19540  0.31220  1.0000 0.1512831148
H   H61       1.0  0.06660  0.70800  0.19790  1.0000 0.1118476033
H   H62       1.0  0.43340  0.29200  0.69790  1.0000 0.1118476033
H   H63       1.0  0.56660  0.79200  0.80210  1.0000 0.1118476033
H   H64       1.0  0.93340  0.20800  0.30210  1.0000 0.1118476033
H   H65       1.0  0.95830  0.74260  0.30070  1.0000 0.1701301673
H   H66       1.0  0.54170  0.25740  0.80070  1.0000 0.1701301673
H   H67       1.0  0.45830  0.75740  0.69930  1.0000 0.1701301673
H   H68       1.0  0.04170  0.24260  0.19930  1.0000 0.1701301673
H   H69       1.0  0.08530  0.76170  0.28490  1.0000 0.1591416537
H   H70       1.0  0.41470  0.23830  0.78490  1.0000 0.1591416537
H   H71       1.0  0.58530  0.73830  0.71510  1.0000 0.1591416537
H   H72       1.0  0.91470  0.26170  0.21510  1.0000 0.1591416537
H   H73       1.0  0.75760  0.86650  0.27490  1.0000 0.4496980026
H   H74       1.0  0.74240  0.13350  0.77490  1.0000 0.4496980026
H   H75       1.0  0.25760  0.63350  0.72510  1.0000 0.4496980026
H   H76       1.0  0.24240  0.36650  0.22510  1.0000 0.4496980026
H   H77       1.0  0.74120  0.07030  0.28230  1.0000 0.4496980026
H   H78       1.0  0.75880  0.92970  0.78230  1.0000 0.4496980026
H   H79       1.0  0.24120  0.42970  0.71770  1.0000 0.4496980026
H   H80       1.0  0.25880  0.57030  0.21770  1.0000 0.4496980026
H   H81       1.0  0.92970  0.97860  0.14450  1.0000 0.42498281
H   H82       1.0  0.57030  0.02140  0.64450  1.0000 0.42498281
H   H83       1.0  0.42970  0.52140  0.85550  1.0000 0.42498281
H   H84       1.0  0.07030  0.47860  0.35550  1.0000 0.42498281
H   H85       1.0  0.55610  0.96720  0.14700  1.0000 0.4332638472
H   H86       1.0  0.94390  0.03280  0.64700  1.0000 0.4332638472
H   H87       1.0  0.05610  0.53280  0.85300  1.0000 0.4332638472
H   H88       1.0  0.44390  0.46720  0.35300  1.0000 0.4332638472
C   C1        1.0  0.75580  0.95550  0.38380  1.0000 0.6006426155
C   C2        1.0  0.74420  0.04450  0.88380  1.0000 0.6006426155
C   C3        1.0  0.25580  0.54450  0.61620  1.0000 0.6006426155
C   C4        1.0  0.24420  0.45550  0.11620  1.0000 0.6006426155
C   C5        1.0  0.75520  0.95080  0.44840  1.0000 0.0285039074
C   C6        1.0  0.74480  0.04920  0.94840  1.0000 0.0285039074
C   C7        1.0  0.25520  0.54920  0.55160  1.0000 0.0285039074
C   C8        1.0  0.24480  0.45080  0.05160  1.0000 0.0285039074
C   C9        1.0  0.75110  0.01920  0.47140  1.0000 -0.3822137748
C   C10       1.0  0.74890  0.98080  0.97140  1.0000 -0.3822137748
C   C11       1.0  0.25110  0.48080  0.52860  1.0000 -0.3822137748
C   C12       1.0  0.24890  0.51920  0.02860  1.0000 -0.3822137748
C   C13       1.0  0.74920  0.02460  0.53560  1.0000 0.7075323328
C   C14       1.0  0.75080  0.97540  0.03560  1.0000 0.7075323328
C   C15       1.0  0.24920  0.47540  0.46440  1.0000 0.7075323328
C   C16       1.0  0.25080  0.52460  0.96440  1.0000 0.7075323328
C   C17       1.0  0.55450  0.80440  0.23640  1.0000 0.5875754147
C   C18       1.0  0.94550  0.19560  0.73640  1.0000 0.5875754147
C   C19       1.0  0.05450  0.69560  0.76360  1.0000 0.5875754147
C   C20       1.0  0.44550  0.30440  0.26360  1.0000 0.5875754147
C   C21       1.0  0.50260  0.74200  0.26020  1.0000 0.0457496993
C   C22       1.0  0.99740  0.25800  0.76020  1.0000 0.0457496993
C   C23       1.0  0.00260  0.75800  0.73980  1.0000 0.0457496993
C   C24       1.0  0.49740  0.24200  0.23980  1.0000 0.0457496993
C   C25       1.0  0.50870  0.68600  0.22080  1.0000 -0.3719209567
C   C26       1.0  0.99130  0.31400  0.72080  1.0000 -0.3719209567
C   C27       1.0  0.00870  0.81400  0.77920  1.0000 -0.3719209567
C   C28       1.0  0.49130  0.18600  0.27920  1.0000 -0.3719209567
C   C29       1.0  0.46940  0.62180  0.24590  1.0000 0.7075323328
C   C30       1.0  0.03060  0.37820  0.74590  1.0000 0.7075323328
C   C31       1.0  0.96940  0.87820  0.75410  1.0000 0.7075323328
C   C32       1.0  0.53060  0.12180  0.25410  1.0000 0.7075323328
C   C33       1.0  0.06700  0.63630  0.25750  1.0000 0.5875754147
C   C34       1.0  0.43300  0.36370  0.75750  1.0000 0.5875754147
C   C35       1.0  0.56700  0.86370  0.74250  1.0000 0.5875754147
C   C36       1.0  0.93300  0.13630  0.24250  1.0000 0.5875754147
C   C37       1.0  0.01620  0.69610  0.22970  1.0000 0.0422879695
C   C38       1.0  0.48380  0.30390  0.72970  1.0000 0.0422879695
C   C39       1.0  0.51620  0.80390  0.77030  1.0000 0.0422879695
C   C40       1.0  0.98380  0.19610  0.27030  1.0000 0.0422879695
C   C41       1.0  0.00880  0.75380  0.26940  1.0000 -0.3898301482
C   C42       1.0  0.49120  0.24620  0.76940  1.0000 -0.3898301482
C   C43       1.0  0.50880  0.74620  0.73060  1.0000 -0.3898301482
C   C44       1.0  0.99120  0.25380  0.23060  1.0000 -0.3898301482
C   C45       1.0  0.96520  0.81580  0.24350  1.0000 0.7005147725
C   C46       1.0  0.53480  0.18420  0.74350  1.0000 0.7005147725
C   C47       1.0  0.46520  0.68420  0.75650  1.0000 0.7005147725
C   C48       1.0  0.03480  0.31580  0.25650  1.0000 0.7005147725
N   N1        1.0  0.86100  0.91770  0.46850  1.0000 -0.4312987238
N   N2        1.0  0.63900  0.08230  0.96850  1.0000 -0.4312987238
N   N3        1.0  0.36100  0.58230  0.53150  1.0000 -0.4312987238
N   N4        1.0  0.13900  0.41770  0.03150  1.0000 -0.4312987238
N   N5        1.0  0.38010  0.75440  0.27780  1.0000 -0.4094787052
N   N6        1.0  0.11990  0.24560  0.77780  1.0000 -0.4094787052
N   N7        1.0  0.88010  0.74560  0.72220  1.0000 -0.4094787052
N   N8        1.0  0.61990  0.25440  0.22220  1.0000 -0.4094787052
N   N9        1.0  0.89680  0.67980  0.20560  1.0000 -0.4094787052
N   N10       1.0  0.60320  0.32020  0.70560  1.0000 -0.4094787052
N   N11       1.0  0.39680  0.82020  0.79440  1.0000 -0.4094787052
N   N12       1.0  0.10320  0.17980  0.29440  1.0000 -0.4094787052
Cl  Cl1       1.0  0.90600  0.48600  0.49889  1.0000 1.1523150146
Cl  Cl2       1.0  0.59400  0.51400  0.99889  1.0000 1.1523150146
Cl  Cl3       1.0  0.40600  0.01400  0.50111  1.0000 1.1523150146
Cl  Cl4       1.0  0.09400  0.98600  0.00111  1.0000 1.1566445768
Cl  Cl5       1.0  0.75410  0.62844  0.34512  1.0000 1.2240943849
Cl  Cl6       1.0  0.74590  0.37156  0.84512  1.0000 1.2308464229
Cl  Cl7       1.0  0.25410  0.87156  0.65488  1.0000 1.2308464229
Cl  Cl8       1.0  0.24590  0.12844  0.15488  1.0000 1.2240943849
Cl  Cl9       1.0  0.48980  0.28668  0.04960  1.0000 1.2308464229
Cl  Cl10      1.0  0.01020  0.71332  0.54960  1.0000 1.2356314599
Cl  Cl11      1.0  0.98980  0.21332  0.95040  1.0000 1.2308464229
Cl  Cl12      1.0  0.51020  0.78668  0.45040  1.0000 1.2308464229
O   O1        1.0  0.75360  0.90511  0.25095  1.0000 -1.1244865417
O   O2        1.0  0.74640  0.09489  0.75095  1.0000 -1.1244865417
O   O3        1.0  0.25360  0.59489  0.74905  1.0000 -1.1244865417
O   O4        1.0  0.24640  0.40511  0.24905  1.0000 -1.1244865417
O   O5        1.0  0.74340  0.03340  0.25634  1.0000 -1.1388063491
O   O6        1.0  0.75660  0.96660  0.75634  1.0000 -1.1388063491
O   O7        1.0  0.24340  0.46660  0.74366  1.0000 -1.1388063491
O   O8        1.0  0.25660  0.53340  0.24366  1.0000 -1.1388063491
O   O9        1.0  0.86180  0.97540  0.16925  1.0000 -1.0831354618
O   O10       1.0  0.63820  0.02460  0.66925  1.0000 -1.0831354618
O   O11       1.0  0.36180  0.52460  0.83075  1.0000 -1.0831354618
O   O12       1.0  0.13820  0.47540  0.33075  1.0000 -1.0831354618
O   O13       1.0  0.62580  0.96850  0.17074  1.0000 -1.0831354618
O   O14       1.0  0.87420  0.03150  0.67074  1.0000 -1.0831354618
O   O15       1.0  0.12580  0.53150  0.82926  1.0000 -1.0831354618
O   O16       1.0  0.37420  0.46850  0.32926  1.0000 -1.0831354618
O   O17       1.0  0.85310  0.95760  0.35980  1.0000 -0.6115343631
O   O18       1.0  0.64690  0.04240  0.85980  1.0000 -0.6115343631
O   O19       1.0  0.35310  0.54240  0.64020  1.0000 -0.6115343631
O   O20       1.0  0.14690  0.45760  0.14020  1.0000 -0.6115343631
O   O21       1.0  0.65920  0.95890  0.36080  1.0000 -0.5904396236
O   O22       1.0  0.84080  0.04110  0.86080  1.0000 -0.5904396236
O   O23       1.0  0.15920  0.54110  0.63920  1.0000 -0.5904396236
O   O24       1.0  0.34080  0.45890  0.13920  1.0000 -0.5904396236
O   O25       1.0  0.74470  0.07990  0.55682  1.0000 -0.5904396236
O   O26       1.0  0.75530  0.92010  0.05682  1.0000 -0.5904396236
O   O27       1.0  0.24470  0.42010  0.44318  1.0000 -0.5904396236
O   O28       1.0  0.25530  0.57990  0.94318  1.0000 -0.5904396236
O   O29       1.0  0.75420  0.97280  0.56317  1.0000 -0.5904396236
O   O30       1.0  0.74580  0.02720  0.06317  1.0000 -0.5848347605
O   O31       1.0  0.25420  0.52720  0.43683  1.0000 -0.5904396236
O   O32       1.0  0.24580  0.47280  0.93683  1.0000 -0.5904396236
O   O33       1.0  0.51340  0.85680  0.25590  1.0000 -0.5904396236
O   O34       1.0  0.98660  0.14320  0.75590  1.0000 -0.5904396236
O   O35       1.0  0.01340  0.64320  0.74410  1.0000 -0.5904396236
O   O36       1.0  0.48660  0.35680  0.24410  1.0000 -0.5904396236
O   O37       1.0  0.63300  0.79850  0.20170  1.0000 -0.5501224459
O   O38       1.0  0.86700  0.20150  0.70170  1.0000 -0.5501224459
O   O39       1.0  0.13300  0.70150  0.79830  1.0000 -0.5501224459
O   O40       1.0  0.36700  0.29850  0.29830  1.0000 -0.5501224459
O   O41       1.0  0.41240  0.62430  0.29220  1.0000 -0.6214483142
O   O42       1.0  0.08760  0.37570  0.79220  1.0000 -0.6214483142
O   O43       1.0  0.91240  0.87570  0.70780  1.0000 -0.6214483142
O   O44       1.0  0.58760  0.12430  0.20780  1.0000 -0.6214483142
O   O45       1.0  0.49620  0.57140  0.22090  1.0000 -0.6115343631
O   O46       1.0  0.00380  0.42860  0.72090  1.0000 -0.6115343631
O   O47       1.0  0.99620  0.92860  0.77910  1.0000 -0.6115343631
O   O48       1.0  0.50380  0.07140  0.27910  1.0000 -0.6115343631
O   O49       1.0  0.02320  0.58330  0.24300  1.0000 -0.599334842
O   O50       1.0  0.47680  0.41670  0.74300  1.0000 -0.599334842
O   O51       1.0  0.52320  0.91670  0.75700  1.0000 -0.599334842
O   O52       1.0  0.97680  0.08330  0.25700  1.0000 -0.599334842
O   O53       1.0  0.14980  0.64450  0.28870  1.0000 -0.5662434459
O   O54       1.0  0.35020  0.35550  0.78870  1.0000 -0.5662434459
O   O55       1.0  0.64980  0.85550  0.71130  1.0000 -0.5662434459
O   O56       1.0  0.85020  0.14450  0.21130  1.0000 -0.5662434459
O   O57       1.0  0.99410  0.86710  0.26680  1.0000 -0.6115343631
O   O58       1.0  0.50590  0.13290  0.76680  1.0000 -0.6115343631
O   O59       1.0  0.49410  0.63290  0.73320  1.0000 -0.6115343631
O   O60       1.0  0.00590  0.36710  0.23320  1.0000 -0.6115343631
O   O61       1.0  0.89750  0.81120  0.20170  1.0000 -0.5904396236
O   O62       1.0  0.60250  0.18880  0.70170  1.0000 -0.5904396236
O   O63       1.0  0.39750  0.68880  0.79830  1.0000 -0.5904396236
O   O64       1.0  0.10250  0.31120  0.29830  1.0000 -0.5904396236
O   O65       1.0  0.38940  0.96870  0.21960  1.0000 -0.289503409
O   O66       1.0  0.11060  0.03130  0.71960  1.0000 -0.289503409
O   O67       1.0  0.88940  0.53130  0.78040  1.0000 -0.289503409
O   O68       1.0  0.61060  0.46870  0.28040  1.0000 -0.289503409
O   O69       1.0  0.42620  0.94790  0.34070  1.0000 -0.0815866277
O   O70       1.0  0.07380  0.05210  0.84070  1.0000 -0.0815866277
O   O71       1.0  0.92620  0.55210  0.65930  1.0000 -0.0815866277
O   O72       1.0  0.57380  0.44790  0.15930  1.0000 -0.0815866277
O   O73       1.0  0.09900  0.97190  0.20710  1.0000 -0.2228394434
O   O74       1.0  0.40100  0.02810  0.70710  1.0000 -0.2228394434
O   O75       1.0  0.59900  0.52810  0.79290  1.0000 -0.2228394434
O   O76       1.0  0.90100  0.47190  0.29290  1.0000 -0.2228394434
O   O77       1.0  0.08180  0.98530  0.33040  1.0000 -0.3990693953
O   O78       1.0  0.41820  0.01470  0.83040  1.0000 -0.3990693953
O   O79       1.0  0.58180  0.51470  0.66960  1.0000 -0.3990693953
O   O80       1.0  0.91820  0.48530  0.16960  1.0000 -0.3990693953
O   O81       1.0  0.92530  0.09490  0.10760  1.0000 -0.1049403161
O   O82       1.0  0.57470  0.90510  0.60760  1.0000 -0.1068056385
O   O83       1.0  0.42530  0.40510  0.89240  1.0000 -0.1068056385
O   O84       1.0  0.07470  0.59490  0.39240  1.0000 -0.1068056385
O   O85       1.0  0.71560  0.17570  0.11250  1.0000 -0.2972678304
O   O86       1.0  0.78440  0.82430  0.61250  1.0000 -0.2972678304
O   O87       1.0  0.21560  0.32430  0.88750  1.0000 -0.2972678304
O   O88       1.0  0.28440  0.67570  0.38750  1.0000 -0.2972678304
O   O89       1.0  0.54720  0.08160  0.09810  1.0000 -0.2503185034
O   O90       1.0  0.95280  0.91840  0.59810  1.0000 -0.2503185034
O   O91       1.0  0.04720  0.41840  0.90190  1.0000 -0.2503185034
O   O92       1.0  0.45280  0.58160  0.40190  1.0000 -0.2503185034
O   O93       1.0  0.94890  0.86540  0.10110  1.0000 -0.2786445379
O   O94       1.0  0.55110  0.13460  0.60110  1.0000 -0.2786445379
O   O95       1.0  0.44890  0.63460  0.89890  1.0000 -0.2786445379
O   O96       1.0  0.05110  0.36540  0.39890  1.0000 -0.2786445379
O   O97       1.0  0.76610  0.77240  0.10240  1.0000 -0.5501224459
O   O98       1.0  0.73390  0.22760  0.60240  1.0000 -0.5501224459
O   O99       1.0  0.26610  0.72760  0.89760  1.0000 -0.5501224459
O   O100      1.0  0.23390  0.27240  0.39760  1.0000 -0.5501224459
O   O101      1.0  0.56640  0.85760  0.09980  1.0000 -0.4396863714
O   O102      1.0  0.93360  0.14240  0.59980  1.0000 -0.4396863714
O   O103      1.0  0.06640  0.64240  0.90020  1.0000 -0.4396863714
O   O104      1.0  0.43360  0.35760  0.40020  1.0000 -0.4396863714
O   O105      1.0  0.97550  0.53880  0.51250  1.0000 -0.3822137748
O   O106      1.0  0.98050  0.43490  0.48740  1.0000 -0.3990693953
O   O107      1.0  0.82500  0.49580  0.45640  1.0000 -0.3990693953
O   O108      1.0  0.84400  0.48220  0.54970  1.0000 -0.3374406383
O   O109      1.0  0.52450  0.46120  0.01250  1.0000 -0.3822137748
O   O110      1.0  0.51950  0.56510  0.98740  1.0000 -0.3990693953
O   O111      1.0  0.67500  0.50420  0.95640  1.0000 -0.3990693953
O   O112      1.0  0.65600  0.51780  0.04970  1.0000 -0.3374406383
O   O113      1.0  0.47550  0.96120  0.48750  1.0000 -0.3822137748
O   O114      1.0  0.48050  0.06510  0.51260  1.0000 -0.3990693953
O   O115      1.0  0.32500  0.00420  0.54360  1.0000 -0.3990693953
O   O116      1.0  0.34400  0.01780  0.45030  1.0000 -0.3374406383
O   O117      1.0  0.02450  0.03880  0.98750  1.0000 -0.3822137748
O   O118      1.0  0.01950  0.93490  0.01260  1.0000 -0.3990693953
O   O119      1.0  0.17500  0.99580  0.04360  1.0000 -0.3990693953
O   O120      1.0  0.15600  0.98220  0.95030  1.0000 -0.3374406383
O   O121      1.0  0.74720  0.56170  0.35210  1.0000 -0.3273621112
O   O122      1.0  0.67000  0.65390  0.38150  1.0000 -0.3898301482
O   O123      1.0  0.86240  0.65290  0.35740  1.0000 -0.3990693953
O   O124      1.0  0.72040  0.64370  0.28960  1.0000 -0.4645247892
O   O125      1.0  0.75280  0.43830  0.85210  1.0000 -0.3273621112
O   O126      1.0  0.83000  0.34610  0.88150  1.0000 -0.3898301482
O   O127      1.0  0.63760  0.34710  0.85740  1.0000 -0.3990693953
O   O128      1.0  0.77960  0.35630  0.78960  1.0000 -0.4645247892
O   O129      1.0  0.24720  0.93830  0.64790  1.0000 -0.3273621112
O   O130      1.0  0.17000  0.84610  0.61850  1.0000 -0.3898301482
O   O131      1.0  0.36240  0.84710  0.64260  1.0000 -0.3990693953
O   O132      1.0  0.22040  0.85630  0.71040  1.0000 -0.4645247892
O   O133      1.0  0.25280  0.06170  0.14790  1.0000 -0.3273621112
O   O134      1.0  0.33000  0.15390  0.11850  1.0000 -0.3898301482
O   O135      1.0  0.13760  0.15290  0.14260  1.0000 -0.3990693953
O   O136      1.0  0.27960  0.14370  0.21040  1.0000 -0.4645247892
O   O137      1.0  0.54680  0.31400  0.00100  1.0000 -0.4094787052
O   O138      1.0  0.51940  0.31340  0.10340  1.0000 -0.4493493796
O   O139      1.0  0.36690  0.29480  0.04260  1.0000 -0.4312987238
O   O140      1.0  0.51600  0.21930  0.04850  1.0000 -0.3822137748
O   O141      1.0  0.95320  0.68600  0.50100  1.0000 -0.4094787052
O   O142      1.0  0.98060  0.68660  0.60340  1.0000 -0.4493493796
O   O143      1.0  0.13310  0.70520  0.54260  1.0000 -0.4312987238
O   O144      1.0  0.98400  0.78070  0.54850  1.0000 -0.3822137748
O   O145      1.0  0.04680  0.18600  0.99900  1.0000 -0.4094787052
O   O146      1.0  0.01940  0.18660  0.89660  1.0000 -0.4493493796
O   O147      1.0  0.86690  0.20520  0.95740  1.0000 -0.4312987238
O   O148      1.0  0.01600  0.28070  0.95150  1.0000 -0.3822137748
O   O149      1.0  0.45320  0.81400  0.49900  1.0000 -0.4094787052
O   O150      1.0  0.48060  0.81340  0.39660  1.0000 -0.4493493796
O   O151      1.0  0.63310  0.79480  0.45740  1.0000 -0.4312987238
O   O152      1.0  0.48400  0.71930  0.45150  1.0000 -0.3822137748
