# DDEC6 charges by PACMAN v1.1 (https://github.com/mtap-research/PACMAN-charge/)
data_2011[U][mab]3[ION]1
_chemical_formula_sum              "U8 H164 C116 N52 O64"
_cell_length_a       13.8427
_cell_length_b       10.8346
_cell_length_c       29.5482
_cell_angle_alpha    90
_cell_angle_beta     110.118
_cell_angle_gamma    90

_symmetry_space_group_name_H-M    "P 1"
_symmetry_Int_Tables_number       1

loop_
  _symmetry_equiv_pos_as_xyz
  'x, y, z'

loop_
  _atom_site_type_symbol
  _atom_site_label
  _atom_site_symmetry_multiplicity
  _atom_site_fract_x
  _atom_site_fract_y
  _atom_site_fract_z
  _atom_site_occupancy
  _atom_site_charge
U   U1        1.0  0.93344  0.12083  0.52405  1.0000 2.5535677386
U   U2        1.0  0.06656  0.62083  0.97595  1.0000 2.5535677386
U   U3        1.0  0.06656  0.87917  0.47595  1.0000 2.5535677386
U   U4        1.0  0.93344  0.37917  0.02405  1.0000 2.5535677386
U   U5        1.0  0.83542  0.11329  0.38871  1.0000 2.5114822103
U   U6        1.0  0.16458  0.61329  0.11129  1.0000 2.5114822103
U   U7        1.0  0.16458  0.88671  0.61129  1.0000 2.5114822103
U   U8        1.0  0.83542  0.38671  0.88871  1.0000 2.5114822103
H   H1        1.0  0.84660  0.28520  0.45250  1.0000 0.3889069868
H   H2        1.0  0.15340  0.78520  0.04750  1.0000 0.3889069868
H   H3        1.0  0.15340  0.71480  0.54750  1.0000 0.3889069868
H   H4        1.0  0.84660  0.21480  0.95250  1.0000 0.3889069868
H   H5        1.0  0.55920  0.14130  0.78770  1.0000 0.148865552
H   H6        1.0  0.44080  0.64130  0.71230  1.0000 0.148865552
H   H7        1.0  0.44080  0.85870  0.21230  1.0000 0.148865552
H   H8        1.0  0.55920  0.35870  0.28770  1.0000 0.148865552
H   H9        1.0  0.59850  0.19290  0.74740  1.0000 0.1198274874
H   H10       1.0  0.40150  0.69290  0.75260  1.0000 0.1198274874
H   H11       1.0  0.40150  0.80710  0.25260  1.0000 0.1198274874
H   H12       1.0  0.59850  0.30710  0.24740  1.0000 0.1198274874
H   H13       1.0  0.49370  0.34990  0.79250  1.0000 0.1107142929
H   H14       1.0  0.50630  0.84990  0.70750  1.0000 0.1107142929
H   H15       1.0  0.50630  0.65010  0.20750  1.0000 0.1107142929
H   H16       1.0  0.49370  0.15010  0.29250  1.0000 0.1107142929
H   H17       1.0  0.51540  0.37990  0.74500  1.0000 0.0921186082
H   H18       1.0  0.48460  0.87990  0.75500  1.0000 0.0921186082
H   H19       1.0  0.48460  0.62010  0.25500  1.0000 0.0921186082
H   H20       1.0  0.51540  0.12010  0.24500  1.0000 0.0921186082
H   H21       1.0  0.37150  0.20110  0.75160  1.0000 0.1107142929
H   H22       1.0  0.62850  0.70110  0.74840  1.0000 0.1107142929
H   H23       1.0  0.62850  0.79890  0.24840  1.0000 0.1107142929
H   H24       1.0  0.37150  0.29890  0.25160  1.0000 0.1107142929
H   H25       1.0  0.39490  0.22620  0.70420  1.0000 0.0921186082
H   H26       1.0  0.60510  0.72620  0.79580  1.0000 0.0921186082
H   H27       1.0  0.60510  0.77380  0.29580  1.0000 0.0921186082
H   H28       1.0  0.39490  0.27380  0.20420  1.0000 0.0921186082
H   H29       1.0  0.30700  0.40650  0.74760  1.0000 0.1022822135
H   H30       1.0  0.69300  0.90650  0.75240  1.0000 0.1022822135
H   H31       1.0  0.69300  0.59350  0.25240  1.0000 0.1022822135
H   H32       1.0  0.30700  0.09350  0.24760  1.0000 0.1022822135
H   H33       1.0  0.32400  0.42370  0.69830  1.0000 0.1022822135
H   H34       1.0  0.67600  0.92370  0.80170  1.0000 0.1022822135
H   H35       1.0  0.67600  0.57630  0.30170  1.0000 0.1022822135
H   H36       1.0  0.32400  0.07630  0.19830  1.0000 0.1022822135
H   H37       1.0  0.15250  0.38290  0.68170  1.0000 0.1022822135
H   H38       1.0  0.84750  0.88290  0.81830  1.0000 0.1022822135
H   H39       1.0  0.84750  0.61710  0.31830  1.0000 0.1107142929
H   H40       1.0  0.15250  0.11710  0.18170  1.0000 0.1022822135
H   H41       1.0  0.20000  0.26970  0.66400  1.0000 0.1022822135
H   H42       1.0  0.80000  0.76970  0.83600  1.0000 0.1022822135
H   H43       1.0  0.80000  0.73030  0.33600  1.0000 0.1107142929
H   H44       1.0  0.20000  0.23030  0.16400  1.0000 0.1107142929
H   H45       1.0  0.16090  0.27000  0.75160  1.0000 0.1022822135
H   H46       1.0  0.83910  0.77000  0.74840  1.0000 0.1022822135
H   H47       1.0  0.83910  0.73000  0.24840  1.0000 0.1022822135
H   H48       1.0  0.16090  0.23000  0.25160  1.0000 0.1022822135
H   H49       1.0  0.20160  0.15570  0.73090  1.0000 0.1022822135
H   H50       1.0  0.79840  0.65570  0.76910  1.0000 0.1022822135
H   H51       1.0  0.79840  0.84430  0.26910  1.0000 0.1022822135
H   H52       1.0  0.20160  0.34430  0.23090  1.0000 0.1022822135
H   H53       1.0  0.02260  0.13740  0.71500  1.0000 0.1437686695
H   H54       1.0  0.97740  0.63740  0.78500  1.0000 0.1437686695
H   H55       1.0  0.97740  0.86260  0.28500  1.0000 0.1437686695
H   H56       1.0  0.02260  0.36260  0.21500  1.0000 0.1437686695
H   H57       1.0  0.00380  0.26160  0.68590  1.0000 0.1198274874
H   H58       1.0  0.99620  0.76160  0.81410  1.0000 0.1198274874
H   H59       1.0  0.99620  0.73840  0.31410  1.0000 0.1198274874
H   H60       1.0  0.00380  0.23840  0.18590  1.0000 0.1198274874
H   H61       1.0  0.86310  0.36900  0.68440  1.0000 0.0800325361
H   H62       1.0  0.13690  0.86900  0.81560  1.0000 0.0800325361
H   H63       1.0  0.13690  0.63100  0.31560  1.0000 0.0800325361
H   H64       1.0  0.86310  0.13100  0.18440  1.0000 0.0800325361
H   H65       1.0  0.94770  0.51760  0.65800  1.0000 0.0921186082
H   H66       1.0  0.05230  0.01760  0.84200  1.0000 0.0921186082
H   H67       1.0  0.05230  0.48240  0.34200  1.0000 0.0921186082
H   H68       1.0  0.94770  0.98240  0.15800  1.0000 0.0921186082
H   H69       1.0  0.94500  0.45180  0.53990  1.0000 0.1107142929
H   H70       1.0  0.05500  0.95180  0.96010  1.0000 0.1107142929
H   H71       1.0  0.05500  0.54820  0.46010  1.0000 0.1107142929
H   H72       1.0  0.94500  0.04820  0.03990  1.0000 0.1107142929
H   H73       1.0  0.98530  0.56060  0.57670  1.0000 0.1198274874
H   H74       1.0  0.01470  0.06060  0.92330  1.0000 0.1198274874
H   H75       1.0  0.01470  0.43940  0.42330  1.0000 0.1198274874
H   H76       1.0  0.98530  0.93940  0.07670  1.0000 0.1198274874
H   H77       1.0  0.91000  0.74720  0.62790  1.0000 0.1198274874
H   H78       1.0  0.09000  0.24720  0.87210  1.0000 0.1198274874
H   H79       1.0  0.09000  0.25280  0.37210  1.0000 0.1198274874
H   H80       1.0  0.91000  0.75280  0.12790  1.0000 0.1198274874
H   H81       1.0  0.81020  0.79850  0.63480  1.0000 0.1107142929
H   H82       1.0  0.18980  0.29850  0.86520  1.0000 0.1107142929
H   H83       1.0  0.18980  0.20150  0.36520  1.0000 0.1107142929
H   H84       1.0  0.81020  0.70150  0.13480  1.0000 0.1107142929
H   H85       1.0  0.90950  0.77370  0.54230  1.0000 0.1022822135
H   H86       1.0  0.09050  0.27370  0.95770  1.0000 0.1022822135
H   H87       1.0  0.09050  0.22630  0.45770  1.0000 0.1022822135
H   H88       1.0  0.90950  0.72630  0.04230  1.0000 0.1022822135
H   H89       1.0  0.79740  0.84440  0.47110  1.0000 0.1022822135
H   H90       1.0  0.20260  0.34440  0.02890  1.0000 0.1022822135
H   H91       1.0  0.20260  0.15560  0.52890  1.0000 0.1022822135
H   H92       1.0  0.79740  0.65560  0.97110  1.0000 0.1022822135
H   H93       1.0  0.71720  0.75300  0.39180  1.0000 0.1107142929
H   H94       1.0  0.28280  0.25300  0.10820  1.0000 0.1107142929
H   H95       1.0  0.28280  0.24700  0.60820  1.0000 0.1107142929
H   H96       1.0  0.71720  0.74700  0.89180  1.0000 0.1107142929
H   H97       1.0  0.70570  0.60950  0.38690  1.0000 0.1107142929
H   H98       1.0  0.29430  0.10950  0.11310  1.0000 0.1107142929
H   H99       1.0  0.29430  0.39050  0.61310  1.0000 0.1107142929
H   H100      1.0  0.70570  0.89050  0.88690  1.0000 0.1107142929
H   H101      1.0  0.58670  0.96790  0.48740  1.0000 0.1198274874
H   H102      1.0  0.41330  0.46790  0.01260  1.0000 0.1198274874
H   H103      1.0  0.41330  0.03210  0.51260  1.0000 0.1198274874
H   H104      1.0  0.58670  0.53210  0.98740  1.0000 0.1198274874
H   H105      1.0  0.64970  0.96630  0.45240  1.0000 0.1198274874
H   H106      1.0  0.35030  0.46630  0.04760  1.0000 0.1198274874
H   H107      1.0  0.35030  0.03370  0.54760  1.0000 0.1198274874
H   H108      1.0  0.64970  0.53370  0.95240  1.0000 0.1198274874
H   H109      1.0  0.55370  0.87310  0.36840  1.0000 0.1022822135
H   H110      1.0  0.44630  0.37310  0.13160  1.0000 0.1022822135
H   H111      1.0  0.44630  0.12690  0.63160  1.0000 0.1022822135
H   H112      1.0  0.55370  0.62690  0.86840  1.0000 0.1022822135
H   H113      1.0  0.38090  0.83470  0.33010  1.0000 0.0800325361
H   H114      1.0  0.61910  0.33470  0.16990  1.0000 0.0800325361
H   H115      1.0  0.61910  0.16530  0.66990  1.0000 0.0800325361
H   H116      1.0  0.38090  0.66530  0.83010  1.0000 0.0800325361
H   H117      1.0  0.71430  0.36860  0.71190  1.0000 0.1107142929
H   H118      1.0  0.28570  0.86860  0.78810  1.0000 0.1107142929
H   H119      1.0  0.28570  0.63140  0.28810  1.0000 0.1107142929
H   H120      1.0  0.71430  0.13140  0.21190  1.0000 0.1107142929
H   H121      1.0  0.64660  0.48800  0.70060  1.0000 0.1198274874
H   H122      1.0  0.35340  0.98800  0.79940  1.0000 0.1198274874
H   H123      1.0  0.35340  0.51200  0.29940  1.0000 0.1198274874
H   H124      1.0  0.64660  0.01200  0.20060  1.0000 0.1198274874
H   H125      1.0  0.77800  0.16260  0.64790  1.0000 0.1022822135
H   H126      1.0  0.22200  0.66260  0.85210  1.0000 0.1022822135
H   H127      1.0  0.22200  0.83740  0.35210  1.0000 0.1022822135
H   H128      1.0  0.77800  0.33740  0.14790  1.0000 0.1022822135
H   H129      1.0  0.75840  0.14400  0.59290  1.0000 0.1198274874
H   H130      1.0  0.24160  0.64400  0.90710  1.0000 0.1198274874
H   H131      1.0  0.24160  0.85600  0.40710  1.0000 0.1198274874
H   H132      1.0  0.75840  0.35600  0.09290  1.0000 0.1198274874
H   H133      1.0  0.67700  0.21390  0.95330  1.0000 0.2791550768
H   H134      1.0  0.62680  0.13880  0.91100  1.0000 0.2662365375
H   H135      1.0  0.56910  0.14660  0.99030  1.0000 0.1297319757
H   H136      1.0  0.62250  0.03360  0.97550  1.0000 0.1107142929
H   H137      1.0  0.50980  0.07010  0.94410  1.0000 0.1198274874
H   H138      1.0  0.48180  0.25320  0.89400  1.0000 0.1437686695
H   H139      1.0  0.57620  0.33110  0.89270  1.0000 0.1297319757
H   H140      1.0  0.54150  0.33740  0.93780  1.0000 0.1297319757
H   H141      1.0  0.32300  0.71390  0.54670  1.0000 0.2791550768
H   H142      1.0  0.37320  0.63880  0.58900  1.0000 0.2662365375
H   H143      1.0  0.43090  0.64660  0.50970  1.0000 0.1297319757
H   H144      1.0  0.37750  0.53360  0.52450  1.0000 0.1198274874
H   H145      1.0  0.49020  0.57010  0.55590  1.0000 0.1297319757
H   H146      1.0  0.51820  0.75320  0.60600  1.0000 0.1437686695
H   H147      1.0  0.42380  0.83110  0.60730  1.0000 0.1297319757
H   H148      1.0  0.45850  0.83740  0.56220  1.0000 0.1297319757
H   H149      1.0  0.32300  0.78610  0.04670  1.0000 0.2791550768
H   H150      1.0  0.37320  0.86120  0.08900  1.0000 0.2662365375
H   H151      1.0  0.43090  0.85340  0.00970  1.0000 0.1297319757
H   H152      1.0  0.37750  0.96640  0.02450  1.0000 0.1198274874
H   H153      1.0  0.49020  0.92990  0.05590  1.0000 0.1297319757
H   H154      1.0  0.51820  0.74680  0.10600  1.0000 0.1437686695
H   H155      1.0  0.42380  0.66890  0.10730  1.0000 0.1297319757
H   H156      1.0  0.45850  0.66260  0.06220  1.0000 0.1297319757
H   H157      1.0  0.67700  0.28610  0.45330  1.0000 0.2791550768
H   H158      1.0  0.62680  0.36120  0.41100  1.0000 0.2662365375
H   H159      1.0  0.56910  0.35340  0.49030  1.0000 0.1297319757
H   H160      1.0  0.62250  0.46640  0.47550  1.0000 0.1198274874
H   H161      1.0  0.50980  0.42990  0.44410  1.0000 0.1198274874
H   H162      1.0  0.48180  0.24680  0.39400  1.0000 0.1437686695
H   H163      1.0  0.57620  0.16890  0.39270  1.0000 0.1297319757
H   H164      1.0  0.54150  0.16260  0.43780  1.0000 0.1297319757
C   C1        1.0  0.67570  0.26470  0.81350  1.0000 0.612206803
C   C2        1.0  0.32430  0.76470  0.68650  1.0000 0.612206803
C   C3        1.0  0.32430  0.73530  0.18650  1.0000 0.612206803
C   C4        1.0  0.67570  0.23530  0.31350  1.0000 0.612206803
C   C5        1.0  0.58260  0.21490  0.77590  1.0000 -0.3484220194
C   C6        1.0  0.41740  0.71490  0.72410  1.0000 -0.3484220194
C   C7        1.0  0.41740  0.78510  0.22410  1.0000 -0.3484220194
C   C8        1.0  0.58260  0.28510  0.27590  1.0000 -0.3484220194
C   C9        1.0  0.49720  0.31440  0.76300  1.0000 -0.1264940786
C   C10       1.0  0.50280  0.81440  0.73700  1.0000 -0.1264940786
C   C11       1.0  0.50280  0.68560  0.23700  1.0000 -0.1264940786
C   C12       1.0  0.49720  0.18560  0.26300  1.0000 -0.1264940786
C   C13       1.0  0.39090  0.26440  0.73320  1.0000 -0.171594164
C   C14       1.0  0.60910  0.76440  0.76680  1.0000 -0.171594164
C   C15       1.0  0.60910  0.73560  0.26680  1.0000 -0.171594164
C   C16       1.0  0.39090  0.23560  0.23320  1.0000 -0.171594164
C   C17       1.0  0.30710  0.36380  0.71880  1.0000 -0.171594164
C   C18       1.0  0.69290  0.86380  0.78120  1.0000 -0.171594164
C   C19       1.0  0.69290  0.63620  0.28120  1.0000 -0.171594164
C   C20       1.0  0.30710  0.13620  0.21880  1.0000 -0.171594164
C   C21       1.0  0.19930  0.31380  0.69240  1.0000 -0.171594164
C   C22       1.0  0.80070  0.81380  0.80760  1.0000 -0.171594164
C   C23       1.0  0.80070  0.68620  0.30760  1.0000 -0.171594164
C   C24       1.0  0.19930  0.18620  0.19240  1.0000 -0.171594164
C   C25       1.0  0.15830  0.22840  0.72210  1.0000 -0.119717172
C   C26       1.0  0.84170  0.72840  0.77790  1.0000 -0.119717172
C   C27       1.0  0.84170  0.77160  0.27790  1.0000 -0.119717172
C   C28       1.0  0.15830  0.27160  0.22210  1.0000 -0.119717172
C   C29       1.0  0.04730  0.18890  0.69440  1.0000 -0.3773643064
C   C30       1.0  0.95270  0.68890  0.80560  1.0000 -0.3773643064
C   C31       1.0  0.95270  0.81110  0.30560  1.0000 -0.3773643064
C   C32       1.0  0.04730  0.31110  0.19440  1.0000 -0.3773643064
C   C33       1.0  0.03930  0.12150  0.65090  1.0000 0.6721646501
C   C34       1.0  0.96070  0.62150  0.84910  1.0000 0.6721646501
C   C35       1.0  0.96070  0.87850  0.34910  1.0000 0.6721646501
C   C36       1.0  0.03930  0.37850  0.15090  1.0000 0.6721646501
C   C37       1.0  0.82690  0.34970  0.57870  1.0000 0.5427663637
C   C38       1.0  0.17310  0.84970  0.92130  1.0000 0.5427663637
C   C39       1.0  0.17310  0.65030  0.42130  1.0000 0.5427663637
C   C40       1.0  0.82690  0.15030  0.07870  1.0000 0.5427663637
C   C41       1.0  0.81930  0.40490  0.65380  1.0000 0.0921186082
C   C42       1.0  0.18070  0.90490  0.84620  1.0000 0.0921186082
C   C43       1.0  0.18070  0.59510  0.34620  1.0000 0.0921186082
C   C44       1.0  0.81930  0.09510  0.15380  1.0000 0.0921186082
C   C45       1.0  0.87710  0.50660  0.63580  1.0000 0.1107142929
C   C46       1.0  0.12290  0.00660  0.86420  1.0000 0.1107142929
C   C47       1.0  0.12290  0.49340  0.36420  1.0000 0.1107142929
C   C48       1.0  0.87710  0.99340  0.13580  1.0000 0.1107142929
C   C49       1.0  0.73410  0.59210  0.64980  1.0000 0.5109283341
C   C50       1.0  0.26590  0.09210  0.85020  1.0000 0.5109283341
C   C51       1.0  0.26590  0.40790  0.35020  1.0000 0.5109283341
C   C52       1.0  0.73410  0.90790  0.14980  1.0000 0.5109283341
C   C53       1.0  0.92420  0.51610  0.55750  1.0000 0.0297369219
C   C54       1.0  0.07580  0.01610  0.94250  1.0000 0.0297369219
C   C55       1.0  0.07580  0.48390  0.44250  1.0000 0.0297369219
C   C56       1.0  0.92420  0.98390  0.05750  1.0000 0.0297369219
C   C57       1.0  0.83610  0.73610  0.61840  1.0000 0.0297369219
C   C58       1.0  0.16390  0.23610  0.88160  1.0000 0.0297369219
C   C59       1.0  0.16390  0.26390  0.38160  1.0000 0.0297369219
C   C60       1.0  0.83610  0.76390  0.11840  1.0000 0.0297369219
C   C61       1.0  0.80100  0.57010  0.47620  1.0000 0.5282031807
C   C62       1.0  0.19900  0.07010  0.02380  1.0000 0.5282031807
C   C63       1.0  0.19900  0.42990  0.52380  1.0000 0.5282031807
C   C64       1.0  0.80100  0.92990  0.97620  1.0000 0.5282031807
C   C65       1.0  0.84320  0.73090  0.53320  1.0000 0.1107142929
C   C66       1.0  0.15680  0.23090  0.96680  1.0000 0.1107142929
C   C67       1.0  0.15680  0.26910  0.46680  1.0000 0.1107142929
C   C68       1.0  0.84320  0.76910  0.03320  1.0000 0.1107142929
C   C69       1.0  0.76670  0.77940  0.48490  1.0000 0.1022822135
C   C70       1.0  0.23330  0.27940  0.01510  1.0000 0.1022822135
C   C71       1.0  0.23330  0.22060  0.51510  1.0000 0.1107142929
C   C72       1.0  0.76670  0.72060  0.98490  1.0000 0.1022822135
C   C73       1.0  0.70280  0.82300  0.54660  1.0000 0.5282031807
C   C74       1.0  0.29720  0.32300  0.95340  1.0000 0.5282031807
C   C75       1.0  0.29720  0.17700  0.45340  1.0000 0.5282031807
C   C76       1.0  0.70280  0.67700  0.04660  1.0000 0.5282031807
C   C77       1.0  0.69030  0.68100  0.40300  1.0000 0.0297369219
C   C78       1.0  0.30970  0.18100  0.09700  1.0000 0.0297369219
C   C79       1.0  0.30970  0.31900  0.59700  1.0000 0.0297369219
C   C80       1.0  0.69030  0.81900  0.90300  1.0000 0.0297369219
C   C81       1.0  0.61210  0.91490  0.46750  1.0000 0.0297369219
C   C82       1.0  0.38790  0.41490  0.03250  1.0000 0.0297369219
C   C83       1.0  0.38790  0.08510  0.53250  1.0000 0.0297369219
C   C84       1.0  0.61210  0.58510  0.96750  1.0000 0.0297369219
C   C85       1.0  0.51500  0.60380  0.36250  1.0000 0.5189916802
C   C86       1.0  0.48500  0.10380  0.13750  1.0000 0.5189916802
C   C87       1.0  0.48500  0.39620  0.63750  1.0000 0.5189916802
C   C88       1.0  0.51500  0.89620  0.86250  1.0000 0.5189916802
C   C89       1.0  0.52740  0.81190  0.38570  1.0000 0.1022822135
C   C90       1.0  0.47260  0.31190  0.11430  1.0000 0.1022822135
C   C91       1.0  0.47260  0.18810  0.61430  1.0000 0.1022822135
C   C92       1.0  0.52740  0.68810  0.88570  1.0000 0.1022822135
C   C93       1.0  0.41200  0.77940  0.35750  1.0000 0.1022822135
C   C94       1.0  0.58800  0.27940  0.14250  1.0000 0.1022822135
C   C95       1.0  0.58800  0.22060  0.64250  1.0000 0.1022822135
C   C96       1.0  0.41200  0.72060  0.85750  1.0000 0.1022822135
C   C97       1.0  0.43260  0.83770  0.43650  1.0000 0.5282031807
C   C98       1.0  0.56740  0.33770  0.06350  1.0000 0.5282031807
C   C99       1.0  0.56740  0.16230  0.56350  1.0000 0.5282031807
C   C100      1.0  0.43260  0.66230  0.93650  1.0000 0.5282031807
C   C101      1.0  0.67070  0.41990  0.68610  1.0000 0.0297369219
C   C102      1.0  0.32930  0.91990  0.81390  1.0000 0.0297369219
C   C103      1.0  0.32930  0.58010  0.31390  1.0000 0.0297369219
C   C104      1.0  0.67070  0.08010  0.18610  1.0000 0.0297369219
C   C105      1.0  0.74620  0.19890  0.61630  1.0000 0.0297369219
C   C106      1.0  0.25380  0.69890  0.88370  1.0000 0.0297369219
C   C107      1.0  0.25380  0.80110  0.38370  1.0000 0.0297369219
C   C108      1.0  0.74620  0.30110  0.11630  1.0000 0.0297369219
C   C109      1.0  0.57580  0.10130  0.96360  1.0000 -0.2768826993
C   C110      1.0  0.54820  0.28480  0.91290  1.0000 -0.290282874
C   C111      1.0  0.42420  0.60130  0.53640  1.0000 -0.2768826993
C   C112      1.0  0.45180  0.78480  0.58710  1.0000 -0.290282874
C   C113      1.0  0.42420  0.89870  0.03640  1.0000 -0.2768826993
C   C114      1.0  0.45180  0.71520  0.08710  1.0000 -0.290282874
C   C115      1.0  0.57580  0.39870  0.46360  1.0000 -0.2768826993
C   C116      1.0  0.54820  0.21520  0.41290  1.0000 -0.290282874
N   N1        1.0  0.79380  0.31490  0.61490  1.0000 -0.2204892255
N   N2        1.0  0.20620  0.81490  0.88510  1.0000 -0.2204892255
N   N3        1.0  0.20620  0.68510  0.38510  1.0000 -0.2204892255
N   N4        1.0  0.79380  0.18510  0.11490  1.0000 -0.2204892255
N   N5        1.0  0.87470  0.45980  0.58940  1.0000 -0.2204892255
N   N6        1.0  0.12530  0.95980  0.91060  1.0000 -0.2204892255
N   N7        1.0  0.12530  0.54020  0.41060  1.0000 -0.2204892255
N   N8        1.0  0.87470  0.04020  0.08940  1.0000 -0.2204892255
N   N9        1.0  0.81530  0.61470  0.63400  1.0000 -0.2298911566
N   N10       1.0  0.18470  0.11470  0.86600  1.0000 -0.2298911566
N   N11       1.0  0.18470  0.38530  0.36600  1.0000 -0.2298911566
N   N12       1.0  0.81530  0.88530  0.13400  1.0000 -0.2298911566
N   N13       1.0  0.73240  0.46930  0.65890  1.0000 -0.2298911566
N   N14       1.0  0.26760  0.96930  0.84110  1.0000 -0.2298911566
N   N15       1.0  0.26760  0.53070  0.34110  1.0000 -0.2298911566
N   N16       1.0  0.73240  0.03070  0.15890  1.0000 -0.2298911566
N   N17       1.0  0.85250  0.60130  0.52330  1.0000 -0.2298911566
N   N18       1.0  0.14750  0.10130  0.97670  1.0000 -0.2298911566
N   N19       1.0  0.14750  0.39870  0.47670  1.0000 -0.2298911566
N   N20       1.0  0.85250  0.89870  0.02330  1.0000 -0.2298911566
N   N21       1.0  0.74340  0.66800  0.45450  1.0000 -0.2030452291
N   N22       1.0  0.25660  0.16800  0.04550  1.0000 -0.2030452291
N   N23       1.0  0.25660  0.33200  0.54550  1.0000 -0.2030452291
N   N24       1.0  0.74340  0.83200  0.95450  1.0000 -0.2030452291
N   N25       1.0  0.68160  0.82570  0.49790  1.0000 -0.2298911566
N   N26       1.0  0.31840  0.32570  0.00210  1.0000 -0.2298911566
N   N27       1.0  0.31840  0.17430  0.50210  1.0000 -0.2298911566
N   N28       1.0  0.68160  0.67430  0.99790  1.0000 -0.2298911566
N   N29       1.0  0.79040  0.75450  0.56720  1.0000 -0.2204892255
N   N30       1.0  0.20960  0.25450  0.93280  1.0000 -0.2298911566
N   N31       1.0  0.20960  0.24550  0.43280  1.0000 -0.2204892255
N   N32       1.0  0.79040  0.74550  0.06720  1.0000 -0.2204892255
N   N33       1.0  0.57760  0.69350  0.38830  1.0000 -0.2204892255
N   N34       1.0  0.42240  0.19350  0.11170  1.0000 -0.2204892255
N   N35       1.0  0.42240  0.30650  0.61170  1.0000 -0.2204892255
N   N36       1.0  0.57760  0.80650  0.88830  1.0000 -0.2204892255
N   N37       1.0  0.41780  0.65270  0.34250  1.0000 -0.2481194722
N   N38       1.0  0.58220  0.15270  0.15750  1.0000 -0.2481194722
N   N39       1.0  0.58220  0.34730  0.65750  1.0000 -0.2481194722
N   N40       1.0  0.41780  0.84730  0.84250  1.0000 -0.2481194722
N   N41       1.0  0.36560  0.79170  0.39400  1.0000 -0.2376292633
N   N42       1.0  0.63440  0.29170  0.10600  1.0000 -0.2298911566
N   N43       1.0  0.63440  0.20830  0.60600  1.0000 -0.2376292633
N   N44       1.0  0.36560  0.70830  0.89400  1.0000 -0.2376292633
N   N45       1.0  0.52430  0.85910  0.42990  1.0000 -0.2071953515
N   N46       1.0  0.47570  0.35910  0.07010  1.0000 -0.2071953515
N   N47       1.0  0.47570  0.14090  0.57010  1.0000 -0.2071953515
N   N48       1.0  0.52430  0.64090  0.92990  1.0000 -0.2071953515
N   N49       1.0  0.61600  0.18340  0.93450  1.0000 -0.0883959743
N   N50       1.0  0.38400  0.68340  0.56550  1.0000 -0.0883959743
N   N51       1.0  0.38400  0.81660  0.06550  1.0000 -0.0883959743
N   N52       1.0  0.61600  0.31660  0.43450  1.0000 -0.0883959743
O   O1        1.0  0.02510  0.23740  0.52560  1.0000 -0.7222301277
O   O2        1.0  0.97490  0.73740  0.97440  1.0000 -0.7222301277
O   O3        1.0  0.97490  0.76260  0.47440  1.0000 -0.7222301277
O   O4        1.0  0.02510  0.26260  0.02560  1.0000 -0.7222301277
O   O5        1.0  0.83710  0.01450  0.52610  1.0000 -0.7012810546
O   O6        1.0  0.16290  0.51450  0.97390  1.0000 -0.7012810546
O   O7        1.0  0.16290  0.98550  0.47390  1.0000 -0.7012810546
O   O8        1.0  0.83710  0.48550  0.02610  1.0000 -0.7012810546
O   O9        1.0  0.92490  0.23040  0.38530  1.0000 -0.727392851
O   O10       1.0  0.07510  0.73040  0.11470  1.0000 -0.727392851
O   O11       1.0  0.07510  0.76960  0.61470  1.0000 -0.727392851
O   O12       1.0  0.92490  0.26960  0.88530  1.0000 -0.727392851
O   O13       1.0  0.74000  0.00250  0.38800  1.0000 -0.7222301277
O   O14       1.0  0.26000  0.50250  0.11200  1.0000 -0.7222301277
O   O15       1.0  0.26000  0.99750  0.61200  1.0000 -0.7222301277
O   O16       1.0  0.74000  0.49750  0.88800  1.0000 -0.7222301277
O   O17       1.0  0.94620  0.02870  0.45360  1.0000 -1.1574922788
O   O18       1.0  0.05380  0.52870  0.04640  1.0000 -1.1574922788
O   O19       1.0  0.05380  0.97130  0.54640  1.0000 -1.1574922788
O   O20       1.0  0.94620  0.47130  0.95360  1.0000 -1.1574922788
O   O21       1.0  0.81660  0.21550  0.45410  1.0000 -0.9671092617
O   O22       1.0  0.18340  0.71550  0.04590  1.0000 -0.9671092617
O   O23       1.0  0.18340  0.78450  0.54590  1.0000 -0.9671092617
O   O24       1.0  0.81660  0.28450  0.95410  1.0000 -0.9671092617
O   O25       1.0  0.69770  0.23390  0.85640  1.0000 -0.5789087998
O   O26       1.0  0.30230  0.73390  0.64360  1.0000 -0.5789087998
O   O27       1.0  0.30230  0.76610  0.14360  1.0000 -0.5789087998
O   O28       1.0  0.69770  0.26610  0.35640  1.0000 -0.5789087998
O   O29       1.0  0.73530  0.34000  0.80160  1.0000 -0.6421046543
O   O30       1.0  0.26470  0.84000  0.69840  1.0000 -0.6421046543
O   O31       1.0  0.26470  0.66000  0.19840  1.0000 -0.6421046543
O   O32       1.0  0.73530  0.16000  0.30160  1.0000 -0.6421046543
O   O33       1.0  0.98400  0.15210  0.61010  1.0000 -0.6234329628
O   O34       1.0  0.01600  0.65210  0.88990  1.0000 -0.6234329628
O   O35       1.0  0.01600  0.84790  0.38990  1.0000 -0.6234329628
O   O36       1.0  0.98400  0.34790  0.11010  1.0000 -0.6234329628
O   O37       1.0  0.09280  0.01910  0.65590  1.0000 -0.6587365555
O   O38       1.0  0.90720  0.51910  0.84410  1.0000 -0.6587365555
O   O39       1.0  0.90720  0.98090  0.34410  1.0000 -0.6587365555
O   O40       1.0  0.09280  0.48090  0.15590  1.0000 -0.6587365555
O   O41       1.0  0.82050  0.28440  0.54320  1.0000 -0.6021988677
O   O42       1.0  0.17950  0.78440  0.95680  1.0000 -0.6021988677
O   O43       1.0  0.17950  0.71560  0.45680  1.0000 -0.6021988677
O   O44       1.0  0.82050  0.21560  0.04320  1.0000 -0.6021988677
O   O45       1.0  0.67670  0.67070  0.65640  1.0000 -0.5198526767
O   O46       1.0  0.32330  0.17070  0.84360  1.0000 -0.5198526767
O   O47       1.0  0.32330  0.32930  0.34360  1.0000 -0.5198526767
O   O48       1.0  0.67670  0.82930  0.15640  1.0000 -0.5198526767
O   O49       1.0  0.80460  0.47210  0.45630  1.0000 -0.5198526767
O   O50       1.0  0.19540  0.97210  0.04370  1.0000 -0.5198526767
O   O51       1.0  0.19540  0.52790  0.54370  1.0000 -0.5198526767
O   O52       1.0  0.80460  0.02790  0.95630  1.0000 -0.5198526767
O   O53       1.0  0.65130  0.87080  0.56760  1.0000 -0.5088731634
O   O54       1.0  0.34870  0.37080  0.93240  1.0000 -0.5088731634
O   O55       1.0  0.34870  0.12920  0.43240  1.0000 -0.5088731634
O   O56       1.0  0.65130  0.62920  0.06760  1.0000 -0.5088731634
O   O57       1.0  0.54020  0.49720  0.35670  1.0000 -0.5198526767
O   O58       1.0  0.45980  0.99720  0.14330  1.0000 -0.5198526767
O   O59       1.0  0.45980  0.50280  0.64330  1.0000 -0.5198526767
O   O60       1.0  0.54020  0.00280  0.85670  1.0000 -0.5198526767
O   O61       1.0  0.41370  0.85620  0.47310  1.0000 -0.497236936
O   O62       1.0  0.58630  0.35620  0.02690  1.0000 -0.497236936
O   O63       1.0  0.58630  0.14380  0.52690  1.0000 -0.497236936
O   O64       1.0  0.41370  0.64380  0.97310  1.0000 -0.497236936
