# DDEC6 charges by PACMAN v1.1 (https://github.com/mtap-research/PACMAN-charge/)
data_2011[U][nan]3[ION]1
_chemical_formula_sum              "U8 H24 C40 N4 O56"
_cell_length_a       9.1844
_cell_length_b       21.615
_cell_length_c       11.5401
_cell_angle_alpha    90
_cell_angle_beta     112.701
_cell_angle_gamma    90

_symmetry_space_group_name_H-M    "P 1"
_symmetry_Int_Tables_number       1

loop_
  _symmetry_equiv_pos_as_xyz
  'x, y, z'

loop_
  _atom_site_type_symbol
  _atom_site_label
  _atom_site_symmetry_multiplicity
  _atom_site_fract_x
  _atom_site_fract_y
  _atom_site_fract_z
  _atom_site_occupancy
  _atom_site_charge
U   U1        1.0  0.25388  0.24934  0.25795  1.0000 2.3300730338
U   U2        1.0  0.55603  0.99537  0.37873  1.0000 2.4930257549
U   U3        1.0  0.25455  0.74922  0.24363  1.0000 2.3300730338
U   U4        1.0  0.95213  0.49544  0.12270  1.0000 2.4930257549
U   U5        1.0  0.75461  0.75181  0.74373  1.0000 2.3300730338
U   U6        1.0  0.45242  0.00576  0.62279  1.0000 2.4930257549
U   U7        1.0  0.75395  0.25197  0.75803  1.0000 2.3300730338
U   U8        1.0  0.05613  0.50580  0.87879  1.0000 2.4930257549
H   H1        1.0  0.89152  0.32671  0.42019  1.0000 0.1290849174
H   H2        1.0  0.61500  0.17238  0.09464  1.0000 0.1290849174
H   H3        1.0  0.61684  0.82662  0.08143  1.0000 0.1233805766
H   H4        1.0  0.89377  0.67241  0.40717  1.0000 0.1290849174
H   H5        1.0  0.11695  0.67447  0.58141  1.0000 0.1233805766
H   H6        1.0  0.39374  0.82873  0.90706  1.0000 0.1290849174
H   H7        1.0  0.39216  0.17472  0.92039  1.0000 0.1290849174
H   H8        1.0  0.11450  0.32868  0.59440  1.0000 0.1290849174
H   H9        1.0  0.57449  0.40259  0.18223  1.0000 0.3169841717
H   H10       1.0  0.47430  0.44043  0.25819  1.0000 0.3468898485
H   H11       1.0  0.60989  0.47906  0.21820  1.0000 0.3314562415
H   H12       1.0  0.49278  0.56083  0.68359  1.0000 0.3401056876
H   H13       1.0  0.29444  0.56380  0.64692  1.0000 0.3096554806
H   H14       1.0  0.42275  0.58647  0.79207  1.0000 0.3169841717
H   H15       1.0  0.06624  0.10300  0.66624  1.0000 0.3096554806
H   H16       1.0  0.97128  0.06590  0.74727  1.0000 0.3468898485
H   H17       1.0  0.16734  0.08238  0.81925  1.0000 0.3096554806
H   H18       1.0  0.02231  0.93733  0.23061  1.0000 0.3468898485
H   H19       1.0  0.90554  0.97983  0.28477  1.0000 0.3314562415
H   H20       1.0  0.93166  0.90275  0.31770  1.0000 0.3169841717
H   H21       1.0  0.40742  0.51016  0.75153  1.0000 0.3314562415
H   H22       1.0  0.67036  0.42497  0.33477  1.0000 0.3096554806
H   H23       1.0  0.10494  0.02694  0.70553  1.0000 0.3314562415
H   H24       1.0  0.82291  0.92681  0.16827  1.0000 0.3096554806
C   C1        1.0  0.74024  0.24632  0.51096  1.0000 0.5339478363
C   C2        1.0  0.76503  0.25441  0.00441  1.0000 0.547916006
C   C3        1.0  0.95447  0.34806  0.21511  1.0000 0.6695598116
C   C4        1.0  0.55218  0.15013  0.29936  1.0000 0.5339478363
C   C5        1.0  0.74029  0.24578  0.37869  1.0000 0.0217915066
C   C6        1.0  0.76561  0.25341  0.13671  1.0000 0.0217915066
C   C7        1.0  0.65447  0.20242  0.28181  1.0000 -0.0467170216
C   C8        1.0  0.85230  0.29623  0.23377  1.0000 -0.0409201908
C   C9        1.0  0.83265  0.29224  0.34996  1.0000 -0.1023359497
C   C10       1.0  0.67385  0.20668  0.16533  1.0000 -0.0866313881
C   C11       1.0  0.76836  0.74625  0.99078  1.0000 0.5375001778
C   C12       1.0  0.74340  0.75431  0.49732  1.0000 0.547916006
C   C13       1.0  0.55375  0.84796  0.28648  1.0000 0.6695598116
C   C14       1.0  0.95627  0.65011  0.20235  1.0000 0.547916006
C   C15       1.0  0.76826  0.74573  0.12302  1.0000 0.0217915066
C   C16       1.0  0.74290  0.75337  0.36501  1.0000 0.0217915066
C   C17       1.0  0.85418  0.70243  0.21998  1.0000 -0.0409201908
C   C18       1.0  0.65600  0.79614  0.26786  1.0000 -0.0409201908
C   C19       1.0  0.67572  0.79215  0.15168  1.0000 -0.1023359497
C   C20       1.0  0.83486  0.70670  0.33646  1.0000 -0.0866313881
C   C21       1.0  0.26838  0.75485  0.49073  1.0000 0.5339478363
C   C22       1.0  0.24348  0.74678  0.99724  1.0000 0.547916006
C   C23       1.0  0.05397  0.65312  0.78646  1.0000 0.6695598116
C   C24       1.0  0.45631  0.85104  0.70229  1.0000 0.5375001778
C   C25       1.0  0.26829  0.75539  0.62298  1.0000 0.0256829908
C   C26       1.0  0.24292  0.74775  0.86493  1.0000 0.0217915066
C   C27       1.0  0.35410  0.79874  0.71987  1.0000 -0.0467170216
C   C28       1.0  0.15618  0.70494  0.76785  1.0000 -0.0409201908
C   C29       1.0  0.17589  0.70893  0.65168  1.0000 -0.1023359497
C   C30       1.0  0.33478  0.79445  0.83635  1.0000 -0.0866313881
C   C31       1.0  0.24039  0.25502  0.01095  1.0000 0.5339478363
C   C32       1.0  0.26485  0.24679  0.50429  1.0000 0.547916006
C   C33       1.0  0.45477  0.15321  0.71514  1.0000 0.6695598116
C   C34       1.0  0.05217  0.35110  0.79925  1.0000 0.5339478363
C   C35       1.0  0.24051  0.25554  0.87871  1.0000 0.0217915066
C   C36       1.0  0.26547  0.24776  0.63662  1.0000 0.0217915066
C   C37       1.0  0.15438  0.29879  0.78169  1.0000 -0.0467170216
C   C38       1.0  0.35254  0.20505  0.73379  1.0000 -0.0409201908
C   C39       1.0  0.33311  0.20913  0.85008  1.0000 -0.1058238397
C   C40       1.0  0.17353  0.29444  0.66514  1.0000 -0.0866313881
N   N1        1.0  0.58230  0.43676  0.24836  1.0000 -0.6310176501
N   N2        1.0  0.92054  0.93666  0.25033  1.0000 -0.6353589246
N   N3        1.0  0.40430  0.55533  0.71854  1.0000 -0.6310176501
N   N4        1.0  0.07748  0.06957  0.73454  1.0000 -0.6353589246
O   O1        1.0  0.63111  0.04846  0.24770  1.0000 -0.239378641
O   O2        1.0  0.09209  0.33615  0.21027  1.0000 -0.5701274226
O   O3        1.0  0.41493  0.16210  0.30493  1.0000 -0.5640017042
O   O4        1.0  0.04956  0.18555  0.19700  1.0000 -0.6496305863
O   O5        1.0  0.45793  0.31308  0.31906  1.0000 -0.6980463812
O   O6        1.0  0.69322  0.21750  0.91921  1.0000 -0.4484837415
O   O7        1.0  0.60269  0.09110  0.29810  1.0000 -0.1338133464
O   O8        1.0  0.90126  0.40543  0.20828  1.0000 -0.6597515891
O   O9        1.0  0.67286  0.21097  0.55965  1.0000 -0.4073514516
O   O10       1.0  0.80542  0.99381  0.51328  1.0000 -0.7473296771
O   O11       1.0  0.81214  0.28413  0.59434  1.0000 -0.4484837415
O   O12       1.0  0.30671  0.99687  0.24382  1.0000 -0.8092310081
O   O13       1.0  0.83238  0.29075  0.95758  1.0000 -0.4073514516
O   O14       1.0  0.49672  0.93305  0.50624  1.0000 -1.036633417
O   O15       1.0  0.87677  0.54852  0.25359  1.0000 -0.239378641
O   O16       1.0  0.41617  0.83604  0.29133  1.0000 -0.5701274226
O   O17       1.0  0.09356  0.66200  0.19681  1.0000 -0.5640017042
O   O18       1.0  0.45904  0.68552  0.30454  1.0000 -0.6496305863
O   O19       1.0  0.05043  0.81291  0.18258  1.0000 -0.6879151116
O   O20       1.0  0.81553  0.71748  0.58256  1.0000 -0.4484837415
O   O21       1.0  0.90554  0.59111  0.20347  1.0000 -0.1504544715
O   O22       1.0  0.60676  0.90534  0.29315  1.0000 -0.6597515891
O   O23       1.0  0.83615  0.71099  0.94225  1.0000 -0.4073514516
O   O24       1.0  0.70288  0.49409  0.98755  1.0000 -0.7349266658
O   O25       1.0  0.69616  0.78395  0.90729  1.0000 -0.4484837415
O   O26       1.0  0.20121  0.49678  0.25808  1.0000 -0.798635001
O   O27       1.0  0.67567  0.79052  0.54406  1.0000 -0.4073514516
O   O28       1.0  0.01171  0.43311  0.99536  1.0000 -1.0312804828
O   O29       1.0  0.37690  0.95269  0.75361  1.0000 -0.239378641
O   O30       1.0  0.91638  0.66502  0.79134  1.0000 -0.5701274226
O   O31       1.0  0.59360  0.83907  0.69675  1.0000 -0.5640017042
O   O32       1.0  0.95898  0.81556  0.80439  1.0000 -0.6496305863
O   O33       1.0  0.55052  0.68806  0.68303  1.0000 -0.6813267122
O   O34       1.0  0.31542  0.78364  0.08246  1.0000 -0.4484837415
O   O35       1.0  0.40571  0.91006  0.70343  1.0000 -0.1338133464
O   O36       1.0  0.10707  0.59576  0.79317  1.0000 -0.6597515891
O   O37       1.0  0.33586  0.79016  0.44205  1.0000 -0.4073514516
O   O38       1.0  0.20315  0.00726  0.48787  1.0000 -0.7437377224
O   O39       1.0  0.19628  0.71710  0.40730  1.0000 -0.4484837415
O   O40       1.0  0.70163  0.00427  0.75798  1.0000 -0.8092310081
O   O41       1.0  0.17594  0.71049  0.04400  1.0000 -0.4073514516
O   O42       1.0  0.51197  0.06808  0.49542  1.0000 -1.036633417
O   O43       1.0  0.13094  0.45276  0.74759  1.0000 -0.239378641
O   O44       1.0  0.59235  0.16513  0.71031  1.0000 -0.5701274226
O   O45       1.0  0.91492  0.33918  0.80484  1.0000 -0.5640017042
O   O46       1.0  0.54937  0.31564  0.69702  1.0000 -0.6496305863
O   O47       1.0  0.95822  0.18838  0.81925  1.0000 -0.6980463812
O   O48       1.0  0.19256  0.28357  0.41900  1.0000 -0.4484837415
O   O49       1.0  0.10269  0.41012  0.79797  1.0000 -0.1439253191
O   O50       1.0  0.40169  0.09583  0.70836  1.0000 -0.6597515891
O   O51       1.0  0.17241  0.29021  0.05947  1.0000 -0.4073514516
O   O52       1.0  0.30557  0.50724  0.01335  1.0000 -0.7349266658
O   O53       1.0  0.31274  0.21735  0.09450  1.0000 -0.4484837415
O   O54       1.0  0.80672  0.50450  0.74392  1.0000 -0.798635001
O   O55       1.0  0.33277  0.21062  0.45762  1.0000 -0.4073514516
O   O56       1.0  0.99702  0.56813  0.00639  1.0000 -1.036633417
