# DDEC6 charges by PACMAN v1.1 (https://github.com/mtap-research/PACMAN-charge/)
data_2011[Mn][nan]3[ION]1
_chemical_formula_sum              "Mn12 H128 C152 N8 O64"
_cell_length_a       10.7616
_cell_length_b       16.2417
_cell_length_c       25.6486
_cell_angle_alpha    90
_cell_angle_beta     90
_cell_angle_gamma    90

_symmetry_space_group_name_H-M    "P 1"
_symmetry_Int_Tables_number       1

loop_
  _symmetry_equiv_pos_as_xyz
  'x, y, z'

loop_
  _atom_site_type_symbol
  _atom_site_label
  _atom_site_symmetry_multiplicity
  _atom_site_fract_x
  _atom_site_fract_y
  _atom_site_fract_z
  _atom_site_occupancy
  _atom_site_charge
Mn  Mn1       1.0  0.65223  0.93183  0.38048  1.0000 0.9637659093
Mn  Mn2       1.0  0.34777  0.56817  0.88048  1.0000 0.9637659093
Mn  Mn3       1.0  0.15223  0.06817  0.11952  1.0000 0.9637659093
Mn  Mn4       1.0  0.84777  0.43183  0.61952  1.0000 0.9637659093
Mn  Mn5       1.0  0.34777  0.06817  0.61952  1.0000 0.9637659093
Mn  Mn6       1.0  0.65223  0.43183  0.11952  1.0000 0.9637659093
Mn  Mn7       1.0  0.84777  0.93183  0.88048  1.0000 0.9637659093
Mn  Mn8       1.0  0.15223  0.56817  0.38048  1.0000 0.9637659093
Mn  Mn9       1.0  0.50000  0.00000  0.50000  1.0000 1.0915733625
Mn  Mn10      1.0  0.50000  0.50000  0.00000  1.0000 1.0915733625
Mn  Mn11      1.0  0.00000  0.00000  0.00000  1.0000 1.0915733625
Mn  Mn12      1.0  0.00000  0.50000  0.50000  1.0000 1.0915733625
H   H1        1.0  0.74300  0.68580  0.47980  1.0000 0.130218258
H   H2        1.0  0.25700  0.81420  0.97980  1.0000 0.130218258
H   H3        1.0  0.24300  0.31420  0.02020  1.0000 0.130218258
H   H4        1.0  0.75700  0.18580  0.52020  1.0000 0.130218258
H   H5        1.0  0.25700  0.31420  0.52020  1.0000 0.130218258
H   H6        1.0  0.74300  0.18580  0.02020  1.0000 0.130218258
H   H7        1.0  0.75700  0.68580  0.97980  1.0000 0.130218258
H   H8        1.0  0.24300  0.81420  0.47980  1.0000 0.130218258
H   H9        1.0  0.56120  0.62500  0.61280  1.0000 0.130218258
H   H10       1.0  0.43880  0.87500  0.11280  1.0000 0.130218258
H   H11       1.0  0.06120  0.37500  0.88720  1.0000 0.130218258
H   H12       1.0  0.93880  0.12500  0.38720  1.0000 0.130218258
H   H13       1.0  0.43880  0.37500  0.38720  1.0000 0.130218258
H   H14       1.0  0.56120  0.12500  0.88720  1.0000 0.130218258
H   H15       1.0  0.93880  0.62500  0.11280  1.0000 0.130218258
H   H16       1.0  0.06120  0.87500  0.61280  1.0000 0.130218258
H   H17       1.0  0.45920  0.82740  0.53190  1.0000 0.1226115719
H   H18       1.0  0.54080  0.67260  0.03190  1.0000 0.1226115719
H   H19       1.0  0.95920  0.17260  0.96810  1.0000 0.1226115719
H   H20       1.0  0.04080  0.32740  0.46810  1.0000 0.1226115719
H   H21       1.0  0.54080  0.17260  0.46810  1.0000 0.1226115719
H   H22       1.0  0.45920  0.32740  0.96810  1.0000 0.1226115719
H   H23       1.0  0.04080  0.82740  0.03190  1.0000 0.1226115719
H   H24       1.0  0.95920  0.67260  0.53190  1.0000 0.1226115719
H   H25       1.0  0.46720  0.78760  0.65040  1.0000 0.130218258
H   H26       1.0  0.53280  0.71240  0.15040  1.0000 0.130218258
H   H27       1.0  0.96720  0.21240  0.84960  1.0000 0.130218258
H   H28       1.0  0.03280  0.28760  0.34960  1.0000 0.130218258
H   H29       1.0  0.53280  0.21240  0.34960  1.0000 0.130218258
H   H30       1.0  0.46720  0.28760  0.84960  1.0000 0.130218258
H   H31       1.0  0.03280  0.78760  0.15040  1.0000 0.130218258
H   H32       1.0  0.96720  0.71240  0.65040  1.0000 0.130218258
H   H33       1.0  0.35870  0.80280  0.60910  1.0000 0.130218258
H   H34       1.0  0.64130  0.69720  0.10910  1.0000 0.130218258
H   H35       1.0  0.85870  0.19720  0.89090  1.0000 0.130218258
H   H36       1.0  0.14130  0.30280  0.39090  1.0000 0.130218258
H   H37       1.0  0.64130  0.19720  0.39090  1.0000 0.130218258
H   H38       1.0  0.35870  0.30280  0.89090  1.0000 0.130218258
H   H39       1.0  0.14130  0.80280  0.10910  1.0000 0.130218258
H   H40       1.0  0.85870  0.69720  0.60910  1.0000 0.130218258
H   H41       1.0  0.24350  0.65610  0.58580  1.0000 0.1226115719
H   H42       1.0  0.75650  0.84390  0.08580  1.0000 0.1226115719
H   H43       1.0  0.74350  0.34390  0.91420  1.0000 0.1226115719
H   H44       1.0  0.25650  0.15610  0.41420  1.0000 0.1226115719
H   H45       1.0  0.75650  0.34390  0.41420  1.0000 0.1226115719
H   H46       1.0  0.24350  0.15610  0.91420  1.0000 0.1226115719
H   H47       1.0  0.25650  0.65610  0.08580  1.0000 0.1226115719
H   H48       1.0  0.74350  0.84390  0.58580  1.0000 0.1226115719
H   H49       1.0  0.12750  0.54690  0.72000  1.0000 0.130218258
H   H50       1.0  0.87250  0.95310  0.22000  1.0000 0.130218258
H   H51       1.0  0.62750  0.45310  0.78000  1.0000 0.130218258
H   H52       1.0  0.37250  0.04690  0.28000  1.0000 0.130218258
H   H53       1.0  0.87250  0.45310  0.28000  1.0000 0.130218258
H   H54       1.0  0.12750  0.04690  0.78000  1.0000 0.130218258
H   H55       1.0  0.37250  0.54690  0.22000  1.0000 0.130218258
H   H56       1.0  0.62750  0.95310  0.72000  1.0000 0.130218258
H   H57       1.0  0.40570  0.71340  0.72290  1.0000 0.130218258
H   H58       1.0  0.59430  0.78660  0.22290  1.0000 0.130218258
H   H59       1.0  0.90570  0.28660  0.77710  1.0000 0.130218258
H   H60       1.0  0.09430  0.21340  0.27710  1.0000 0.130218258
H   H61       1.0  0.59430  0.28660  0.27710  1.0000 0.130218258
H   H62       1.0  0.40570  0.21340  0.77710  1.0000 0.130218258
H   H63       1.0  0.09430  0.71340  0.22290  1.0000 0.130218258
H   H64       1.0  0.90570  0.78660  0.72290  1.0000 0.130218258
H   H65       1.0  0.06440  0.18110  0.64580  1.0000 0.147082624
H   H66       1.0  0.93220  0.19370  0.61840  1.0000 0.1408625206
H   H67       1.0  0.05360  0.17870  0.58360  1.0000 0.1408625206
H   H68       1.0  0.89700  0.97620  0.58240  1.0000 0.130218258
H   H69       1.0  0.94750  0.04550  0.54350  1.0000 0.1408625206
H   H70       1.0  0.82770  0.06310  0.57870  1.0000 0.147082624
H   H71       1.0  0.06370  0.04130  0.61700  1.0000 0.270649168
H   H72       1.0  0.95290  0.05510  0.65030  1.0000 0.270649168
H   H73       1.0  0.93560  0.31890  0.14580  1.0000 0.147082624
H   H74       1.0  0.06780  0.30630  0.11840  1.0000 0.1408625206
H   H75       1.0  0.94640  0.32130  0.08360  1.0000 0.1408625206
H   H76       1.0  0.10300  0.52380  0.08240  1.0000 0.130218258
H   H77       1.0  0.05250  0.45450  0.04350  1.0000 0.1408625206
H   H78       1.0  0.17230  0.43690  0.07870  1.0000 0.147082624
H   H79       1.0  0.93630  0.45870  0.11700  1.0000 0.270649168
H   H80       1.0  0.04710  0.44490  0.15030  1.0000 0.270649168
H   H81       1.0  0.56440  0.81890  0.85420  1.0000 0.147082624
H   H82       1.0  0.43220  0.80630  0.88160  1.0000 0.1408625206
H   H83       1.0  0.55360  0.82130  0.91640  1.0000 0.1408625206
H   H84       1.0  0.39700  0.02380  0.91760  1.0000 0.130218258
H   H85       1.0  0.44750  0.95450  0.95650  1.0000 0.1408625206
H   H86       1.0  0.32770  0.93690  0.92130  1.0000 0.147082624
H   H87       1.0  0.56370  0.95870  0.88300  1.0000 0.270649168
H   H88       1.0  0.45290  0.94490  0.84970  1.0000 0.270649168
H   H89       1.0  0.43560  0.68110  0.35420  1.0000 0.147082624
H   H90       1.0  0.56780  0.69370  0.38160  1.0000 0.1408625206
H   H91       1.0  0.44640  0.67870  0.41640  1.0000 0.1408625206
H   H92       1.0  0.60300  0.47620  0.41760  1.0000 0.130218258
H   H93       1.0  0.55250  0.54550  0.45650  1.0000 0.1408625206
H   H94       1.0  0.67230  0.56310  0.42130  1.0000 0.147082624
H   H95       1.0  0.43630  0.54130  0.38300  1.0000 0.270649168
H   H96       1.0  0.54710  0.55510  0.34970  1.0000 0.270649168
H   H97       1.0  0.93560  0.81890  0.35420  1.0000 0.147082624
H   H98       1.0  0.06780  0.80630  0.38160  1.0000 0.1408625206
H   H99       1.0  0.94640  0.82130  0.41640  1.0000 0.1408625206
H   H100      1.0  0.10300  0.02380  0.41760  1.0000 0.130218258
H   H101      1.0  0.05250  0.95450  0.45650  1.0000 0.1408625206
H   H102      1.0  0.17230  0.93690  0.42130  1.0000 0.147082624
H   H103      1.0  0.93630  0.95870  0.38300  1.0000 0.270649168
H   H104      1.0  0.04710  0.94490  0.34970  1.0000 0.270649168
H   H105      1.0  0.06440  0.68110  0.85420  1.0000 0.147082624
H   H106      1.0  0.93220  0.69370  0.88160  1.0000 0.1408625206
H   H107      1.0  0.05360  0.67870  0.91640  1.0000 0.1408625206
H   H108      1.0  0.89700  0.47620  0.91760  1.0000 0.130218258
H   H109      1.0  0.94750  0.54550  0.95650  1.0000 0.1408625206
H   H110      1.0  0.82770  0.56310  0.92130  1.0000 0.147082624
H   H111      1.0  0.06370  0.54130  0.88300  1.0000 0.270649168
H   H112      1.0  0.95290  0.55510  0.84970  1.0000 0.270649168
H   H113      1.0  0.43560  0.18110  0.14580  1.0000 0.147082624
H   H114      1.0  0.56780  0.19370  0.11840  1.0000 0.1408625206
H   H115      1.0  0.44640  0.17870  0.08360  1.0000 0.1408625206
H   H116      1.0  0.60300  0.97620  0.08240  1.0000 0.130218258
H   H117      1.0  0.55250  0.04550  0.04350  1.0000 0.1408625206
H   H118      1.0  0.67230  0.06310  0.07870  1.0000 0.147082624
H   H119      1.0  0.43630  0.04130  0.11700  1.0000 0.270649168
H   H120      1.0  0.54710  0.05510  0.15030  1.0000 0.270649168
H   H121      1.0  0.56440  0.31890  0.64580  1.0000 0.147082624
H   H122      1.0  0.43220  0.30630  0.61840  1.0000 0.1408625206
H   H123      1.0  0.55360  0.32130  0.58360  1.0000 0.1408625206
H   H124      1.0  0.39700  0.52380  0.58240  1.0000 0.130218258
H   H125      1.0  0.44750  0.45450  0.54350  1.0000 0.1408625206
H   H126      1.0  0.32770  0.43690  0.57870  1.0000 0.147082624
H   H127      1.0  0.56370  0.45870  0.61700  1.0000 0.270649168
H   H128      1.0  0.45290  0.44490  0.65030  1.0000 0.270649168
C   C1        1.0  0.60500  0.76590  0.49978  1.0000 -0.0140110218
C   C2        1.0  0.39500  0.73410  0.99978  1.0000 -0.0140110218
C   C3        1.0  0.10500  0.23410  0.00022  1.0000 -0.0140110218
C   C4        1.0  0.89500  0.26590  0.50022  1.0000 -0.0140110218
C   C5        1.0  0.39500  0.23410  0.50022  1.0000 -0.0140110218
C   C6        1.0  0.60500  0.26590  0.00022  1.0000 -0.0140110218
C   C7        1.0  0.89500  0.76590  0.99978  1.0000 -0.0140110218
C   C8        1.0  0.10500  0.73410  0.49978  1.0000 -0.0140110218
C   C9        1.0  0.67950  0.69650  0.50461  1.0000 -0.1448277782
C   C10       1.0  0.32050  0.80350  0.00461  1.0000 -0.1448277782
C   C11       1.0  0.17950  0.30350  0.99539  1.0000 -0.1448277782
C   C12       1.0  0.82050  0.19650  0.49539  1.0000 -0.1448277782
C   C13       1.0  0.32050  0.30350  0.49539  1.0000 -0.1448277782
C   C14       1.0  0.67950  0.19650  0.99539  1.0000 -0.1448277782
C   C15       1.0  0.82050  0.69650  0.00461  1.0000 -0.1448277782
C   C16       1.0  0.17950  0.80350  0.50461  1.0000 -0.1448277782
C   C17       1.0  0.66040  0.64250  0.54635  1.0000 -0.0270555156
C   C18       1.0  0.33960  0.85750  0.04635  1.0000 -0.0270555156
C   C19       1.0  0.16040  0.35750  0.95365  1.0000 -0.0270555156
C   C20       1.0  0.83960  0.14250  0.45365  1.0000 -0.0270555156
C   C21       1.0  0.33960  0.35750  0.45365  1.0000 -0.0270555156
C   C22       1.0  0.66040  0.14250  0.95365  1.0000 -0.0270555156
C   C23       1.0  0.83960  0.64250  0.04635  1.0000 -0.0270555156
C   C24       1.0  0.16040  0.85750  0.54635  1.0000 -0.0270555156
C   C25       1.0  0.57210  0.66100  0.58400  1.0000 -0.1774272124
C   C26       1.0  0.42790  0.83900  0.08400  1.0000 -0.1774272124
C   C27       1.0  0.07210  0.33900  0.91600  1.0000 -0.1774272124
C   C28       1.0  0.92790  0.16100  0.41600  1.0000 -0.1774272124
C   C29       1.0  0.42790  0.33900  0.41600  1.0000 -0.1774272124
C   C30       1.0  0.57210  0.16100  0.91600  1.0000 -0.1774272124
C   C31       1.0  0.92790  0.66100  0.08400  1.0000 -0.1774272124
C   C32       1.0  0.07210  0.83900  0.58400  1.0000 -0.1774272124
C   C33       1.0  0.49950  0.73130  0.58020  1.0000 0.1554233928
C   C34       1.0  0.50050  0.76870  0.08020  1.0000 0.1554233928
C   C35       1.0  0.99950  0.26870  0.91980  1.0000 0.1554233928
C   C36       1.0  0.00050  0.23130  0.41980  1.0000 0.1554233928
C   C37       1.0  0.50050  0.26870  0.41980  1.0000 0.1554233928
C   C38       1.0  0.49950  0.23130  0.91980  1.0000 0.1554233928
C   C39       1.0  0.00050  0.73130  0.08020  1.0000 0.1554233928
C   C40       1.0  0.99950  0.76870  0.58020  1.0000 0.1554233928
C   C41       1.0  0.51320  0.78170  0.53659  1.0000 -0.1686516578
C   C42       1.0  0.48680  0.71830  0.03659  1.0000 -0.1686516578
C   C43       1.0  0.01320  0.21830  0.96341  1.0000 -0.1686516578
C   C44       1.0  0.98680  0.28170  0.46341  1.0000 -0.1686516578
C   C45       1.0  0.48680  0.21830  0.46341  1.0000 -0.1686516578
C   C46       1.0  0.51320  0.28170  0.96341  1.0000 -0.1686516578
C   C47       1.0  0.98680  0.78170  0.03659  1.0000 -0.1686516578
C   C48       1.0  0.01320  0.71830  0.53659  1.0000 -0.1686516578
C   C49       1.0  0.41510  0.76050  0.62357  1.0000 -0.3119222175
C   C50       1.0  0.58490  0.73950  0.12357  1.0000 -0.3119222175
C   C51       1.0  0.91510  0.23950  0.87643  1.0000 -0.3119222175
C   C52       1.0  0.08490  0.26050  0.37643  1.0000 -0.3119222175
C   C53       1.0  0.58490  0.23950  0.37643  1.0000 -0.3119222175
C   C54       1.0  0.41510  0.26050  0.87643  1.0000 -0.3119222175
C   C55       1.0  0.08490  0.76050  0.12357  1.0000 -0.3119222175
C   C56       1.0  0.91510  0.73950  0.62357  1.0000 -0.3119222175
C   C57       1.0  0.33640  0.69540  0.65044  1.0000 0.147082624
C   C58       1.0  0.66360  0.80460  0.15044  1.0000 0.147082624
C   C59       1.0  0.83640  0.30460  0.84956  1.0000 0.1408625206
C   C60       1.0  0.16360  0.19540  0.34956  1.0000 0.147082624
C   C61       1.0  0.66360  0.30460  0.34956  1.0000 0.147082624
C   C62       1.0  0.33640  0.19540  0.84956  1.0000 0.1408625206
C   C63       1.0  0.16360  0.69540  0.15044  1.0000 0.147082624
C   C64       1.0  0.83640  0.80460  0.65044  1.0000 0.1408625206
C   C65       1.0  0.24930  0.64970  0.62256  1.0000 -0.1686516578
C   C66       1.0  0.75070  0.85030  0.12256  1.0000 -0.1686516578
C   C67       1.0  0.74930  0.35030  0.87744  1.0000 -0.1686516578
C   C68       1.0  0.25070  0.14970  0.37744  1.0000 -0.1686516578
C   C69       1.0  0.75070  0.35030  0.37744  1.0000 -0.1686516578
C   C70       1.0  0.24930  0.14970  0.87744  1.0000 -0.1686516578
C   C71       1.0  0.25070  0.64970  0.12256  1.0000 -0.1686516578
C   C72       1.0  0.74930  0.85030  0.62256  1.0000 -0.1686516578
C   C73       1.0  0.17070  0.59490  0.64796  1.0000 -0.0208213094
C   C74       1.0  0.82930  0.90510  0.14796  1.0000 -0.0208213094
C   C75       1.0  0.67070  0.40510  0.85204  1.0000 -0.0208213094
C   C76       1.0  0.32930  0.09490  0.35204  1.0000 -0.0208213094
C   C77       1.0  0.82930  0.40510  0.35204  1.0000 -0.0208213094
C   C78       1.0  0.17070  0.09490  0.85204  1.0000 -0.0208213094
C   C79       1.0  0.32930  0.59490  0.14796  1.0000 -0.0208213094
C   C80       1.0  0.67070  0.90510  0.64796  1.0000 -0.0208213094
C   C81       1.0  0.18160  0.58360  0.70217  1.0000 -0.1577625225
C   C82       1.0  0.81840  0.91640  0.20217  1.0000 -0.1577625225
C   C83       1.0  0.68160  0.41640  0.79783  1.0000 -0.1577625225
C   C84       1.0  0.31840  0.08360  0.29783  1.0000 -0.1577625225
C   C85       1.0  0.81840  0.41640  0.29783  1.0000 -0.1577625225
C   C86       1.0  0.18160  0.08360  0.79783  1.0000 -0.1577625225
C   C87       1.0  0.31840  0.58360  0.20217  1.0000 -0.1577625225
C   C88       1.0  0.68160  0.91640  0.70217  1.0000 -0.1577625225
C   C89       1.0  0.27180  0.62650  0.72909  1.0000 -0.0046367107
C   C90       1.0  0.72820  0.87350  0.22909  1.0000 -0.0046367107
C   C91       1.0  0.77180  0.37350  0.77091  1.0000 -0.0046367107
C   C92       1.0  0.22820  0.12650  0.27091  1.0000 -0.0046367107
C   C93       1.0  0.72820  0.37350  0.27091  1.0000 -0.0046367107
C   C94       1.0  0.27180  0.12650  0.77091  1.0000 -0.0046367107
C   C95       1.0  0.22820  0.62650  0.22909  1.0000 -0.0046367107
C   C96       1.0  0.77180  0.87350  0.72909  1.0000 -0.0046367107
C   C97       1.0  0.34630  0.68270  0.70357  1.0000 -0.1774272124
C   C98       1.0  0.65370  0.81730  0.20357  1.0000 -0.1774272124
C   C99       1.0  0.84630  0.31730  0.79643  1.0000 -0.1774272124
C   C100      1.0  0.15370  0.18270  0.29643  1.0000 -0.1774272124
C   C101      1.0  0.65370  0.31730  0.29643  1.0000 -0.1774272124
C   C102      1.0  0.34630  0.18270  0.79643  1.0000 -0.1774272124
C   C103      1.0  0.15370  0.68270  0.20357  1.0000 -0.1774272124
C   C104      1.0  0.84630  0.81730  0.70357  1.0000 -0.1774272124
C   C105      1.0  0.62470  0.82590  0.45610  1.0000 0.569863682
C   C106      1.0  0.37530  0.67410  0.95610  1.0000 0.569863682
C   C107      1.0  0.12470  0.17410  0.04390  1.0000 0.569863682
C   C108      1.0  0.87530  0.32590  0.54390  1.0000 0.569863682
C   C109      1.0  0.37530  0.17410  0.54390  1.0000 0.569863682
C   C110      1.0  0.62470  0.32590  0.04390  1.0000 0.569863682
C   C111      1.0  0.87530  0.82590  0.95610  1.0000 0.569863682
C   C112      1.0  0.12470  0.67410  0.45610  1.0000 0.569863682
C   C113      1.0  0.74230  0.56740  0.55123  1.0000 0.569863682
C   C114      1.0  0.25770  0.93260  0.05123  1.0000 0.569863682
C   C115      1.0  0.24230  0.43260  0.94877  1.0000 0.569863682
C   C116      1.0  0.75770  0.06740  0.44877  1.0000 0.569863682
C   C117      1.0  0.25770  0.43260  0.44877  1.0000 0.569863682
C   C118      1.0  0.74230  0.06740  0.94877  1.0000 0.569863682
C   C119      1.0  0.75770  0.56740  0.05123  1.0000 0.569863682
C   C120      1.0  0.24230  0.93260  0.55123  1.0000 0.569863682
C   C121      1.0  0.07540  0.54710  0.61705  1.0000 0.5812737395
C   C122      1.0  0.92460  0.95290  0.11705  1.0000 0.5812737395
C   C123      1.0  0.57540  0.45290  0.88295  1.0000 0.5812737395
C   C124      1.0  0.42460  0.04710  0.38295  1.0000 0.5812737395
C   C125      1.0  0.92460  0.45290  0.38295  1.0000 0.5812737395
C   C126      1.0  0.07540  0.04710  0.88295  1.0000 0.5812737395
C   C127      1.0  0.42460  0.54710  0.11705  1.0000 0.5812737395
C   C128      1.0  0.57540  0.95290  0.61705  1.0000 0.5812737395
C   C129      1.0  0.29340  0.61090  0.78657  1.0000 0.5456806471
C   C130      1.0  0.70660  0.88910  0.28657  1.0000 0.5456806471
C   C131      1.0  0.79340  0.38910  0.71343  1.0000 0.5456806471
C   C132      1.0  0.20660  0.11090  0.21343  1.0000 0.5456806471
C   C133      1.0  0.70660  0.38910  0.21343  1.0000 0.5456806471
C   C134      1.0  0.29340  0.11090  0.71343  1.0000 0.5456806471
C   C135      1.0  0.20660  0.61090  0.28657  1.0000 0.5456806471
C   C136      1.0  0.79340  0.88910  0.78657  1.0000 0.5456806471
C   C137      1.0  0.01190  0.16470  0.61640  1.0000 -0.329346473
C   C138      1.0  0.90860  0.03550  0.57740  1.0000 -0.3119222175
C   C139      1.0  0.98810  0.33530  0.11640  1.0000 -0.329346473
C   C140      1.0  0.09140  0.46450  0.07740  1.0000 -0.3119222175
C   C141      1.0  0.51190  0.83530  0.88360  1.0000 -0.329346473
C   C142      1.0  0.40860  0.96450  0.92260  1.0000 -0.3119222175
C   C143      1.0  0.48810  0.66470  0.38360  1.0000 -0.329346473
C   C144      1.0  0.59140  0.53550  0.42260  1.0000 -0.3119222175
C   C145      1.0  0.98810  0.83530  0.38360  1.0000 -0.329346473
C   C146      1.0  0.09140  0.96450  0.42260  1.0000 -0.3119222175
C   C147      1.0  0.01190  0.66470  0.88360  1.0000 -0.329346473
C   C148      1.0  0.90860  0.53550  0.92260  1.0000 -0.3119222175
C   C149      1.0  0.48810  0.16470  0.11640  1.0000 -0.329346473
C   C150      1.0  0.59140  0.03550  0.07740  1.0000 -0.3119222175
C   C151      1.0  0.51190  0.33530  0.61640  1.0000 -0.329346473
C   C152      1.0  0.40860  0.46450  0.57740  1.0000 -0.3119222175
N   N1        1.0  0.98820  0.06770  0.61860  1.0000 -0.0809032402
N   N2        1.0  0.01180  0.43230  0.11860  1.0000 -0.0809032402
N   N3        1.0  0.48820  0.93230  0.88140  1.0000 -0.0809032402
N   N4        1.0  0.51180  0.56770  0.38140  1.0000 -0.0809032402
N   N5        1.0  0.01180  0.93230  0.38140  1.0000 -0.0809032402
N   N6        1.0  0.98820  0.56770  0.88140  1.0000 -0.0809032402
N   N7        1.0  0.51180  0.06770  0.11860  1.0000 -0.0809032402
N   N8        1.0  0.48820  0.43230  0.61860  1.0000 -0.0809032402
O   O1        1.0  0.55620  0.88982  0.45348  1.0000 -0.5690135012
O   O2        1.0  0.44380  0.61018  0.95348  1.0000 -0.5690135012
O   O3        1.0  0.05620  0.11018  0.04652  1.0000 -0.5690135012
O   O4        1.0  0.94380  0.38982  0.54652  1.0000 -0.5690135012
O   O5        1.0  0.44380  0.11018  0.54652  1.0000 -0.5690135012
O   O6        1.0  0.55620  0.38982  0.04652  1.0000 -0.5690135012
O   O7        1.0  0.94380  0.88982  0.95348  1.0000 -0.5690135012
O   O8        1.0  0.05620  0.61018  0.45348  1.0000 -0.5690135012
O   O9        1.0  0.70710  0.81380  0.42255  1.0000 -0.5196501302
O   O10       1.0  0.29290  0.68620  0.92255  1.0000 -0.5196501302
O   O11       1.0  0.20710  0.18620  0.07745  1.0000 -0.5196501302
O   O12       1.0  0.79290  0.31380  0.57745  1.0000 -0.5196501302
O   O13       1.0  0.29290  0.18620  0.57745  1.0000 -0.5196501302
O   O14       1.0  0.70710  0.31380  0.07745  1.0000 -0.5196501302
O   O15       1.0  0.79290  0.81380  0.92255  1.0000 -0.5196501302
O   O16       1.0  0.20710  0.68620  0.42255  1.0000 -0.5196501302
O   O17       1.0  0.82760  0.55940  0.51900  1.0000 -0.5496335278
O   O18       1.0  0.17240  0.94060  0.01900  1.0000 -0.5496335278
O   O19       1.0  0.32760  0.44060  0.98100  1.0000 -0.5496335278
O   O20       1.0  0.67240  0.05940  0.48100  1.0000 -0.5496335278
O   O21       1.0  0.17240  0.44060  0.48100  1.0000 -0.5496335278
O   O22       1.0  0.82760  0.05940  0.98100  1.0000 -0.5496335278
O   O23       1.0  0.67240  0.55940  0.01900  1.0000 -0.5496335278
O   O24       1.0  0.32760  0.94060  0.51900  1.0000 -0.5496335278
O   O25       1.0  0.71920  0.51780  0.58811  1.0000 -0.5690135012
O   O26       1.0  0.28080  0.98220  0.08811  1.0000 -0.5690135012
O   O27       1.0  0.21920  0.48220  0.91189  1.0000 -0.5690135012
O   O28       1.0  0.78080  0.01780  0.41189  1.0000 -0.5690135012
O   O29       1.0  0.28080  0.48220  0.41189  1.0000 -0.5690135012
O   O30       1.0  0.71920  0.01780  0.91189  1.0000 -0.5690135012
O   O31       1.0  0.78080  0.51780  0.08811  1.0000 -0.5690135012
O   O32       1.0  0.21920  0.98220  0.58811  1.0000 -0.5690135012
O   O33       1.0  0.09090  0.54390  0.56875  1.0000 -0.5596244248
O   O34       1.0  0.90910  0.95610  0.06875  1.0000 -0.5596244248
O   O35       1.0  0.59090  0.45610  0.93125  1.0000 -0.5596244248
O   O36       1.0  0.40910  0.04390  0.43125  1.0000 -0.5596244248
O   O37       1.0  0.90910  0.45610  0.43125  1.0000 -0.5596244248
O   O38       1.0  0.09090  0.04390  0.93125  1.0000 -0.5596244248
O   O39       1.0  0.40910  0.54390  0.06875  1.0000 -0.5596244248
O   O40       1.0  0.59090  0.95610  0.56875  1.0000 -0.5596244248
O   O41       1.0  0.98800  0.51370  0.64209  1.0000 -0.5496335278
O   O42       1.0  0.01200  0.98630  0.14209  1.0000 -0.5496335278
O   O43       1.0  0.48800  0.48630  0.85791  1.0000 -0.5496335278
O   O44       1.0  0.51200  0.01370  0.35791  1.0000 -0.5496335278
O   O45       1.0  0.01200  0.48630  0.35791  1.0000 -0.5496335278
O   O46       1.0  0.98800  0.01370  0.85791  1.0000 -0.5496335278
O   O47       1.0  0.51200  0.51370  0.14209  1.0000 -0.5496335278
O   O48       1.0  0.48800  0.98630  0.64209  1.0000 -0.5496335278
O   O49       1.0  0.22050  0.56510  0.81156  1.0000 -0.5596244248
O   O50       1.0  0.77950  0.93490  0.31156  1.0000 -0.5596244248
O   O51       1.0  0.72050  0.43490  0.68844  1.0000 -0.5596244248
O   O52       1.0  0.27950  0.06510  0.18844  1.0000 -0.5596244248
O   O53       1.0  0.77950  0.43490  0.18844  1.0000 -0.5596244248
O   O54       1.0  0.22050  0.06510  0.68844  1.0000 -0.5596244248
O   O55       1.0  0.27950  0.56510  0.31156  1.0000 -0.5596244248
O   O56       1.0  0.72050  0.93490  0.81156  1.0000 -0.5596244248
O   O57       1.0  0.38540  0.64260  0.80836  1.0000 -0.5196501302
O   O58       1.0  0.61460  0.85740  0.30836  1.0000 -0.5196501302
O   O59       1.0  0.88540  0.35740  0.69164  1.0000 -0.5196501302
O   O60       1.0  0.11460  0.14260  0.19164  1.0000 -0.5196501302
O   O61       1.0  0.61460  0.35740  0.19164  1.0000 -0.5196501302
O   O62       1.0  0.38540  0.14260  0.69164  1.0000 -0.5196501302
O   O63       1.0  0.11460  0.64260  0.30836  1.0000 -0.5196501302
O   O64       1.0  0.88540  0.85740  0.80836  1.0000 -0.5196501302
