# DDEC6 charges by PACMAN v1.1 (https://github.com/mtap-research/PACMAN-charge/)
data_2011[Cd][dmp]3[ION]1
_chemical_formula_sum              "Cd12 H316 C352 N32 Cl4 O88"
_cell_length_a       18.3196
_cell_length_b       21.4448
_cell_length_c       22.3854
_cell_angle_alpha    90
_cell_angle_beta     90
_cell_angle_gamma    90

_symmetry_space_group_name_H-M    "P 1"
_symmetry_Int_Tables_number       1

loop_
  _symmetry_equiv_pos_as_xyz
  'x, y, z'

loop_
  _atom_site_type_symbol
  _atom_site_label
  _atom_site_symmetry_multiplicity
  _atom_site_fract_x
  _atom_site_fract_y
  _atom_site_fract_z
  _atom_site_occupancy
  _atom_site_charge
Cd  Cd1       1.0  0.65555  0.22750  0.43233  1.0000 0.918699961
Cd  Cd2       1.0  0.34445  0.77250  0.93233  1.0000 0.918699961
Cd  Cd3       1.0  0.84445  0.72750  0.43233  1.0000 0.918699961
Cd  Cd4       1.0  0.15555  0.27250  0.93233  1.0000 0.918699961
Cd  Cd5       1.0  0.59446  0.25762  0.59728  1.0000 0.918699961
Cd  Cd6       1.0  0.40554  0.74238  0.09728  1.0000 0.918699961
Cd  Cd7       1.0  0.90554  0.75762  0.59728  1.0000 0.918699961
Cd  Cd8       1.0  0.09446  0.24238  0.09728  1.0000 0.918699961
Cd  Cd9       1.0  0.54830  0.24459  0.76784  1.0000 0.918699961
Cd  Cd10      1.0  0.45170  0.75541  0.26784  1.0000 0.918699961
Cd  Cd11      1.0  0.95170  0.74459  0.76784  1.0000 0.918699961
Cd  Cd12      1.0  0.04830  0.25541  0.26784  1.0000 0.918699961
H   H1        1.0  0.60200  0.32820  0.37420  1.0000 0.3637004903
H   H2        1.0  0.39800  0.67180  0.87420  1.0000 0.3637004903
H   H3        1.0  0.89800  0.82820  0.37420  1.0000 0.3637004903
H   H4        1.0  0.10200  0.17180  0.87420  1.0000 0.3637004903
H   H5        1.0  0.60500  0.28500  0.32560  1.0000 0.3821516557
H   H6        1.0  0.39500  0.71500  0.82560  1.0000 0.3821516557
H   H7        1.0  0.89500  0.78500  0.32560  1.0000 0.3821516557
H   H8        1.0  0.10500  0.21500  0.82560  1.0000 0.3821516557
H   H9        1.0  0.60300  0.32600  0.85880  1.0000 0.3821516557
H   H10       1.0  0.39700  0.67400  0.35880  1.0000 0.3821516557
H   H11       1.0  0.89700  0.82600  0.85880  1.0000 0.3821516557
H   H12       1.0  0.10300  0.17400  0.35880  1.0000 0.3821516557
H   H13       1.0  0.58500  0.35890  0.80380  1.0000 0.3652823305
H   H14       1.0  0.41500  0.64110  0.30380  1.0000 0.3652823305
H   H15       1.0  0.91500  0.85890  0.80380  1.0000 0.3652823305
H   H16       1.0  0.08500  0.14110  0.30380  1.0000 0.3652823305
H   H17       1.0  0.60320  0.54300  0.34000  1.0000 0.243400026
H   H18       1.0  0.39680  0.45700  0.84000  1.0000 0.243400026
H   H19       1.0  0.89680  0.04300  0.34000  1.0000 0.243400026
H   H20       1.0  0.10320  0.95700  0.84000  1.0000 0.243400026
H   H21       1.0  0.89820  0.26350  0.77400  1.0000 0.2554987481
H   H22       1.0  0.10180  0.73650  0.27400  1.0000 0.2554987481
H   H23       1.0  0.60180  0.76350  0.77400  1.0000 0.2554987481
H   H24       1.0  0.39820  0.23650  0.27400  1.0000 0.2554987481
H   H25       1.0  0.80890  0.27830  0.91640  1.0000 0.2531560472
H   H26       1.0  0.19110  0.72170  0.41640  1.0000 0.2531560472
H   H27       1.0  0.69110  0.77830  0.91640  1.0000 0.2531560472
H   H28       1.0  0.30890  0.22170  0.41640  1.0000 0.2531560472
H   H29       1.0  0.81840  0.11820  0.56450  1.0000 0.1107559607
H   H30       1.0  0.18160  0.88180  0.06450  1.0000 0.1107559607
H   H31       1.0  0.68160  0.61820  0.56450  1.0000 0.1107559607
H   H32       1.0  0.31840  0.38180  0.06450  1.0000 0.1107559607
H   H33       1.0  0.85690  0.07620  0.65490  1.0000 0.1107559607
H   H34       1.0  0.14310  0.92380  0.15490  1.0000 0.1107559607
H   H35       1.0  0.64310  0.57620  0.65490  1.0000 0.1107559607
H   H36       1.0  0.35690  0.42380  0.15490  1.0000 0.1107559607
H   H37       1.0  0.77220  0.04370  0.72500  1.0000 0.1107559607
H   H38       1.0  0.22780  0.95630  0.22500  1.0000 0.1107559607
H   H39       1.0  0.72780  0.54370  0.72500  1.0000 0.1107559607
H   H40       1.0  0.27220  0.45630  0.22500  1.0000 0.1107559607
H   H41       1.0  0.64750  0.04830  0.70240  1.0000 0.1196205301
H   H42       1.0  0.35250  0.95170  0.20240  1.0000 0.1196205301
H   H43       1.0  0.85250  0.54830  0.70240  1.0000 0.1196205301
H   H44       1.0  0.14750  0.45170  0.20240  1.0000 0.1196205301
H   H45       1.0  0.40990  0.09780  0.64930  1.0000 0.1196205301
H   H46       1.0  0.59010  0.90220  0.14930  1.0000 0.1196205301
H   H47       1.0  0.09010  0.59780  0.64930  1.0000 0.1196205301
H   H48       1.0  0.90990  0.40220  0.14930  1.0000 0.1196205301
H   H49       1.0  0.38580  0.03310  0.56710  1.0000 0.1107559607
H   H50       1.0  0.61420  0.96690  0.06710  1.0000 0.1107559607
H   H51       1.0  0.11420  0.53310  0.56710  1.0000 0.1107559607
H   H52       1.0  0.88580  0.46690  0.06710  1.0000 0.1107559607
H   H53       1.0  0.48250  0.00100  0.50580  1.0000 0.1027370482
H   H54       1.0  0.51750  0.99900  0.00580  1.0000 0.1027370482
H   H55       1.0  0.01750  0.50100  0.50580  1.0000 0.1027370482
H   H56       1.0  0.98250  0.49900  0.00580  1.0000 0.1027370482
H   H57       1.0  0.60140  0.02660  0.53040  1.0000 0.1107559607
H   H58       1.0  0.39860  0.97340  0.03040  1.0000 0.1107559607
H   H59       1.0  0.89860  0.52660  0.53040  1.0000 0.1107559607
H   H60       1.0  0.10140  0.47340  0.03040  1.0000 0.1107559607
H   H61       1.0  0.54480  0.63110  0.26510  1.0000 0.1107559607
H   H62       1.0  0.45520  0.36890  0.76510  1.0000 0.1107559607
H   H63       1.0  0.95520  0.13110  0.26510  1.0000 0.1107559607
H   H64       1.0  0.04480  0.86890  0.76510  1.0000 0.1107559607
H   H65       1.0  0.76130  0.66080  0.27520  1.0000 0.1294788957
H   H66       1.0  0.23870  0.33920  0.77520  1.0000 0.1294788957
H   H67       1.0  0.73870  0.16080  0.27520  1.0000 0.1294788957
H   H68       1.0  0.26130  0.83920  0.77520  1.0000 0.1294788957
H   H69       1.0  0.63140  0.54570  0.24280  1.0000 0.1294788957
H   H70       1.0  0.36860  0.45430  0.74280  1.0000 0.1294788957
H   H71       1.0  0.86860  0.04570  0.24280  1.0000 0.1294788957
H   H72       1.0  0.13140  0.95430  0.74280  1.0000 0.1294788957
H   H73       1.0  0.71530  0.55490  0.26050  1.0000 0.1294788957
H   H74       1.0  0.28470  0.44510  0.76050  1.0000 0.1294788957
H   H75       1.0  0.78470  0.05490  0.26050  1.0000 0.1294788957
H   H76       1.0  0.21530  0.94510  0.76050  1.0000 0.1294788957
H   H77       1.0  0.73850  0.76740  0.27250  1.0000 0.1387682714
H   H78       1.0  0.26150  0.23260  0.77250  1.0000 0.1387682714
H   H79       1.0  0.76150  0.26740  0.27250  1.0000 0.1387682714
H   H80       1.0  0.23850  0.73260  0.77250  1.0000 0.1387682714
H   H81       1.0  0.61890  0.80320  0.26610  1.0000 0.1107559607
H   H82       1.0  0.38110  0.19680  0.76610  1.0000 0.1107559607
H   H83       1.0  0.88110  0.30320  0.26610  1.0000 0.1107559607
H   H84       1.0  0.11890  0.69680  0.76610  1.0000 0.1107559607
H   H85       1.0  0.62510  0.45040  0.36620  1.0000 0.1196205301
H   H86       1.0  0.37490  0.54960  0.86620  1.0000 0.1196205301
H   H87       1.0  0.87490  0.95040  0.36620  1.0000 0.1196205301
H   H88       1.0  0.12510  0.04960  0.86620  1.0000 0.1196205301
H   H89       1.0  0.62210  0.45320  0.29470  1.0000 0.1294788957
H   H90       1.0  0.37790  0.54680  0.79470  1.0000 0.1294788957
H   H91       1.0  0.87790  0.95320  0.29470  1.0000 0.1294788957
H   H92       1.0  0.12210  0.04680  0.79470  1.0000 0.1294788957
H   H93       1.0  0.70630  0.60450  0.37850  1.0000 0.1196205301
H   H94       1.0  0.29370  0.39550  0.87850  1.0000 0.1196205301
H   H95       1.0  0.79370  0.10450  0.37850  1.0000 0.1196205301
H   H96       1.0  0.20630  0.89550  0.87850  1.0000 0.1196205301
H   H97       1.0  0.67810  0.54930  0.42080  1.0000 0.1196205301
H   H98       1.0  0.32190  0.45070  0.92080  1.0000 0.1196205301
H   H99       1.0  0.82190  0.04930  0.42080  1.0000 0.1196205301
H   H100      1.0  0.17810  0.95070  0.92080  1.0000 0.1196205301
H   H101      1.0  0.75120  0.45570  0.29070  1.0000 0.1107559607
H   H102      1.0  0.24880  0.54430  0.79070  1.0000 0.1107559607
H   H103      1.0  0.74880  0.95570  0.29070  1.0000 0.1107559607
H   H104      1.0  0.25120  0.04430  0.79070  1.0000 0.1107559607
H   H105      1.0  0.72420  0.39450  0.32540  1.0000 0.1107559607
H   H106      1.0  0.27580  0.60550  0.82540  1.0000 0.1107559607
H   H107      1.0  0.77580  0.89450  0.32540  1.0000 0.1107559607
H   H108      1.0  0.22420  0.10550  0.82540  1.0000 0.1107559607
H   H109      1.0  0.80580  0.54220  0.41140  1.0000 0.1107559607
H   H110      1.0  0.19420  0.45780  0.91140  1.0000 0.1107559607
H   H111      1.0  0.69420  0.04220  0.41140  1.0000 0.1107559607
H   H112      1.0  0.30580  0.95780  0.91140  1.0000 0.1107559607
H   H113      1.0  0.79920  0.53980  0.34000  1.0000 0.1027370482
H   H114      1.0  0.20080  0.46020  0.84000  1.0000 0.1027370482
H   H115      1.0  0.70080  0.03980  0.34000  1.0000 0.1027370482
H   H116      1.0  0.29920  0.96020  0.84000  1.0000 0.1027370482
H   H117      1.0  0.86390  0.43480  0.34390  1.0000 0.1196205301
H   H118      1.0  0.13610  0.56520  0.84390  1.0000 0.1196205301
H   H119      1.0  0.63610  0.93480  0.34390  1.0000 0.1196205301
H   H120      1.0  0.36390  0.06520  0.84390  1.0000 0.1196205301
H   H121      1.0  0.87030  0.45440  0.41260  1.0000 0.1196205301
H   H122      1.0  0.12970  0.54560  0.91260  1.0000 0.1196205301
H   H123      1.0  0.62970  0.95440  0.41260  1.0000 0.1196205301
H   H124      1.0  0.37030  0.04560  0.91260  1.0000 0.1196205301
H   H125      1.0  0.72950  0.35700  0.41990  1.0000 0.0948062426
H   H126      1.0  0.27050  0.64300  0.91990  1.0000 0.0948062426
H   H127      1.0  0.77050  0.85700  0.41990  1.0000 0.0948062426
H   H128      1.0  0.22950  0.14300  0.91990  1.0000 0.0948062426
H   H129      1.0  0.94680  0.34750  0.39170  1.0000 0.1387682714
H   H130      1.0  0.05320  0.65250  0.89170  1.0000 0.1387682714
H   H131      1.0  0.55320  0.84750  0.39170  1.0000 0.1387682714
H   H132      1.0  0.44680  0.15250  0.89170  1.0000 0.1387682714
H   H133      1.0  0.94210  0.24280  0.42090  1.0000 0.1387682714
H   H134      1.0  0.05790  0.75720  0.92090  1.0000 0.1387682714
H   H135      1.0  0.55790  0.74280  0.42090  1.0000 0.1387682714
H   H136      1.0  0.44210  0.25720  0.92090  1.0000 0.1387682714
H   H137      1.0  0.83130  0.19680  0.44180  1.0000 0.1027370482
H   H138      1.0  0.16870  0.80320  0.94180  1.0000 0.1027370482
H   H139      1.0  0.66870  0.69680  0.44180  1.0000 0.1027370482
H   H140      1.0  0.33130  0.30320  0.94180  1.0000 0.1027370482
H   H141      1.0  0.70260  0.22370  0.70020  1.0000 0.1196205301
H   H142      1.0  0.29740  0.77630  0.20020  1.0000 0.1196205301
H   H143      1.0  0.79740  0.72370  0.70020  1.0000 0.1196205301
H   H144      1.0  0.20260  0.27630  0.20020  1.0000 0.1196205301
H   H145      1.0  0.74750  0.29690  0.54350  1.0000 0.1027370482
H   H146      1.0  0.25250  0.70310  0.04350  1.0000 0.1027370482
H   H147      1.0  0.75250  0.79690  0.54350  1.0000 0.1027370482
H   H148      1.0  0.24750  0.20310  0.04350  1.0000 0.1027370482
H   H149      1.0  0.87080  0.29260  0.56210  1.0000 0.1196205301
H   H150      1.0  0.12920  0.70740  0.06210  1.0000 0.1196205301
H   H151      1.0  0.62920  0.79260  0.56210  1.0000 0.1196205301
H   H152      1.0  0.37080  0.20740  0.06210  1.0000 0.1196205301
H   H153      1.0  0.91190  0.25150  0.65340  1.0000 0.1294788957
H   H154      1.0  0.08810  0.74850  0.15340  1.0000 0.1294788957
H   H155      1.0  0.58810  0.75150  0.65340  1.0000 0.1294788957
H   H156      1.0  0.41190  0.24850  0.15340  1.0000 0.1294788957
H   H157      1.0  0.87150  0.17270  0.73710  1.0000 0.1196205301
H   H158      1.0  0.12850  0.82730  0.23710  1.0000 0.1294788957
H   H159      1.0  0.62850  0.67270  0.73710  1.0000 0.1294788957
H   H160      1.0  0.37150  0.32730  0.23710  1.0000 0.1294788957
H   H161      1.0  0.78960  0.18020  0.76060  1.0000 0.1196205301
H   H162      1.0  0.21040  0.81980  0.26060  1.0000 0.1196205301
H   H163      1.0  0.71040  0.68020  0.76060  1.0000 0.1196205301
H   H164      1.0  0.28960  0.31980  0.26060  1.0000 0.1196205301
H   H165      1.0  0.78990  0.32080  0.76970  1.0000 0.1196205301
H   H166      1.0  0.21010  0.67920  0.26970  1.0000 0.1196205301
H   H167      1.0  0.71010  0.82080  0.76970  1.0000 0.1196205301
H   H168      1.0  0.28990  0.17920  0.26970  1.0000 0.1196205301
H   H169      1.0  0.75640  0.27500  0.81910  1.0000 0.1294788957
H   H170      1.0  0.24360  0.72500  0.31910  1.0000 0.1294788957
H   H171      1.0  0.74360  0.77500  0.81910  1.0000 0.1294788957
H   H172      1.0  0.25640  0.22500  0.31910  1.0000 0.1294788957
H   H173      1.0  0.83760  0.18900  0.86030  1.0000 0.1196205301
H   H174      1.0  0.16240  0.81100  0.36030  1.0000 0.1196205301
H   H175      1.0  0.66240  0.68900  0.86030  1.0000 0.1196205301
H   H176      1.0  0.33760  0.31100  0.36030  1.0000 0.1196205301
H   H177      1.0  0.91920  0.18360  0.83500  1.0000 0.1294788957
H   H178      1.0  0.08080  0.81640  0.33500  1.0000 0.1294788957
H   H179      1.0  0.58080  0.68360  0.83500  1.0000 0.1294788957
H   H180      1.0  0.41920  0.31640  0.33500  1.0000 0.1294788957
H   H181      1.0  0.78900  0.36960  0.86440  1.0000 0.1196205301
H   H182      1.0  0.21100  0.63040  0.36440  1.0000 0.1196205301
H   H183      1.0  0.71100  0.86960  0.86440  1.0000 0.1196205301
H   H184      1.0  0.28900  0.13040  0.36440  1.0000 0.1196205301
H   H185      1.0  0.87100  0.36280  0.84020  1.0000 0.1196205301
H   H186      1.0  0.12900  0.63720  0.34020  1.0000 0.1196205301
H   H187      1.0  0.62900  0.86280  0.84020  1.0000 0.1196205301
H   H188      1.0  0.37100  0.13720  0.34020  1.0000 0.1196205301
H   H189      1.0  0.94950  0.27990  0.87860  1.0000 0.1294788957
H   H190      1.0  0.05050  0.72010  0.37860  1.0000 0.1294788957
H   H191      1.0  0.55050  0.77990  0.87860  1.0000 0.1294788957
H   H192      1.0  0.44950  0.22010  0.37860  1.0000 0.1294788957
H   H193      1.0  0.91960  0.23340  0.92900  1.0000 0.1196205301
H   H194      1.0  0.08040  0.76660  0.42900  1.0000 0.1196205301
H   H195      1.0  0.58040  0.73340  0.92900  1.0000 0.1196205301
H   H196      1.0  0.41960  0.26660  0.42900  1.0000 0.1196205301
H   H197      1.0  0.82850  0.37500  0.96650  1.0000 0.1294788957
H   H198      1.0  0.17150  0.62500  0.46650  1.0000 0.1294788957
H   H199      1.0  0.67150  0.87500  0.96650  1.0000 0.1294788957
H   H200      1.0  0.32850  0.12500  0.46650  1.0000 0.1294788957
H   H201      1.0  0.91230  0.36980  0.94690  1.0000 0.1196205301
H   H202      1.0  0.08770  0.63020  0.44690  1.0000 0.1196205301
H   H203      1.0  0.58770  0.86980  0.94690  1.0000 0.1196205301
H   H204      1.0  0.41230  0.13020  0.44690  1.0000 0.1196205301
H   H205      1.0  0.99510  0.30640  0.00230  1.0000 0.1196205301
H   H206      1.0  0.00490  0.69360  0.50230  1.0000 0.1196205301
H   H207      1.0  0.50490  0.80640  0.00230  1.0000 0.1196205301
H   H208      1.0  0.49510  0.19360  0.50230  1.0000 0.1196205301
H   H209      1.0  0.78220  0.30340  0.04800  1.0000 0.1387682714
H   H210      1.0  0.21780  0.69660  0.54800  1.0000 0.1387682714
H   H211      1.0  0.71780  0.80340  0.04800  1.0000 0.1387682714
H   H212      1.0  0.28220  0.19660  0.54800  1.0000 0.1387682714
H   H213      1.0  0.81470  0.25010  0.13470  1.0000 0.1294788957
H   H214      1.0  0.18530  0.74990  0.63470  1.0000 0.1294788957
H   H215      1.0  0.68530  0.75010  0.13470  1.0000 0.1294788957
H   H216      1.0  0.31470  0.24990  0.63470  1.0000 0.1294788957
H   H217      1.0  0.93440  0.21930  0.14840  1.0000 0.1027370482
H   H218      1.0  0.06560  0.78070  0.64840  1.0000 0.1027370482
H   H219      1.0  0.56560  0.71930  0.14840  1.0000 0.1027370482
H   H220      1.0  0.43440  0.28070  0.64840  1.0000 0.1027370482
H   H221      1.0  0.71890  0.09070  0.81140  1.0000 0.1107559607
H   H222      1.0  0.28110  0.90930  0.31140  1.0000 0.1107559607
H   H223      1.0  0.78110  0.59070  0.81140  1.0000 0.1107559607
H   H224      1.0  0.21890  0.40930  0.31140  1.0000 0.1107559607
H   H225      1.0  0.55310  0.09860  0.02300  1.0000 0.1027370482
H   H226      1.0  0.44690  0.90140  0.52300  1.0000 0.1027370482
H   H227      1.0  0.94690  0.59860  0.02300  1.0000 0.1027370482
H   H228      1.0  0.05310  0.40140  0.52300  1.0000 0.1027370482
H   H229      1.0  0.48330  0.16350  0.08220  1.0000 0.1107559607
H   H230      1.0  0.51670  0.83650  0.58220  1.0000 0.1107559607
H   H231      1.0  0.01670  0.66350  0.08220  1.0000 0.1107559607
H   H232      1.0  0.98330  0.33650  0.58220  1.0000 0.1107559607
H   H233      1.0  0.63540  0.44620  0.50130  1.0000 0.1107559607
H   H234      1.0  0.36460  0.55380  0.00130  1.0000 0.1107559607
H   H235      1.0  0.86460  0.94620  0.50130  1.0000 0.1107559607
H   H236      1.0  0.13540  0.05380  0.00130  1.0000 0.1107559607
H   H237      1.0  0.74880  0.40590  0.68270  1.0000 0.1196205301
H   H238      1.0  0.25120  0.59410  0.18270  1.0000 0.1196205301
H   H239      1.0  0.75120  0.90590  0.68270  1.0000 0.1196205301
H   H240      1.0  0.24880  0.09410  0.18270  1.0000 0.1196205301
H   H241      1.0  0.75880  0.46120  0.51040  1.0000 0.1107559607
H   H242      1.0  0.24120  0.53880  0.01040  1.0000 0.1107559607
H   H243      1.0  0.74120  0.96120  0.51040  1.0000 0.1107559607
H   H244      1.0  0.25880  0.03880  0.01040  1.0000 0.1107559607
H   H245      1.0  0.81740  0.44010  0.60170  1.0000 0.1107559607
H   H246      1.0  0.18260  0.55990  0.10170  1.0000 0.1107559607
H   H247      1.0  0.68260  0.94010  0.60170  1.0000 0.1107559607
H   H248      1.0  0.31740  0.05990  0.10170  1.0000 0.1107559607
H   H249      1.0  0.57960  0.31380  0.01020  1.0000 0.1196205301
H   H250      1.0  0.42040  0.68620  0.51020  1.0000 0.1196205301
H   H251      1.0  0.92040  0.81380  0.01020  1.0000 0.1196205301
H   H252      1.0  0.07960  0.18620  0.51020  1.0000 0.1196205301
H   H253      1.0  0.50160  0.06350  0.41890  1.0000 0.1027370482
H   H254      1.0  0.49840  0.93650  0.91890  1.0000 0.1027370482
H   H255      1.0  0.99840  0.56350  0.41890  1.0000 0.1027370482
H   H256      1.0  0.00160  0.43650  0.91890  1.0000 0.1027370482
H   H257      1.0  0.44210  0.97330  0.38840  1.0000 0.1107559607
H   H258      1.0  0.55790  0.02670  0.88840  1.0000 0.1107559607
H   H259      1.0  0.05790  0.47330  0.38840  1.0000 0.1107559607
H   H260      1.0  0.94210  0.52670  0.88840  1.0000 0.1107559607
H   H261      1.0  0.51620  0.00130  0.22150  1.0000 0.1196205301
H   H262      1.0  0.48380  0.99870  0.72150  1.0000 0.1196205301
H   H263      1.0  0.98380  0.50130  0.22150  1.0000 0.1196205301
H   H264      1.0  0.01620  0.49870  0.72150  1.0000 0.1196205301
H   H265      1.0  0.44900  0.94310  0.28860  1.0000 0.1107559607
H   H266      1.0  0.55100  0.05690  0.78860  1.0000 0.1107559607
H   H267      1.0  0.05100  0.44310  0.28860  1.0000 0.1107559607
H   H268      1.0  0.94900  0.55690  0.78860  1.0000 0.1107559607
H   H269      1.0  0.65000  0.02560  0.20730  1.0000 0.1107559607
H   H270      1.0  0.35000  0.97440  0.70730  1.0000 0.1107559607
H   H271      1.0  0.85000  0.52560  0.20730  1.0000 0.1107559607
H   H272      1.0  0.15000  0.47440  0.70730  1.0000 0.1107559607
H   H273      1.0  0.72170  0.07280  0.13350  1.0000 0.1107559607
H   H274      1.0  0.27830  0.92720  0.63350  1.0000 0.1107559607
H   H275      1.0  0.77830  0.57280  0.13350  1.0000 0.1107559607
H   H276      1.0  0.22170  0.42720  0.63350  1.0000 0.1107559607
H   H277      1.0  0.62600  0.23870  0.17050  1.0000 0.1196205301
H   H278      1.0  0.37400  0.76130  0.67050  1.0000 0.1196205301
H   H279      1.0  0.87400  0.73870  0.17050  1.0000 0.1196205301
H   H280      1.0  0.12600  0.26130  0.67050  1.0000 0.1196205301
H   H281      1.0  0.77900  0.01150  0.86340  1.0000 0.1196205301
H   H282      1.0  0.22100  0.98850  0.36340  1.0000 0.1196205301
H   H283      1.0  0.72100  0.51150  0.86340  1.0000 0.1196205301
H   H284      1.0  0.27900  0.48850  0.36340  1.0000 0.1196205301
H   H285      1.0  0.75840  0.99980  0.96730  1.0000 0.1196205301
H   H286      1.0  0.24160  0.00020  0.46730  1.0000 0.1196205301
H   H287      1.0  0.74160  0.49980  0.96730  1.0000 0.1196205301
H   H288      1.0  0.25840  0.50020  0.46730  1.0000 0.1196205301
H   H289      1.0  0.68610  0.06970  0.01560  1.0000 0.1196205301
H   H290      1.0  0.31390  0.93030  0.51560  1.0000 0.1196205301
H   H291      1.0  0.81390  0.56970  0.01560  1.0000 0.1196205301
H   H292      1.0  0.18610  0.43030  0.51560  1.0000 0.1196205301
H   H293      1.0  0.49280  0.26970  0.07480  1.0000 0.1107559607
H   H294      1.0  0.50720  0.73030  0.57480  1.0000 0.1107559607
H   H295      1.0  0.00720  0.76970  0.07480  1.0000 0.1107559607
H   H296      1.0  0.99280  0.23030  0.57480  1.0000 0.1107559607
H   H297      1.0  0.70850  0.17920  0.11490  1.0000 0.1107559607
H   H298      1.0  0.29150  0.82080  0.61490  1.0000 0.1107559607
H   H299      1.0  0.79150  0.67920  0.11490  1.0000 0.1107559607
H   H300      1.0  0.20850  0.32080  0.61490  1.0000 0.1107559607
H   H301      1.0  0.40560  0.36340  0.48620  1.0000 0.1196205301
H   H302      1.0  0.59440  0.63660  0.98620  1.0000 0.1196205301
H   H303      1.0  0.09440  0.86340  0.48620  1.0000 0.1196205301
H   H304      1.0  0.90560  0.13660  0.98620  1.0000 0.1196205301
H   H305      1.0  0.33260  0.41280  0.55720  1.0000 0.1196205301
H   H306      1.0  0.66740  0.58720  0.05720  1.0000 0.1196205301
H   H307      1.0  0.16740  0.91280  0.55720  1.0000 0.1196205301
H   H308      1.0  0.83260  0.08720  0.05720  1.0000 0.1196205301
H   H309      1.0  0.38490  0.46280  0.63780  1.0000 0.1107559607
H   H310      1.0  0.61510  0.53720  0.13780  1.0000 0.1107559607
H   H311      1.0  0.11510  0.96280  0.63780  1.0000 0.1107559607
H   H312      1.0  0.88490  0.03720  0.13780  1.0000 0.1107559607
H   H313      1.0  0.51030  0.46040  0.65220  1.0000 0.1107559607
H   H314      1.0  0.48970  0.53960  0.15220  1.0000 0.1107559607
H   H315      1.0  0.98970  0.96040  0.65220  1.0000 0.1107559607
H   H316      1.0  0.01030  0.03960  0.15220  1.0000 0.1107559607
C   C1        1.0  0.78330  0.10474  0.59300  1.0000 -0.109725356
C   C2        1.0  0.21670  0.89526  0.09300  1.0000 -0.109725356
C   C3        1.0  0.71670  0.60474  0.59300  1.0000 -0.109725356
C   C4        1.0  0.28330  0.39526  0.09300  1.0000 -0.109725356
C   C5        1.0  0.80630  0.07960  0.64660  1.0000 -0.0997384263
C   C6        1.0  0.19370  0.92040  0.14660  1.0000 -0.0997384263
C   C7        1.0  0.69370  0.57960  0.64660  1.0000 -0.0997384263
C   C8        1.0  0.30630  0.42040  0.14660  1.0000 -0.0997384263
C   C9        1.0  0.75650  0.05970  0.68760  1.0000 -0.0904043015
C   C10       1.0  0.24350  0.94030  0.18760  1.0000 -0.0904043015
C   C11       1.0  0.74350  0.55970  0.68760  1.0000 -0.0904043015
C   C12       1.0  0.25650  0.44030  0.18760  1.0000 -0.0904043015
C   C13       1.0  0.68190  0.06300  0.67410  1.0000 -0.1379499348
C   C14       1.0  0.31810  0.93700  0.17410  1.0000 -0.1379499348
C   C15       1.0  0.81810  0.56300  0.67410  1.0000 -0.1379499348
C   C16       1.0  0.18190  0.43700  0.17410  1.0000 -0.1379499348
C   C17       1.0  0.65740  0.08721  0.62078  1.0000 0.0526051905
C   C18       1.0  0.34260  0.91279  0.12078  1.0000 0.0526051905
C   C19       1.0  0.84260  0.58721  0.62078  1.0000 0.0526051905
C   C20       1.0  0.15740  0.41279  0.12078  1.0000 0.0526051905
C   C21       1.0  0.70880  0.11052  0.58013  1.0000 -0.0791539533
C   C22       1.0  0.29120  0.88948  0.08013  1.0000 -0.0791539533
C   C23       1.0  0.79120  0.61052  0.58013  1.0000 -0.0791539533
C   C24       1.0  0.20880  0.38948  0.08013  1.0000 -0.0791539533
C   C25       1.0  0.57830  0.07884  0.60397  1.0000 0.0526051905
C   C26       1.0  0.42170  0.92116  0.10397  1.0000 0.0526051905
C   C27       1.0  0.92170  0.57884  0.60397  1.0000 0.0526051905
C   C28       1.0  0.07830  0.42116  0.10397  1.0000 0.0526051905
C   C29       1.0  0.52030  0.10146  0.63780  1.0000 -0.0791539533
C   C30       1.0  0.47970  0.89854  0.13780  1.0000 -0.0791539533
C   C31       1.0  0.97970  0.60146  0.63780  1.0000 -0.0791539533
C   C32       1.0  0.02030  0.39854  0.13780  1.0000 -0.0791539533
C   C33       1.0  0.53030  0.14878  0.68665  1.0000 0.5518425515
C   C34       1.0  0.46970  0.85122  0.18665  1.0000 0.5518425515
C   C35       1.0  0.96970  0.64878  0.68665  1.0000 0.5518425515
C   C36       1.0  0.03030  0.35122  0.18665  1.0000 0.5518425515
C   C37       1.0  0.44890  0.08370  0.62480  1.0000 -0.0997384263
C   C38       1.0  0.55110  0.91630  0.12480  1.0000 -0.0997384263
C   C39       1.0  0.05110  0.58370  0.62480  1.0000 -0.0997384263
C   C40       1.0  0.94890  0.41630  0.12480  1.0000 -0.0997384263
C   C41       1.0  0.43440  0.04540  0.57590  1.0000 -0.0997384263
C   C42       1.0  0.56560  0.95460  0.07590  1.0000 -0.0997384263
C   C43       1.0  0.06560  0.54540  0.57590  1.0000 -0.0997384263
C   C44       1.0  0.93440  0.45460  0.07590  1.0000 -0.0997384263
C   C45       1.0  0.49200  0.02560  0.54020  1.0000 -0.0997384263
C   C46       1.0  0.50800  0.97440  0.04020  1.0000 -0.0997384263
C   C47       1.0  0.00800  0.52560  0.54020  1.0000 -0.0997384263
C   C48       1.0  0.99200  0.47440  0.04020  1.0000 -0.0997384263
C   C49       1.0  0.56250  0.04150  0.55460  1.0000 -0.1379499348
C   C50       1.0  0.43750  0.95850  0.05460  1.0000 -0.1379499348
C   C51       1.0  0.93750  0.54150  0.55460  1.0000 -0.1379499348
C   C52       1.0  0.06250  0.45850  0.05460  1.0000 -0.1379499348
C   C53       1.0  0.68750  0.14486  0.52490  1.0000 0.5518425515
C   C54       1.0  0.31250  0.85514  0.02490  1.0000 0.5518425515
C   C55       1.0  0.81250  0.64486  0.52490  1.0000 0.5518425515
C   C56       1.0  0.18750  0.35514  0.02490  1.0000 0.5518425515
C   C57       1.0  0.58480  0.65914  0.26717  1.0000 0.0032620525
C   C58       1.0  0.41520  0.34086  0.76717  1.0000 0.0032620525
C   C59       1.0  0.91520  0.15914  0.26717  1.0000 0.0032620525
C   C60       1.0  0.08480  0.84086  0.76717  1.0000 0.0032620525
C   C61       1.0  0.65460  0.63438  0.27115  1.0000 0.0526051905
C   C62       1.0  0.34540  0.36562  0.77115  1.0000 0.0526051905
C   C63       1.0  0.84540  0.13438  0.27115  1.0000 0.0526051905
C   C64       1.0  0.15460  0.86562  0.77115  1.0000 0.0526051905
C   C65       1.0  0.71260  0.67580  0.27290  1.0000 -0.0904043015
C   C66       1.0  0.28740  0.32420  0.77290  1.0000 -0.0904043015
C   C67       1.0  0.78740  0.17580  0.27290  1.0000 -0.0904043015
C   C68       1.0  0.21260  0.82420  0.77290  1.0000 -0.0904043015
C   C69       1.0  0.66460  0.56489  0.27250  1.0000 -0.1799908561
C   C70       1.0  0.33540  0.43511  0.77250  1.0000 -0.1799908561
C   C71       1.0  0.83540  0.06489  0.27250  1.0000 -0.1799908561
C   C72       1.0  0.16460  0.93511  0.77250  1.0000 -0.1799908561
C   C73       1.0  0.69920  0.73850  0.27120  1.0000 -0.1198492307
C   C74       1.0  0.30080  0.26150  0.77120  1.0000 -0.1198492307
C   C75       1.0  0.80080  0.23850  0.27120  1.0000 -0.1198492307
C   C76       1.0  0.19920  0.76150  0.77120  1.0000 -0.1198492307
C   C77       1.0  0.62780  0.75962  0.26760  1.0000 0.0612059113
C   C78       1.0  0.37220  0.24038  0.76760  1.0000 0.0612059113
C   C79       1.0  0.87220  0.25962  0.26760  1.0000 0.0612059113
C   C80       1.0  0.12780  0.74038  0.76760  1.0000 0.0612059113
C   C81       1.0  0.65000  0.46700  0.33030  1.0000 -0.1379499348
C   C82       1.0  0.35000  0.53300  0.83030  1.0000 -0.1293992373
C   C83       1.0  0.85000  0.96700  0.33030  1.0000 -0.1379499348
C   C84       1.0  0.15000  0.03300  0.83030  1.0000 -0.1293992373
C   C85       1.0  0.70030  0.55868  0.38150  1.0000 -0.1293992373
C   C86       1.0  0.29970  0.44132  0.88150  1.0000 -0.1293992373
C   C87       1.0  0.79970  0.05868  0.38150  1.0000 -0.1293992373
C   C88       1.0  0.20030  0.94132  0.88150  1.0000 -0.1293992373
C   C89       1.0  0.72640  0.44056  0.32720  1.0000 -0.1293992373
C   C90       1.0  0.27360  0.55944  0.82720  1.0000 -0.1293992373
C   C91       1.0  0.77360  0.94056  0.32720  1.0000 -0.1293992373
C   C92       1.0  0.22640  0.05944  0.82720  1.0000 -0.1293992373
C   C93       1.0  0.77500  0.52776  0.37780  1.0000 -0.1198492307
C   C94       1.0  0.22500  0.47224  0.87780  1.0000 -0.1198492307
C   C95       1.0  0.72500  0.02776  0.37780  1.0000 -0.1198492307
C   C96       1.0  0.27500  0.97224  0.87780  1.0000 -0.1198492307
C   C97       1.0  0.84010  0.43120  0.38340  1.0000 -0.1684477815
C   C98       1.0  0.15990  0.56880  0.88340  1.0000 -0.1684477815
C   C99       1.0  0.65990  0.93120  0.38340  1.0000 -0.1684477815
C   C100      1.0  0.34010  0.06880  0.88340  1.0000 -0.1684477815
C   C101      1.0  0.83810  0.36360  0.40136  1.0000 0.0667446714
C   C102      1.0  0.16190  0.63640  0.90136  1.0000 0.0667446714
C   C103      1.0  0.66190  0.86360  0.40136  1.0000 0.0667446714
C   C104      1.0  0.33810  0.13640  0.90136  1.0000 0.0667446714
C   C105      1.0  0.77320  0.33319  0.41774  1.0000 0.0285477518
C   C106      1.0  0.22680  0.66681  0.91774  1.0000 0.0285477518
C   C107      1.0  0.72680  0.83319  0.41774  1.0000 0.0285477518
C   C108      1.0  0.27320  0.16681  0.91774  1.0000 0.0285477518
C   C109      1.0  0.90150  0.32886  0.40220  1.0000 -0.0904043015
C   C110      1.0  0.09850  0.67114  0.90220  1.0000 -0.0904043015
C   C111      1.0  0.59850  0.82886  0.40220  1.0000 -0.0904043015
C   C112      1.0  0.40150  0.17114  0.90220  1.0000 -0.0904043015
C   C113      1.0  0.89850  0.26670  0.41870  1.0000 -0.1198492307
C   C114      1.0  0.10150  0.73330  0.91870  1.0000 -0.1198492307
C   C115      1.0  0.60150  0.76670  0.41870  1.0000 -0.1198492307
C   C116      1.0  0.39850  0.23330  0.91870  1.0000 -0.1198492307
C   C117      1.0  0.83290  0.23981  0.43160  1.0000 0.0285477518
C   C118      1.0  0.16710  0.76019  0.93160  1.0000 0.0285477518
C   C119      1.0  0.66710  0.73981  0.43160  1.0000 0.0285477518
C   C120      1.0  0.33290  0.26019  0.93160  1.0000 0.0285477518
C   C121      1.0  0.73780  0.23779  0.67210  1.0000 0.0067494067
C   C122      1.0  0.26220  0.76221  0.17210  1.0000 0.0067494067
C   C123      1.0  0.76220  0.73779  0.67210  1.0000 0.0067494067
C   C124      1.0  0.23780  0.26221  0.17210  1.0000 0.0067494067
C   C125      1.0  0.76380  0.28070  0.58060  1.0000 0.0765549651
C   C126      1.0  0.23620  0.71930  0.08060  1.0000 0.0765549651
C   C127      1.0  0.73620  0.78070  0.58060  1.0000 0.0765549651
C   C128      1.0  0.26380  0.21930  0.08060  1.0000 0.0765549651
C   C129      1.0  0.81090  0.23330  0.68630  1.0000 0.0667446714
C   C130      1.0  0.18910  0.76670  0.18630  1.0000 0.0667446714
C   C131      1.0  0.68910  0.73330  0.68630  1.0000 0.0667446714
C   C132      1.0  0.31090  0.26670  0.18630  1.0000 0.0667446714
C   C133      1.0  0.83700  0.27810  0.59110  1.0000 -0.1379499348
C   C134      1.0  0.16300  0.72190  0.09110  1.0000 -0.1379499348
C   C135      1.0  0.66300  0.77810  0.59110  1.0000 -0.1379499348
C   C136      1.0  0.33700  0.22190  0.09110  1.0000 -0.1379499348
C   C137      1.0  0.86120  0.25390  0.64500  1.0000 -0.0997384263
C   C138      1.0  0.13880  0.74610  0.14500  1.0000 -0.0997384263
C   C139      1.0  0.63880  0.75390  0.64500  1.0000 -0.0997384263
C   C140      1.0  0.36120  0.24610  0.14500  1.0000 -0.0997384263
C   C141      1.0  0.83210  0.20330  0.74465  1.0000 -0.1799908561
C   C142      1.0  0.16790  0.79670  0.24465  1.0000 -0.1799908561
C   C143      1.0  0.66790  0.70330  0.74465  1.0000 -0.1799908561
C   C144      1.0  0.33210  0.29670  0.24465  1.0000 -0.1799908561
C   C145      1.0  0.80160  0.29610  0.80580  1.0000 -0.109725356
C   C146      1.0  0.19840  0.70390  0.30580  1.0000 -0.109725356
C   C147      1.0  0.69840  0.79610  0.80580  1.0000 -0.109725356
C   C148      1.0  0.30160  0.20390  0.30580  1.0000 -0.109725356
C   C149      1.0  0.87970  0.21327  0.84523  1.0000 -0.1198492307
C   C150      1.0  0.12030  0.78673  0.34523  1.0000 -0.1198492307
C   C151      1.0  0.62030  0.71327  0.84523  1.0000 -0.1198492307
C   C152      1.0  0.37970  0.28673  0.34523  1.0000 -0.1198492307
C   C153      1.0  0.82790  0.33927  0.85444  1.0000 -0.1198492307
C   C154      1.0  0.17210  0.66073  0.35444  1.0000 -0.1198492307
C   C155      1.0  0.67210  0.83927  0.85444  1.0000 -0.1198492307
C   C156      1.0  0.32790  0.16073  0.35444  1.0000 -0.1198492307
C   C157      1.0  0.90570  0.25735  0.89300  1.0000 -0.1198492307
C   C158      1.0  0.09430  0.74265  0.39300  1.0000 -0.1198492307
C   C159      1.0  0.59430  0.75735  0.89300  1.0000 -0.1198492307
C   C160      1.0  0.40570  0.24265  0.39300  1.0000 -0.1198492307
C   C161      1.0  0.86880  0.34533  0.95889  1.0000 -0.1571799705
C   C162      1.0  0.13120  0.65467  0.45889  1.0000 -0.1571799705
C   C163      1.0  0.63120  0.84533  0.95889  1.0000 -0.1571799705
C   C164      1.0  0.36880  0.15467  0.45889  1.0000 -0.1571799705
C   C165      1.0  0.88550  0.31070  0.01517  1.0000 0.0612059113
C   C166      1.0  0.11450  0.68930  0.51517  1.0000 0.0612059113
C   C167      1.0  0.61450  0.81070  0.01517  1.0000 0.0612059113
C   C168      1.0  0.38550  0.18930  0.51517  1.0000 0.0612059113
C   C169      1.0  0.95730  0.29386  0.02877  1.0000 0.0285477518
C   C170      1.0  0.04270  0.70614  0.52877  1.0000 0.0285477518
C   C171      1.0  0.54270  0.79386  0.02877  1.0000 0.0285477518
C   C172      1.0  0.45730  0.20614  0.52877  1.0000 0.0285477518
C   C173      1.0  0.83190  0.29310  0.05540  1.0000 -0.0738485057
C   C174      1.0  0.16810  0.70690  0.55540  1.0000 -0.0738485057
C   C175      1.0  0.66810  0.79310  0.05540  1.0000 -0.0738485057
C   C176      1.0  0.33190  0.20690  0.55540  1.0000 -0.0738485057
C   C177      1.0  0.85070  0.26080  0.10590  1.0000 -0.1198492307
C   C178      1.0  0.14930  0.73920  0.60590  1.0000 -0.1198492307
C   C179      1.0  0.64930  0.76080  0.10590  1.0000 -0.1198492307
C   C180      1.0  0.35070  0.23920  0.60590  1.0000 -0.1198492307
C   C181      1.0  0.92220  0.24390  0.11460  1.0000 0.0612059113
C   C182      1.0  0.07780  0.75610  0.61460  1.0000 0.0612059113
C   C183      1.0  0.57780  0.74390  0.11460  1.0000 0.0612059113
C   C184      1.0  0.42220  0.25610  0.61460  1.0000 0.0612059113
C   C185      1.0  0.66640  0.12840  0.88250  1.0000 -0.0546425993
C   C186      1.0  0.33360  0.87160  0.38250  1.0000 -0.0546425993
C   C187      1.0  0.83360  0.62840  0.88250  1.0000 -0.0546425993
C   C188      1.0  0.16640  0.37160  0.38250  1.0000 -0.0546425993
C   C189      1.0  0.65730  0.12340  0.94510  1.0000 0.0612059113
C   C190      1.0  0.34270  0.87660  0.44510  1.0000 0.0612059113
C   C191      1.0  0.84270  0.62340  0.94510  1.0000 0.0612059113
C   C192      1.0  0.15730  0.37660  0.44510  1.0000 0.0612059113
C   C193      1.0  0.62640  0.17470  0.84490  1.0000 0.5518425515
C   C194      1.0  0.37360  0.82530  0.34490  1.0000 0.5518425515
C   C195      1.0  0.87360  0.67470  0.84490  1.0000 0.5518425515
C   C196      1.0  0.12640  0.32530  0.34490  1.0000 0.5518425515
C   C197      1.0  0.61260  0.16730  0.98090  1.0000 0.0612059113
C   C198      1.0  0.38740  0.83270  0.48090  1.0000 0.0612059113
C   C199      1.0  0.88740  0.66730  0.98090  1.0000 0.0612059113
C   C200      1.0  0.11260  0.33270  0.48090  1.0000 0.0612059113
C   C201      1.0  0.58560  0.14112  0.36561  1.0000 0.5518425515
C   C202      1.0  0.41440  0.85888  0.86561  1.0000 0.5518425515
C   C203      1.0  0.91440  0.64112  0.36561  1.0000 0.5518425515
C   C204      1.0  0.08560  0.35888  0.86561  1.0000 0.5518425515
C   C205      1.0  0.71190  0.08670  0.85330  1.0000 -0.1293992373
C   C206      1.0  0.28810  0.91330  0.35330  1.0000 -0.1293992373
C   C207      1.0  0.78810  0.58670  0.85330  1.0000 -0.1293992373
C   C208      1.0  0.21190  0.41330  0.35330  1.0000 -0.1293992373
C   C209      1.0  0.55950  0.14250  0.02050  1.0000 -0.151744174
C   C210      1.0  0.44050  0.85750  0.52050  1.0000 -0.151744174
C   C211      1.0  0.94050  0.64250  0.02050  1.0000 -0.151744174
C   C212      1.0  0.05950  0.35750  0.52050  1.0000 -0.151744174
C   C213      1.0  0.51740  0.18110  0.05510  1.0000 -0.0904043015
C   C214      1.0  0.48260  0.81890  0.55510  1.0000 -0.0904043015
C   C215      1.0  0.98260  0.68110  0.05510  1.0000 -0.0904043015
C   C216      1.0  0.01740  0.31890  0.55510  1.0000 -0.0904043015
C   C217      1.0  0.68190  0.26320  0.94530  1.0000 0.5518425515
C   C218      1.0  0.31810  0.73680  0.44530  1.0000 0.5518425515
C   C219      1.0  0.81810  0.76320  0.94530  1.0000 0.5518425515
C   C220      1.0  0.18190  0.23680  0.44530  1.0000 0.5518425515
C   C221      1.0  0.62070  0.23160  0.97860  1.0000 -0.0632332354
C   C222      1.0  0.37930  0.76840  0.47860  1.0000 -0.0632332354
C   C223      1.0  0.87930  0.73160  0.97860  1.0000 -0.0632332354
C   C224      1.0  0.12070  0.26840  0.47860  1.0000 -0.0632332354
C   C225      1.0  0.54780  0.34494  0.48290  1.0000 0.5683440974
C   C226      1.0  0.45220  0.65506  0.98290  1.0000 0.5683440974
C   C227      1.0  0.95220  0.84494  0.48290  1.0000 0.5683440974
C   C228      1.0  0.04780  0.15506  0.98290  1.0000 0.5683440974
C   C229      1.0  0.50410  0.37925  0.52870  1.0000 -0.0997384263
C   C230      1.0  0.49590  0.62075  0.02870  1.0000 -0.0997384263
C   C231      1.0  0.99590  0.87925  0.52870  1.0000 -0.0997384263
C   C232      1.0  0.00410  0.12075  0.02870  1.0000 -0.0997384263
C   C233      1.0  0.53550  0.40910  0.57820  1.0000 0.0382453444
C   C234      1.0  0.46450  0.59090  0.07820  1.0000 0.0382453444
C   C235      1.0  0.96450  0.90910  0.57820  1.0000 0.0382453444
C   C236      1.0  0.03550  0.09090  0.07820  1.0000 0.0382453444
C   C237      1.0  0.61610  0.41443  0.58470  1.0000 0.0382453444
C   C238      1.0  0.38390  0.58557  0.08470  1.0000 0.0382453444
C   C239      1.0  0.88390  0.91443  0.58470  1.0000 0.0382453444
C   C240      1.0  0.11610  0.08557  0.08470  1.0000 0.0382453444
C   C241      1.0  0.65140  0.40180  0.63970  1.0000 -0.0904043015
C   C242      1.0  0.34860  0.59820  0.13970  1.0000 -0.0904043015
C   C243      1.0  0.84860  0.90180  0.63970  1.0000 -0.0904043015
C   C244      1.0  0.15140  0.09820  0.13970  1.0000 -0.0904043015
C   C245      1.0  0.65830  0.43690  0.53830  1.0000 -0.1379499348
C   C246      1.0  0.34170  0.56310  0.03830  1.0000 -0.1379499348
C   C247      1.0  0.84170  0.93690  0.53830  1.0000 -0.1379499348
C   C248      1.0  0.15830  0.06310  0.03830  1.0000 -0.1379499348
C   C249      1.0  0.72560  0.41290  0.64530  1.0000 -0.109725356
C   C250      1.0  0.27440  0.58710  0.14530  1.0000 -0.109725356
C   C251      1.0  0.77440  0.91290  0.64530  1.0000 -0.109725356
C   C252      1.0  0.22560  0.08710  0.14530  1.0000 -0.109725356
C   C253      1.0  0.73150  0.44630  0.54350  1.0000 -0.0997384263
C   C254      1.0  0.26850  0.55370  0.04350  1.0000 -0.0997384263
C   C255      1.0  0.76850  0.94630  0.54350  1.0000 -0.0997384263
C   C256      1.0  0.23150  0.05370  0.04350  1.0000 -0.0997384263
C   C257      1.0  0.76630  0.43400  0.59770  1.0000 -0.0997384263
C   C258      1.0  0.23370  0.56600  0.09770  1.0000 -0.0997384263
C   C259      1.0  0.73370  0.93400  0.59770  1.0000 -0.0997384263
C   C260      1.0  0.26630  0.06600  0.09770  1.0000 -0.0997384263
C   C261      1.0  0.61260  0.37370  0.69230  1.0000 0.576439779
C   C262      1.0  0.38740  0.62630  0.19230  1.0000 0.576439779
C   C263      1.0  0.88740  0.87370  0.69230  1.0000 0.576439779
C   C264      1.0  0.11260  0.12630  0.19230  1.0000 0.576439779
C   C265      1.0  0.57530  0.26980  0.01300  1.0000 -0.0904043015
C   C266      1.0  0.42470  0.73020  0.51300  1.0000 -0.0904043015
C   C267      1.0  0.92470  0.76980  0.01300  1.0000 -0.0904043015
C   C268      1.0  0.07530  0.23020  0.51300  1.0000 -0.0904043015
C   C269      1.0  0.54550  0.08711  0.33896  1.0000 -0.0632332354
C   C270      1.0  0.45450  0.91289  0.83896  1.0000 -0.0632332354
C   C271      1.0  0.95450  0.58711  0.33896  1.0000 -0.0632332354
C   C272      1.0  0.04550  0.41289  0.83896  1.0000 -0.0632332354
C   C273      1.0  0.50490  0.05092  0.37830  1.0000 -0.1379499348
C   C274      1.0  0.49510  0.94908  0.87830  1.0000 -0.1379499348
C   C275      1.0  0.99510  0.55092  0.37830  1.0000 -0.1379499348
C   C276      1.0  0.00490  0.44908  0.87830  1.0000 -0.1379499348
C   C277      1.0  0.55000  0.06924  0.27860  1.0000 0.0667446714
C   C278      1.0  0.45000  0.93076  0.77860  1.0000 0.0667446714
C   C279      1.0  0.95000  0.56924  0.27860  1.0000 0.0667446714
C   C280      1.0  0.05000  0.43076  0.77860  1.0000 0.0667446714
C   C281      1.0  0.46920  0.99740  0.36050  1.0000 -0.109725356
C   C282      1.0  0.53080  0.00260  0.86050  1.0000 -0.109725356
C   C283      1.0  0.03080  0.49740  0.36050  1.0000 -0.109725356
C   C284      1.0  0.96920  0.50260  0.86050  1.0000 -0.109725356
C   C285      1.0  0.51340  0.01470  0.26190  1.0000 -0.1379499348
C   C286      1.0  0.48660  0.98530  0.76190  1.0000 -0.1379499348
C   C287      1.0  0.98660  0.51470  0.26190  1.0000 -0.1379499348
C   C288      1.0  0.01340  0.48530  0.76190  1.0000 -0.1379499348
C   C289      1.0  0.59290  0.10340  0.23288  1.0000 0.0612059113
C   C290      1.0  0.40710  0.89660  0.73288  1.0000 0.0612059113
C   C291      1.0  0.90710  0.60340  0.23288  1.0000 0.0612059113
C   C292      1.0  0.09290  0.39660  0.73288  1.0000 0.0612059113
C   C293      1.0  0.47350  0.97970  0.30180  1.0000 -0.0738485057
C   C294      1.0  0.52650  0.02030  0.80180  1.0000 -0.0738485057
C   C295      1.0  0.02650  0.47970  0.30180  1.0000 -0.0738485057
C   C296      1.0  0.97350  0.52030  0.80180  1.0000 -0.0738485057
C   C297      1.0  0.64440  0.06890  0.19960  1.0000 -0.1684477815
C   C298      1.0  0.35560  0.93110  0.69960  1.0000 -0.1684477815
C   C299      1.0  0.85560  0.56890  0.19960  1.0000 -0.1684477815
C   C300      1.0  0.14440  0.43110  0.69960  1.0000 -0.1684477815
C   C301      1.0  0.58600  0.16770  0.22045  1.0000 -0.0632332354
C   C302      1.0  0.41400  0.83230  0.72045  1.0000 -0.0632332354
C   C303      1.0  0.91400  0.66770  0.22045  1.0000 -0.0632332354
C   C304      1.0  0.08600  0.33230  0.72045  1.0000 -0.0632332354
C   C305      1.0  0.68760  0.09680  0.15570  1.0000 -0.109725356
C   C306      1.0  0.31240  0.90320  0.65570  1.0000 -0.109725356
C   C307      1.0  0.81240  0.59680  0.15570  1.0000 -0.109725356
C   C308      1.0  0.18760  0.40320  0.65570  1.0000 -0.109725356
C   C309      1.0  0.62980  0.19520  0.17770  1.0000 -0.109725356
C   C310      1.0  0.37020  0.80480  0.67770  1.0000 -0.109725356
C   C311      1.0  0.87020  0.69520  0.17770  1.0000 -0.109725356
C   C312      1.0  0.12980  0.30480  0.67770  1.0000 -0.109725356
C   C313      1.0  0.52690  0.20750  0.24775  1.0000 0.5518425515
C   C314      1.0  0.47310  0.79250  0.74775  1.0000 0.5518425515
C   C315      1.0  0.97310  0.70750  0.24775  1.0000 0.5518425515
C   C316      1.0  0.02690  0.29250  0.74775  1.0000 0.5518425515
C   C317      1.0  0.74740  0.03930  0.88390  1.0000 -0.109725356
C   C318      1.0  0.25260  0.96070  0.38390  1.0000 -0.109725356
C   C319      1.0  0.75260  0.53930  0.88390  1.0000 -0.109725356
C   C320      1.0  0.24740  0.46070  0.38390  1.0000 -0.109725356
C   C321      1.0  0.73600  0.03280  0.94570  1.0000 -0.0904043015
C   C322      1.0  0.26400  0.96720  0.44570  1.0000 -0.0904043015
C   C323      1.0  0.76400  0.53280  0.94570  1.0000 -0.0904043015
C   C324      1.0  0.23600  0.46720  0.44570  1.0000 -0.0904043015
C   C325      1.0  0.69280  0.07420  0.97380  1.0000 -0.151744174
C   C326      1.0  0.30720  0.92580  0.47380  1.0000 -0.151744174
C   C327      1.0  0.80720  0.57420  0.97380  1.0000 -0.151744174
C   C328      1.0  0.19280  0.42580  0.47380  1.0000 -0.151744174
C   C329      1.0  0.52350  0.24360  0.05140  1.0000 -0.109725356
C   C330      1.0  0.47650  0.75640  0.55140  1.0000 -0.109725356
C   C331      1.0  0.97650  0.74360  0.05140  1.0000 -0.109725356
C   C332      1.0  0.02350  0.25640  0.55140  1.0000 -0.109725356
C   C333      1.0  0.67970  0.15970  0.14490  1.0000 -0.109725356
C   C334      1.0  0.32030  0.84030  0.64490  1.0000 -0.109725356
C   C335      1.0  0.82030  0.65970  0.14490  1.0000 -0.109725356
C   C336      1.0  0.17970  0.34030  0.64490  1.0000 -0.109725356
C   C337      1.0  0.42730  0.38210  0.52030  1.0000 -0.0997384263
C   C338      1.0  0.57270  0.61790  0.02030  1.0000 -0.0997384263
C   C339      1.0  0.07270  0.88210  0.52030  1.0000 -0.0997384263
C   C340      1.0  0.92730  0.11790  0.02030  1.0000 -0.0997384263
C   C341      1.0  0.38410  0.41230  0.56200  1.0000 -0.0997384263
C   C342      1.0  0.61590  0.58770  0.06200  1.0000 -0.0997384263
C   C343      1.0  0.11590  0.91230  0.56200  1.0000 -0.0997384263
C   C344      1.0  0.88410  0.08770  0.06200  1.0000 -0.0997384263
C   C345      1.0  0.41500  0.44140  0.60990  1.0000 -0.0791539533
C   C346      1.0  0.58500  0.55860  0.10990  1.0000 -0.0791539533
C   C347      1.0  0.08500  0.94140  0.60990  1.0000 -0.0791539533
C   C348      1.0  0.91500  0.05860  0.10990  1.0000 -0.0791539533
C   C349      1.0  0.48970  0.44000  0.61850  1.0000 -0.1293992373
C   C350      1.0  0.51030  0.56000  0.11850  1.0000 -0.1293992373
C   C351      1.0  0.01030  0.94000  0.61850  1.0000 -0.1293992373
C   C352      1.0  0.98970  0.06000  0.11850  1.0000 -0.1293992373
N   N1        1.0  0.57093  0.72026  0.26603  1.0000 -0.2493451034
N   N2        1.0  0.42907  0.27974  0.76603  1.0000 -0.2493451034
N   N3        1.0  0.92907  0.22026  0.26603  1.0000 -0.2493451034
N   N4        1.0  0.07093  0.77974  0.76603  1.0000 -0.2493451034
N   N5        1.0  0.64986  0.53681  0.33278  1.0000 0.0228514148
N   N6        1.0  0.35014  0.46319  0.83278  1.0000 0.0228514148
N   N7        1.0  0.85014  0.03681  0.33278  1.0000 0.0228514148
N   N8        1.0  0.14986  0.96319  0.83278  1.0000 0.0228514148
N   N9        1.0  0.76760  0.46020  0.38034  1.0000 -0.0997384263
N   N10       1.0  0.23240  0.53980  0.88034  1.0000 -0.109725356
N   N11       1.0  0.73240  0.96020  0.38034  1.0000 -0.0997384263
N   N12       1.0  0.26760  0.03980  0.88034  1.0000 -0.109725356
N   N13       1.0  0.76993  0.27289  0.43031  1.0000 -0.2493451034
N   N14       1.0  0.23007  0.72711  0.93031  1.0000 -0.2493451034
N   N15       1.0  0.73007  0.77289  0.43031  1.0000 -0.2493451034
N   N16       1.0  0.26993  0.22711  0.93031  1.0000 -0.2493451034
N   N17       1.0  0.71448  0.26164  0.61947  1.0000 -0.2493451034
N   N18       1.0  0.28552  0.73836  0.11947  1.0000 -0.2493451034
N   N19       1.0  0.78552  0.76164  0.61947  1.0000 -0.2493451034
N   N20       1.0  0.21448  0.23836  0.11947  1.0000 -0.2493451034
N   N21       1.0  0.85761  0.24858  0.79079  1.0000 -0.0099811216
N   N22       1.0  0.14239  0.75142  0.29079  1.0000 -0.0099811216
N   N23       1.0  0.64239  0.74858  0.79079  1.0000 -0.0099811216
N   N24       1.0  0.35761  0.25142  0.29079  1.0000 -0.0099811216
N   N25       1.0  0.84765  0.30302  0.90863  1.0000 -0.0203372065
N   N26       1.0  0.15235  0.69698  0.40863  1.0000 -0.0203372065
N   N27       1.0  0.65235  0.80302  0.90863  1.0000 -0.0203372065
N   N28       1.0  0.34765  0.19698  0.40863  1.0000 -0.0203372065
N   N29       1.0  0.97532  0.26106  0.07699  1.0000 -0.2493451034
N   N30       1.0  0.02468  0.73894  0.57699  1.0000 -0.2493451034
N   N31       1.0  0.52468  0.76106  0.07699  1.0000 -0.2493451034
N   N32       1.0  0.47532  0.23894  0.57699  1.0000 -0.2493451034
Cl  Cl1       1.0  0.21596  0.09545  0.65019  1.0000 1.2509779742
Cl  Cl2       1.0  0.78404  0.90455  0.15019  1.0000 1.2509779742
Cl  Cl3       1.0  0.28404  0.59545  0.65019  1.0000 1.2509779742
Cl  Cl4       1.0  0.71596  0.40455  0.15019  1.0000 1.2509779742
O   O1        1.0  0.57704  0.19205  0.67899  1.0000 -0.5585831711
O   O2        1.0  0.42296  0.80795  0.17899  1.0000 -0.5585831711
O   O3        1.0  0.92296  0.69205  0.67899  1.0000 -0.5585831711
O   O4        1.0  0.07704  0.30795  0.17899  1.0000 -0.5585831711
O   O5        1.0  0.49095  0.14716  0.73192  1.0000 -0.532982547
O   O6        1.0  0.50905  0.85284  0.23192  1.0000 -0.532982547
O   O7        1.0  0.00905  0.64716  0.73192  1.0000 -0.532982547
O   O8        1.0  0.99095  0.35284  0.23192  1.0000 -0.532982547
O   O9        1.0  0.63375  0.18323  0.52788  1.0000 -0.5585831711
O   O10       1.0  0.36625  0.81677  0.02788  1.0000 -0.5585831711
O   O11       1.0  0.86625  0.68323  0.52788  1.0000 -0.5585831711
O   O12       1.0  0.13375  0.31677  0.02788  1.0000 -0.5585831711
O   O13       1.0  0.72372  0.13927  0.47807  1.0000 -0.5585831711
O   O14       1.0  0.27628  0.86073  0.97807  1.0000 -0.5585831711
O   O15       1.0  0.77628  0.63927  0.47807  1.0000 -0.5585831711
O   O16       1.0  0.22372  0.36073  0.97807  1.0000 -0.5585831711
O   O17       1.0  0.56112  0.18704  0.85704  1.0000 -0.5407234022
O   O18       1.0  0.43888  0.81296  0.35704  1.0000 -0.5407234022
O   O19       1.0  0.93888  0.68704  0.85704  1.0000 -0.5407234022
O   O20       1.0  0.06112  0.31296  0.35704  1.0000 -0.5407234022
O   O21       1.0  0.65899  0.19849  0.80080  1.0000 -0.5585831711
O   O22       1.0  0.34101  0.80151  0.30080  1.0000 -0.5585831711
O   O23       1.0  0.84101  0.69849  0.80080  1.0000 -0.5585831711
O   O24       1.0  0.15899  0.30151  0.30080  1.0000 -0.5585831711
O   O25       1.0  0.64850  0.15557  0.34819  1.0000 -0.551211813
O   O26       1.0  0.35150  0.84443  0.84819  1.0000 -0.551211813
O   O27       1.0  0.85150  0.65557  0.34819  1.0000 -0.551211813
O   O28       1.0  0.14850  0.34443  0.84819  1.0000 -0.551211813
O   O29       1.0  0.55464  0.16921  0.40875  1.0000 -0.551211813
O   O30       1.0  0.44536  0.83079  0.90875  1.0000 -0.551211813
O   O31       1.0  0.94536  0.66921  0.40875  1.0000 -0.551211813
O   O32       1.0  0.05464  0.33079  0.90875  1.0000 -0.551211813
O   O33       1.0  0.59655  0.30571  0.50002  1.0000 -0.6111685077
O   O34       1.0  0.40345  0.69429  0.00002  1.0000 -0.6111685077
O   O35       1.0  0.90345  0.80571  0.50002  1.0000 -0.6111685077
O   O36       1.0  0.09655  0.19429  0.00002  1.0000 -0.6111685077
O   O37       1.0  0.62798  0.29982  0.35691  1.0000 -0.71214268
O   O38       1.0  0.37202  0.70018  0.85691  1.0000 -0.71214268
O   O39       1.0  0.87202  0.79982  0.35691  1.0000 -0.71214268
O   O40       1.0  0.12798  0.20018  0.85691  1.0000 -0.71214268
O   O41       1.0  0.53154  0.35386  0.42959  1.0000 -0.5407234022
O   O42       1.0  0.46846  0.64614  0.92959  1.0000 -0.5407234022
O   O43       1.0  0.96846  0.85386  0.42959  1.0000 -0.5407234022
O   O44       1.0  0.03154  0.14614  0.92959  1.0000 -0.5407234022
O   O45       1.0  0.57890  0.32173  0.68525  1.0000 -0.6111685077
O   O46       1.0  0.42110  0.67827  0.18525  1.0000 -0.6111685077
O   O47       1.0  0.92110  0.82173  0.68525  1.0000 -0.6111685077
O   O48       1.0  0.07890  0.17827  0.18525  1.0000 -0.6111685077
O   O49       1.0  0.61700  0.40115  0.74157  1.0000 -0.551211813
O   O50       1.0  0.38300  0.59885  0.24157  1.0000 -0.551211813
O   O51       1.0  0.88300  0.90115  0.74157  1.0000 -0.551211813
O   O52       1.0  0.11700  0.09885  0.24157  1.0000 -0.551211813
O   O53       1.0  0.74306  0.23586  0.94717  1.0000 -0.5585831711
O   O54       1.0  0.25694  0.76414  0.44717  1.0000 -0.5585831711
O   O55       1.0  0.75694  0.73586  0.94717  1.0000 -0.5585831711
O   O56       1.0  0.24306  0.26414  0.44717  1.0000 -0.5585831711
O   O57       1.0  0.67229  0.31453  0.92057  1.0000 -0.5718728194
O   O58       1.0  0.32771  0.68547  0.42057  1.0000 -0.5718728194
O   O59       1.0  0.82771  0.81453  0.92057  1.0000 -0.5718728194
O   O60       1.0  0.17229  0.18547  0.42057  1.0000 -0.5718728194
O   O61       1.0  0.54061  0.26174  0.26327  1.0000 -0.5718728194
O   O62       1.0  0.45939  0.73826  0.76327  1.0000 -0.5718728194
O   O63       1.0  0.95939  0.76174  0.26327  1.0000 -0.5718728194
O   O64       1.0  0.04061  0.23826  0.76327  1.0000 -0.5718728194
O   O65       1.0  0.46374  0.18267  0.25179  1.0000 -0.5870382974
O   O66       1.0  0.53626  0.81733  0.75179  1.0000 -0.5870382974
O   O67       1.0  0.03626  0.68267  0.25179  1.0000 -0.5870382974
O   O68       1.0  0.96374  0.31733  0.75179  1.0000 -0.5870382974
O   O69       1.0  0.57220  0.33064  0.83038  1.0000 -0.721293647
O   O70       1.0  0.42780  0.66936  0.33038  1.0000 -0.721293647
O   O71       1.0  0.92780  0.83064  0.83038  1.0000 -0.721293647
O   O72       1.0  0.07220  0.16936  0.33038  1.0000 -0.721293647
O   O73       1.0  0.17910  0.14050  0.62050  1.0000 -0.4312759826
O   O74       1.0  0.17090  0.06050  0.68580  1.0000 -0.47354709
O   O75       1.0  0.27270  0.12570  0.68520  1.0000 -0.4905552158
O   O76       1.0  0.24840  0.05660  0.60960  1.0000 -0.4559252748
O   O77       1.0  0.82090  0.85950  0.12050  1.0000 -0.4312759826
O   O78       1.0  0.82910  0.93950  0.18580  1.0000 -0.47354709
O   O79       1.0  0.72730  0.87430  0.18520  1.0000 -0.4905552158
O   O80       1.0  0.75160  0.94340  0.10960  1.0000 -0.4548860976
O   O81       1.0  0.32090  0.64050  0.62050  1.0000 -0.4312759826
O   O82       1.0  0.32910  0.56050  0.68580  1.0000 -0.47354709
O   O83       1.0  0.22730  0.62570  0.68520  1.0000 -0.4905552158
O   O84       1.0  0.25160  0.55660  0.60960  1.0000 -0.4559252748
O   O85       1.0  0.67910  0.35950  0.12050  1.0000 -0.4312759826
O   O86       1.0  0.67090  0.43950  0.18580  1.0000 -0.47354709
O   O87       1.0  0.77270  0.37430  0.18520  1.0000 -0.4905552158
O   O88       1.0  0.74840  0.44340  0.10960  1.0000 -0.4548860976
