# DDEC6 charges by PACMAN v1.1 (https://github.com/mtap-research/PACMAN-charge/)
data_2011[In][nan]3[ION]1
_chemical_formula_sum              "In24 H415 C308 N56 O180"
_cell_length_a       29.756
_cell_length_b       14.5284
_cell_length_c       29.7388
_cell_angle_alpha    90
_cell_angle_beta     90
_cell_angle_gamma    90

_symmetry_space_group_name_H-M    "P 1"
_symmetry_Int_Tables_number       1

loop_
  _symmetry_equiv_pos_as_xyz
  'x, y, z'

loop_
  _atom_site_type_symbol
  _atom_site_label
  _atom_site_symmetry_multiplicity
  _atom_site_fract_x
  _atom_site_fract_y
  _atom_site_fract_z
  _atom_site_occupancy
  _atom_site_charge
In  In1       1.0  0.87423  0.13212  0.69376  1.0000 1.3732218782
In  In2       1.0  0.09532  0.12321  0.91191  1.0000 1.3198409915
In  In3       1.0  0.69420  0.87096  0.85213  1.0000 1.363587001
In  In4       1.0  0.62406  0.86937  0.19375  1.0000 1.37942518
In  In5       1.0  0.40305  0.87628  0.41170  1.0000 1.3198409915
In  In6       1.0  0.80421  0.13049  0.35193  1.0000 1.363587001
In  In7       1.0  0.12449  0.63105  0.30719  1.0000 1.37942518
In  In8       1.0  0.90327  0.62305  0.08851  1.0000 1.3198409915
In  In9       1.0  0.30449  0.37008  0.14865  1.0000 1.363587001
In  In10      1.0  0.37402  0.36886  0.80716  1.0000 1.37942518
In  In11      1.0  0.59499  0.37703  0.58843  1.0000 1.3198409915
In  In12      1.0  0.19385  0.62970  0.64848  1.0000 1.363587001
In  In13      1.0  0.12423  0.86994  0.30638  1.0000 1.37942518
In  In14      1.0  0.90330  0.87472  0.08875  1.0000 1.3198409915
In  In15      1.0  0.30436  0.13118  0.14844  1.0000 1.363587001
In  In16      1.0  0.37432  0.12973  0.80636  1.0000 1.3732218782
In  In17      1.0  0.59513  0.12553  0.58873  1.0000 1.3198409915
In  In18      1.0  0.19393  0.86879  0.64824  1.0000 1.363587001
In  In19      1.0  0.87396  0.37040  0.69383  1.0000 1.3732218782
In  In20      1.0  0.09529  0.37480  0.91193  1.0000 1.3198409915
In  In21      1.0  0.69390  0.63165  0.85175  1.0000 1.363587001
In  In22      1.0  0.62422  0.63077  0.19352  1.0000 1.37942518
In  In23      1.0  0.40327  0.62478  0.41187  1.0000 1.3198409915
In  In24      1.0  0.80426  0.36984  0.35196  1.0000 1.363587001
H   H1        1.0  0.77912  0.10292  0.79649  1.0000 0.1095962149
H   H2        1.0  0.79392  0.89961  0.75420  1.0000 0.1095962149
H   H3        1.0  0.74851  0.11985  0.60994  1.0000 0.1095962149
H   H4        1.0  0.70432  0.13328  0.47218  1.0000 0.0997369179
H   H5        1.0  0.99132  0.12971  0.79508  1.0000 0.1191109663
H   H6        1.0  0.84591  0.12621  0.50270  1.0000 0.1095962149
H   H7        1.0  0.01314  0.89815  0.99871  1.0000 0.0997369179
H   H8        1.0  0.11584  0.98615  0.77099  1.0000 0.0997369179
H   H9        1.0  0.01441  0.99722  0.66753  1.0000 0.0997369179
H   H10       1.0  0.71904  0.89826  0.29597  1.0000 0.1095962149
H   H11       1.0  0.70429  0.10190  0.25444  1.0000 0.1095962149
H   H12       1.0  0.74994  0.88107  0.11012  1.0000 0.1095962149
H   H13       1.0  0.79414  0.86728  0.97237  1.0000 0.0997369179
H   H14       1.0  0.50704  0.87090  0.29497  1.0000 0.1095962149
H   H15       1.0  0.65270  0.87958  0.00278  1.0000 0.0997369179
H   H16       1.0  0.48507  0.10131  0.49895  1.0000 0.1095962149
H   H17       1.0  0.38235  0.01375  0.27083  1.0000 0.0997369179
H   H18       1.0  0.48407  0.00422  0.16756  1.0000 0.0997369179
H   H19       1.0  0.22020  0.60250  0.20500  1.0000 0.1095962149
H   H20       1.0  0.20318  0.39878  0.24506  1.0000 0.1095962149
H   H21       1.0  0.24983  0.61868  0.39050  1.0000 0.1095962149
H   H22       1.0  0.29405  0.63150  0.52833  1.0000 0.0997369179
H   H23       1.0  0.00782  0.62638  0.20472  1.0000 0.1095962149
H   H24       1.0  0.15249  0.62729  0.49769  1.0000 0.1095962149
H   H25       1.0  0.98555  0.39790  0.00192  1.0000 0.0902831099
H   H26       1.0  0.88244  0.48658  0.22961  1.0000 0.0997369179
H   H27       1.0  0.98432  0.49605  0.33269  1.0000 0.0997369179
H   H28       1.0  0.27837  0.39717  0.70525  1.0000 0.1095962149
H   H29       1.0  0.29463  0.60117  0.74491  1.0000 0.1095962149
H   H30       1.0  0.24898  0.38095  0.89059  1.0000 0.1095962149
H   H31       1.0  0.20449  0.36729  0.02831  1.0000 0.0997369179
H   H32       1.0  0.49082  0.37301  0.70488  1.0000 0.1095962149
H   H33       1.0  0.34611  0.37221  0.99798  1.0000 0.1095962149
H   H34       1.0  0.51293  0.60221  0.50173  1.0000 0.0902831099
H   H35       1.0  0.61573  0.51497  0.72921  1.0000 0.0997369179
H   H36       1.0  0.51371  0.50660  0.83214  1.0000 0.0997369179
H   H37       1.0  0.22020  0.89893  0.20497  1.0000 0.1095962149
H   H38       1.0  0.20483  0.10246  0.24621  1.0000 0.1095962149
H   H39       1.0  0.24978  0.88415  0.39029  1.0000 0.1095962149
H   H40       1.0  0.29379  0.86560  0.52793  1.0000 0.0997369179
H   H41       1.0  0.00712  0.87024  0.20550  1.0000 0.1095962149
H   H42       1.0  0.15225  0.87450  0.49733  1.0000 0.1095962149
H   H43       1.0  0.98570  0.09969  0.00223  1.0000 0.0997369179
H   H44       1.0  0.88230  0.01270  0.22955  1.0000 0.0997369179
H   H45       1.0  0.98386  0.00286  0.33301  1.0000 0.0997369179
H   H46       1.0  0.27885  0.10056  0.70410  1.0000 0.1095962149
H   H47       1.0  0.29487  0.89766  0.74470  1.0000 0.1095962149
H   H48       1.0  0.24870  0.11528  0.89041  1.0000 0.1095962149
H   H49       1.0  0.20478  0.13252  0.02814  1.0000 0.0997369179
H   H50       1.0  0.49144  0.13028  0.70546  1.0000 0.1191109663
H   H51       1.0  0.34631  0.12480  0.99742  1.0000 0.1095962149
H   H52       1.0  0.51235  0.90050  0.50249  1.0000 0.1095962149
H   H53       1.0  0.61635  0.98809  0.72935  1.0000 0.0997369179
H   H54       1.0  0.51480  0.99686  0.83271  1.0000 0.1095962149
H   H55       1.0  0.77852  0.39935  0.79592  1.0000 0.1095962149
H   H56       1.0  0.79403  0.60326  0.75463  1.0000 0.1095962149
H   H57       1.0  0.74827  0.38340  0.60990  1.0000 0.1095962149
H   H58       1.0  0.70429  0.36720  0.47215  1.0000 0.0997369179
H   H59       1.0  0.99095  0.37062  0.79526  1.0000 0.1095962149
H   H60       1.0  0.84583  0.37524  0.50284  1.0000 0.1095962149
H   H61       1.0  0.01315  0.59984  0.99865  1.0000 0.0997369179
H   H62       1.0  0.11586  0.51295  0.77135  1.0000 0.0997369179
H   H63       1.0  0.01384  0.50597  0.66839  1.0000 0.0997369179
H   H64       1.0  0.71951  0.60180  0.29604  1.0000 0.1095962149
H   H65       1.0  0.70443  0.39822  0.25442  1.0000 0.1095962149
H   H66       1.0  0.74989  0.61906  0.10969  1.0000 0.1095962149
H   H67       1.0  0.79413  0.63165  0.97191  1.0000 0.0997369179
H   H68       1.0  0.50747  0.62939  0.29523  1.0000 0.1095962149
H   H69       1.0  0.65257  0.62611  0.00248  1.0000 0.0997369179
H   H70       1.0  0.48523  0.39967  0.49853  1.0000 0.0997369179
H   H71       1.0  0.38275  0.48627  0.27153  1.0000 0.0997369179
H   H72       1.0  0.48457  0.49397  0.16843  1.0000 0.0997369179
H   H73       1.0  0.68867  0.25117  0.88286  1.0000 0.1095962149
H   H74       1.0  0.80890  0.75092  0.38319  1.0000 0.1095962149
H   H75       1.0  0.31051  0.75082  0.11851  1.0000 0.1095962149
H   H76       1.0  0.18811  0.24981  0.61839  1.0000 0.1095962149
H   H77       1.0  0.11431  0.74905  0.92578  1.0000 0.0997369179
H   H78       1.0  0.38444  0.25041  0.42518  1.0000 0.0997369179
H   H79       1.0  0.88400  0.24889  0.07435  1.0000 0.0997369179
H   H80       1.0  0.61381  0.75129  0.57502  1.0000 0.0997369179
H   H81       1.0  0.77274  0.03564  0.14325  1.0000 0.3000430223
H   H82       1.0  0.82098  0.06531  0.17072  1.0000 0.2916469108
H   H83       1.0  0.79814  0.91393  0.19299  1.0000 0.1191109663
H   H84       1.0  0.74386  0.95973  0.20874  1.0000 0.1191109663
H   H85       1.0  0.79364  0.99431  0.23925  1.0000 0.1095962149
H   H86       1.0  0.98311  0.01092  0.53953  1.0000 0.2297848382
H   H87       1.0  0.96521  0.03461  0.59278  1.0000 0.2916469108
H   H88       1.0  0.98106  0.84762  0.55468  1.0000 0.0688804073
H   H89       1.0  0.96297  0.87368  0.61135  1.0000 0.1298241178
H   H90       1.0  0.01814  0.90858  0.59239  1.0000 0.1191109663
H   H91       1.0  0.82184  0.88014  0.85038  1.0000 0.2916469108
H   H92       1.0  0.81043  0.98676  0.87164  1.0000 0.2714096609
H   H93       1.0  0.84184  0.00176  0.79828  1.0000 0.1298241178
H   H94       1.0  0.88936  0.93352  0.81566  1.0000 0.0997369179
H   H95       1.0  0.87983  0.04624  0.84007  1.0000 0.0902831099
H   H96       1.0  0.55141  0.08345  0.91092  1.0000 0.2714096609
H   H97       1.0  0.56364  0.00502  0.95194  1.0000 0.249545233
H   H98       1.0  0.61319  0.17954  0.93400  1.0000 0.1095962149
H   H99       1.0  0.62629  0.09621  0.97731  1.0000 0.0997369179
H   H100      1.0  0.57396  0.15949  0.97938  1.0000 0.0688804073
H   H101      1.0  0.78725  0.04416  0.94639  1.0000 0.249545233
H   H102      1.0  0.82453  0.12277  0.96717  1.0000 0.249545233
H   H103      1.0  0.77280  0.07730  0.02484  1.0000 0.1095962149
H   H104      1.0  0.72677  0.11041  0.98855  1.0000 0.0997369179
H   H105      1.0  0.76525  0.19673  0.00969  1.0000 0.0902831099
H   H106      1.0  0.01692  0.93107  0.09675  1.0000 0.3000430223
H   H107      1.0  0.07025  0.97388  0.09511  1.0000 0.249545233
H   H108      1.0  0.98777  0.07926  0.11975  1.0000 0.1191109663
H   H109      1.0  0.04461  0.12309  0.11894  1.0000 0.0807064832
H   H110      1.0  0.02881  0.03433  0.15864  1.0000 0.0997369179
H   H111      1.0  0.72615  0.96457  0.64385  1.0000 0.3000430223
H   H112      1.0  0.67748  0.93643  0.67095  1.0000 0.2916469108
H   H113      1.0  0.75471  0.04141  0.70915  1.0000 0.1191109663
H   H114      1.0  0.70459  0.00820  0.73946  1.0000 0.1095962149
H   H115      1.0  0.70072  0.08775  0.69279  1.0000 0.1191109663
H   H116      1.0  0.54468  0.98043  0.08881  1.0000 0.3000430223
H   H117      1.0  0.58180  0.05271  0.06280  1.0000 0.3000430223
H   H118      1.0  0.48522  0.09070  0.08214  1.0000 0.0997369179
H   H119      1.0  0.52331  0.16675  0.05287  1.0000 0.0902831099
H   H120      1.0  0.53308  0.13876  0.11136  1.0000 0.1298241178
H   H121      1.0  0.68749  0.00330  0.37425  1.0000 0.2714096609
H   H122      1.0  0.64302  0.06694  0.39299  1.0000 0.2390546004
H   H123      1.0  0.65742  0.00002  0.29940  1.0000 0.1298241178
H   H124      1.0  0.61081  0.06918  0.31824  1.0000 0.1095962149
H   H125      1.0  0.61824  0.95318  0.33948  1.0000 0.0997369179
H   H126      1.0  0.95180  0.88734  0.47642  1.0000 0.220091331
H   H127      1.0  0.94564  0.00061  0.46231  1.0000 0.2390546004
H   H128      1.0  0.87538  0.92057  0.45555  1.0000 0.1095962149
H   H129      1.0  0.90197  0.84107  0.41695  1.0000 0.0902831099
H   H130      1.0  0.89578  0.96094  0.40171  1.0000 0.1298241178
H   H131      1.0  0.73311  0.83411  0.44232  1.0000 0.249545233
H   H132      1.0  0.71547  0.94351  0.45365  1.0000 0.2607085606
H   H133      1.0  0.78744  0.91922  0.48722  1.0000 0.1095962149
H   H134      1.0  0.76560  0.81853  0.51544  1.0000 0.0807064832
H   H135      1.0  0.74452  0.93113  0.52994  1.0000 0.0997369179
H   H136      1.0  0.47801  0.94623  0.58245  1.0000 0.249545233
H   H137      1.0  0.48198  0.02053  0.62551  1.0000 0.249545233
H   H138      1.0  0.48290  0.81695  0.63220  1.0000 0.0615556419
H   H139      1.0  0.48662  0.89654  0.67874  1.0000 0.0688804073
H   H140      1.0  0.53071  0.89338  0.63687  1.0000 0.0688804073
H   H141      1.0  0.17812  0.56137  0.82902  1.0000 0.2916469108
H   H142      1.0  0.22738  0.60753  0.81009  1.0000 0.2714096609
H   H143      1.0  0.20344  0.48609  0.76095  1.0000 0.1095962149
H   H144      1.0  0.20184  0.40903  0.80872  1.0000 0.1191109663
H   H145      1.0  0.25483  0.45622  0.78992  1.0000 0.1191109663
H   H146      1.0  0.10630  0.46506  0.45558  1.0000 0.3000430223
H   H147      1.0  0.05373  0.49512  0.47328  1.0000 0.249545233
H   H148      1.0  0.06410  0.33120  0.47869  1.0000 0.0902831099
H   H149      1.0  0.07784  0.32903  0.41950  1.0000 0.1191109663
H   H150      1.0  0.02190  0.36087  0.43740  1.0000 0.0688804073
H   H151      1.0  0.14554  0.43861  0.10996  1.0000 0.2390546004
H   H152      1.0  0.18392  0.40520  0.14932  1.0000 0.3000430223
H   H153      1.0  0.11227  0.42943  0.18419  1.0000 0.0997369179
H   H154      1.0  0.11196  0.54569  0.16197  1.0000 0.0902831099
H   H155      1.0  0.15323  0.51234  0.20308  1.0000 0.1298241178
H   H156      1.0  0.47889  0.51692  0.08789  1.0000 0.249545233
H   H157      1.0  0.45799  0.62386  0.07658  1.0000 0.2390546004
H   H158      1.0  0.41723  0.44515  0.04867  1.0000 0.1095962149
H   H159      1.0  0.39481  0.55856  0.03732  1.0000 0.0902831099
H   H160      1.0  0.39847  0.51740  0.09450  1.0000 0.1425329685
H   H161      1.0  0.20742  0.65286  0.06245  1.0000 0.2390546004
H   H162      1.0  0.23003  0.54554  0.05695  1.0000 0.2607085606
H   H163      1.0  0.21711  0.68293  0.98362  1.0000 0.0997369179
H   H164      1.0  0.23999  0.56858  0.97698  1.0000 0.1095962149
H   H165      1.0  0.26982  0.65267  0.01028  1.0000 0.0997369179
H   H166      1.0  0.92504  0.46714  0.90953  1.0000 0.2297848382
H   H167      1.0  0.96174  0.51719  0.94608  1.0000 0.2916469108
H   H168      1.0  0.96809  0.52204  0.84607  1.0000 0.0997369179
H   H169      1.0  0.00655  0.57574  0.88499  1.0000 0.1191109663
H   H170      1.0  0.94899  0.61498  0.88183  1.0000 0.0807064832
H   H171      1.0  0.27070  0.39003  0.31139  1.0000 0.2714096609
H   H172      1.0  0.27080  0.46403  0.35594  1.0000 0.3000430223
H   H173      1.0  0.29465  0.50886  0.26102  1.0000 0.1191109663
H   H174      1.0  0.29727  0.58785  0.30799  1.0000 0.1191109663
H   H175      1.0  0.24375  0.54151  0.29016  1.0000 0.1191109663
H   H176      1.0  0.43855  0.52165  0.90671  1.0000 0.3155557156
H   H177      1.0  0.39264  0.54101  0.93997  1.0000 0.3091259965
H   H178      1.0  0.42486  0.68434  0.91567  1.0000 0.1298241178
H   H179      1.0  0.47775  0.64921  0.94010  1.0000 0.0688804073
H   H180      1.0  0.42955  0.66924  0.97583  1.0000 0.0615556419
H   H181      1.0  0.35380  0.56061  0.60760  1.0000 0.2390546004
H   H182      1.0  0.31617  0.60142  0.64603  1.0000 0.2916469108
H   H183      1.0  0.38302  0.45176  0.66136  1.0000 0.0997369179
H   H184      1.0  0.34267  0.49359  0.70161  1.0000 0.1298241178
H   H185      1.0  0.38659  0.56900  0.68193  1.0000 0.0997369179
H   H186      1.0  0.05738  0.54462  0.57752  1.0000 0.249545233
H   H187      1.0  0.02246  0.45656  0.58837  1.0000 0.220091331
H   H188      1.0  0.11523  0.44245  0.55315  1.0000 0.0902831099
H   H189      1.0  0.07770  0.34714  0.56330  1.0000 0.0491601691
H   H190      1.0  0.09630  0.41759  0.60990  1.0000 0.0902831099
H   H191      1.0  0.26312  0.33408  0.55934  1.0000 0.249545233
H   H192      1.0  0.28000  0.44362  0.54726  1.0000 0.249545233
H   H193      1.0  0.22882  0.31703  0.48715  1.0000 0.0807064832
H   H194      1.0  0.24904  0.42984  0.47178  1.0000 0.0997369179
H   H195      1.0  0.20729  0.41771  0.51563  1.0000 0.1095962149
H   H196      1.0  0.53269  0.48293  0.44438  1.0000 0.2916469108
H   H197      1.0  0.51876  0.56992  0.40830  1.0000 0.3000430223
H   H198      1.0  0.54698  0.38043  0.38201  1.0000 0.0807064832
H   H199      1.0  0.53082  0.47247  0.34431  1.0000 0.0997369179
H   H200      1.0  0.48998  0.42346  0.38224  1.0000 0.1191109663
H   H201      1.0  0.17857  0.93885  0.82808  1.0000 0.2916469108
H   H202      1.0  0.22857  0.96271  0.85370  1.0000 0.3000430223
H   H203      1.0  0.20254  0.09100  0.80840  1.0000 0.1191109663
H   H204      1.0  0.20358  0.01544  0.76005  1.0000 0.1191109663
H   H205      1.0  0.25528  0.04382  0.78885  1.0000 0.1191109663
H   H206      1.0  0.03389  0.01972  0.46111  1.0000 0.2297848382
H   H207      1.0  0.08162  0.07302  0.44290  1.0000 0.3091259965
H   H208      1.0  0.98927  0.10801  0.40786  1.0000 0.0997369179
H   H209      1.0  0.04017  0.16757  0.39190  1.0000 0.1298241178
H   H210      1.0  0.01839  0.17855  0.44853  1.0000 0.0807064832
H   H211      1.0  0.19038  0.03107  0.12565  1.0000 0.2714096609
H   H212      1.0  0.17247  0.13202  0.14894  1.0000 0.2916469108
H   H213      1.0  0.16017  0.00387  0.19919  1.0000 0.1298241178
H   H214      1.0  0.12628  0.95038  0.15632  1.0000 0.0902831099
H   H215      1.0  0.10847  0.05763  0.18190  1.0000 0.1095962149
H   H216      1.0  0.43750  0.86140  0.01387  1.0000 0.220091331
H   H217      1.0  0.47161  0.89568  0.05691  1.0000 0.220091331
H   H218      1.0  0.39606  0.87303  0.08310  1.0000 0.1095962149
H   H219      1.0  0.37697  0.95511  0.04143  1.0000 0.1191109663
H   H220      1.0  0.41293  0.99232  0.08694  1.0000 0.1191109663
H   H221      1.0  0.17782  0.94449  0.02962  1.0000 0.2607085606
H   H222      1.0  0.19207  0.88787  0.07793  1.0000 0.2297848382
H   H223      1.0  0.23893  0.87002  0.98973  1.0000 0.0997369179
H   H224      1.0  0.25457  0.81500  0.04211  1.0000 0.0902831099
H   H225      1.0  0.25790  0.93847  0.03679  1.0000 0.1095962149
H   H226      1.0  0.92700  0.02797  0.90876  1.0000 0.249545233
H   H227      1.0  0.98053  0.06983  0.90786  1.0000 0.3000430223
H   H228      1.0  0.96795  0.97367  0.84353  1.0000 0.0997369179
H   H229      1.0  0.95167  0.88116  0.88092  1.0000 0.0807064832
H   H230      1.0  0.00880  0.92347  0.88110  1.0000 0.1191109663
H   H231      1.0  0.27087  0.03635  0.35477  1.0000 0.3000430223
H   H232      1.0  0.27163  0.10777  0.30925  1.0000 0.2771739792
H   H233      1.0  0.29635  0.90886  0.30864  1.0000 0.1191109663
H   H234      1.0  0.29473  0.98521  0.26061  1.0000 0.1191109663
H   H235      1.0  0.24338  0.95628  0.28990  1.0000 0.1191109663
H   H236      1.0  0.47833  0.00391  0.93973  1.0000 0.2100042343
H   H237      1.0  0.42826  0.96247  0.92364  1.0000 0.2607085606
H   H238      1.0  0.51756  0.88309  0.90323  1.0000 0.0807064832
H   H239      1.0  0.46474  0.84033  0.88187  1.0000 0.0997369179
H   H240      1.0  0.47583  0.83913  0.94176  1.0000 0.0220590789
H   H241      1.0  0.35810  0.91155  0.61212  1.0000 0.2714096609
H   H242      1.0  0.31152  0.96682  0.63206  1.0000 0.2714096609
H   H243      1.0  0.38088  0.04633  0.65179  1.0000 0.0997369179
H   H244      1.0  0.39733  0.94408  0.68252  1.0000 0.1095962149
H   H245      1.0  0.34854  0.00889  0.69976  1.0000 0.1191109663
H   H246      1.0  0.09726  0.16010  0.57480  1.0000 0.249545233
H   H247      1.0  0.04670  0.10993  0.57904  1.0000 0.220091331
H   H248      1.0  0.12648  0.03537  0.53211  1.0000 0.0902831099
H   H249      1.0  0.07165  0.98236  0.53321  1.0000 0.0491601691
H   H250      1.0  0.10253  0.99735  0.58504  1.0000 0.0997369179
H   H251      1.0  0.32029  0.05220  0.53465  1.0000 0.2771739792
H   H252      1.0  0.27350  0.03467  0.56677  1.0000 0.2607085606
H   H253      1.0  0.25238  0.07214  0.49105  1.0000 0.1191109663
H   H254      1.0  0.28465  0.17709  0.49557  1.0000 0.0902831099
H   H255      1.0  0.23526  0.16050  0.53027  1.0000 0.0997369179
H   H256      1.0  0.52842  0.01553  0.44089  1.0000 0.3000430223
H   H257      1.0  0.56960  0.97443  0.40656  1.0000 0.2607085606
H   H258      1.0  0.48762  0.07734  0.37803  1.0000 0.1191109663
H   H259      1.0  0.53029  0.03197  0.34099  1.0000 0.0997369179
H   H260      1.0  0.54425  0.12218  0.38057  1.0000 0.0902831099
H   H261      1.0  0.77088  0.39212  0.18977  1.0000 0.2771739792
H   H262      1.0  0.82024  0.43845  0.17126  1.0000 0.2916469108
H   H263      1.0  0.79445  0.51187  0.23983  1.0000 0.1191109663
H   H264      1.0  0.74358  0.54367  0.21043  1.0000 0.1191109663
H   H265      1.0  0.79706  0.59020  0.19259  1.0000 0.1191109663
H   H266      1.0  0.95387  0.51652  0.54070  1.0000 0.2390546004
H   H267      1.0  0.90164  0.54948  0.55811  1.0000 0.3000430223
H   H268      1.0  0.94291  0.68021  0.53080  1.0000 0.0688804073
H   H269      1.0  0.98670  0.65461  0.57117  1.0000 0.0902831099
H   H270      1.0  0.93156  0.68899  0.59037  1.0000 0.1191109663
H   H271      1.0  0.82161  0.61796  0.85015  1.0000 0.2916469108
H   H272      1.0  0.85450  0.57063  0.89113  1.0000 0.2390546004
H   H273      1.0  0.84168  0.49613  0.79870  1.0000 0.1298241178
H   H274      1.0  0.87740  0.44825  0.84165  1.0000 0.0807064832
H   H275      1.0  0.88981  0.56028  0.81780  1.0000 0.1095962149
H   H276      1.0  0.52057  0.46666  0.91017  1.0000 0.2714096609
H   H277      1.0  0.54224  0.53952  0.94969  1.0000 0.2390546004
H   H278      1.0  0.58190  0.36019  0.92134  1.0000 0.0997369179
H   H279      1.0  0.60507  0.43904  0.96234  1.0000 0.0902831099
H   H280      1.0  0.60087  0.47300  0.90406  1.0000 0.1425329685
H   H281      1.0  0.84422  0.31697  0.96905  1.0000 0.249545233
H   H282      1.0  0.85244  0.43240  0.96187  1.0000 0.249545233
H   H283      1.0  0.76564  0.33273  0.94980  1.0000 0.0902831099
H   H284      1.0  0.77459  0.45489  0.94328  1.0000 0.0902831099
H   H285      1.0  0.78122  0.40205  0.99793  1.0000 0.1095962149
H   H286      1.0  0.06868  0.51029  0.09411  1.0000 0.249545233
H   H287      1.0  0.01845  0.56363  0.10345  1.0000 0.3000430223
H   H288      1.0  0.03105  0.44796  0.15973  1.0000 0.0997369179
H   H289      1.0  0.03800  0.36369  0.11540  1.0000 0.0902831099
H   H290      1.0  0.98414  0.41845  0.12410  1.0000 0.1191109663
H   H291      1.0  0.72777  0.53804  0.64532  1.0000 0.3000430223
H   H292      1.0  0.72624  0.61058  0.69042  1.0000 0.2714096609
H   H293      1.0  0.75458  0.45970  0.71092  1.0000 0.1191109663
H   H294      1.0  0.70188  0.41147  0.69187  1.0000 0.1191109663
H   H295      1.0  0.70289  0.48900  0.73947  1.0000 0.1191109663
H   H296      1.0  0.60771  0.44990  0.05750  1.0000 0.3000430223
H   H297      1.0  0.56370  0.48363  0.09063  1.0000 0.3091259965
H   H298      1.0  0.56691  0.31865  0.08615  1.0000 0.1191109663
H   H299      1.0  0.56388  0.32751  0.02558  1.0000 0.0807064832
H   H300      1.0  0.51677  0.36379  0.05973  1.0000 0.0688804073
H   H301      1.0  0.64074  0.41926  0.38808  1.0000 0.2390546004
H   H302      1.0  0.68755  0.47642  0.37007  1.0000 0.2714096609
H   H303      1.0  0.60773  0.43440  0.31318  1.0000 0.1095962149
H   H304      1.0  0.65624  0.50172  0.29775  1.0000 0.1298241178
H   H305      1.0  0.61866  0.54376  0.34047  1.0000 0.0902831099
H   H306      1.0  0.95631  0.46702  0.45734  1.0000 0.249545233
H   H307      1.0  0.97508  0.57685  0.46557  1.0000 0.2100042343
H   H308      1.0  0.89606  0.52169  0.41028  1.0000 0.1425329685
H   H309      1.0  0.91559  0.63800  0.41968  1.0000 0.0902831099
H   H310      1.0  0.89396  0.57072  0.46611  1.0000 0.0997369179
H   H311      1.0  0.72347  0.53765  0.43726  1.0000 0.2607085606
H   H312      1.0  0.69270  0.63618  0.43209  1.0000 0.2390546004
H   H313      1.0  0.75951  0.66262  0.47593  1.0000 0.0997369179
H   H314      1.0  0.74143  0.57339  0.51421  1.0000 0.1095962149
H   H315      1.0  0.70884  0.67779  0.50888  1.0000 0.0997369179
H   H316      1.0  0.47081  0.51774  0.55933  1.0000 0.3000430223
H   H317      1.0  0.42913  0.47894  0.59364  1.0000 0.2607085606
H   H318      1.0  0.45489  0.62733  0.61837  1.0000 0.0902831099
H   H319      1.0  0.51128  0.58156  0.62196  1.0000 0.1191109663
H   H320      1.0  0.46806  0.53860  0.65902  1.0000 0.0997369179
H   H321      1.0  0.90689  0.19071  0.20915  1.0000 0.2714096609
H   H322      1.0  0.90692  0.25007  0.25873  1.0000 0.3000430223
H   H323      1.0  0.83331  0.18889  0.24275  1.0000 0.1095962149
H   H324      1.0  0.83386  0.25112  0.19009  1.0000 0.0688804073
H   H325      1.0  0.83392  0.31344  0.24272  1.0000 0.1095962149
H   H326      1.0  0.58948  0.81140  0.70656  1.0000 0.2771739792
H   H327      1.0  0.58776  0.75262  0.75627  1.0000 0.3091259965
H   H328      1.0  0.66328  0.75210  0.69034  1.0000 0.0688804073
H   H329      1.0  0.66144  0.68928  0.74280  1.0000 0.1095962149
H   H330      1.0  0.66180  0.81382  0.74313  1.0000 0.1095962149
H   H331      1.0  0.09021  0.74895  0.74347  1.0000 0.3000430223
H   H332      1.0  0.09149  0.80813  0.79309  1.0000 0.2714096609
H   H333      1.0  0.16397  0.81132  0.75704  1.0000 0.1095962149
H   H334      1.0  0.16399  0.68678  0.75735  1.0000 0.1095962149
H   H335      1.0  0.16535  0.74960  0.80983  1.0000 0.0688804073
H   H336      1.0  0.40652  0.19044  0.29390  1.0000 0.2714096609
H   H337      1.0  0.40688  0.30795  0.29399  1.0000 0.2771739792
H   H338      1.0  0.33432  0.18810  0.25722  1.0000 0.1095962149
H   H339      1.0  0.33467  0.31266  0.25758  1.0000 0.1095962149
H   H340      1.0  0.33274  0.24973  0.31002  1.0000 0.0688804073
H   H341      1.0  0.87628  0.75098  0.66007  1.0000 0.1095962149
H   H342      1.0  0.50240  0.74237  0.01570  1.0000 0.2100042343
H   H343      1.0  0.54445  0.76301  0.05342  1.0000 0.3000430223
H   H344      1.0  0.55910  0.84434  0.98495  1.0000 0.0688804073
H   H345      1.0  0.55468  0.73686  0.95445  1.0000 0.0902831099
H   H346      1.0  0.59996  0.75414  0.99397  1.0000 0.1191109663
H   H347      1.0  0.62171  0.25020  0.16040  1.0000 0.1095962149
H   H348      1.0  0.96318  0.20856  0.61049  1.0000 0.3000430223
H   H349      1.0  0.96386  0.32599  0.60872  1.0000 0.3000430223
H   H350      1.0  0.98912  0.20018  0.53357  1.0000 0.0615556419
H   H351      1.0  0.98912  0.32464  0.53186  1.0000 0.0688804073
H   H352      1.0  0.93690  0.26246  0.53856  1.0000 0.1191109663
H   H353      1.0  0.12063  0.24993  0.33901  1.0000 0.1095962149
H   H354      1.0  0.46296  0.20411  0.89819  1.0000 0.2714096609
H   H355      1.0  0.51223  0.25164  0.91282  1.0000 0.2100042343
H   H356      1.0  0.48258  0.16164  0.97262  1.0000 0.0296374388
H   H357      1.0  0.43253  0.23263  0.97188  1.0000 0.0997369179
H   H358      1.0  0.48582  0.28230  0.98733  1.0000 0.0296374388
H   H359      1.0  0.37792  0.74949  0.83831  1.0000 0.1095962149
H   H360      1.0  0.03835  0.78872  0.40517  1.0000 0.3091259965
H   H361      1.0  0.98880  0.75163  0.42775  1.0000 0.220091331
H   H362      1.0  0.07722  0.75362  0.47511  1.0000 0.1298241178
H   H363      1.0  0.02377  0.71966  0.49852  1.0000 0.0615556419
H   H364      1.0  0.03319  0.83792  0.48189  1.0000 0.0615556419
H   H365      1.0  0.85611  0.92676  0.89038  1.0000 0.2390546004
H   H366      1.0  0.96657  0.98237  0.94366  1.0000 0.2916469108
H   H367      1.0  0.97921  0.42934  0.91207  1.0000 0.3000430223
H   H368      1.0  0.80863  0.51234  0.87165  1.0000 0.2771739792
H   H369      1.0  0.72729  0.89003  0.68818  1.0000 0.2771739792
H   H370      1.0  0.94261  0.52548  0.59667  1.0000 0.3091259965
H   H371      1.0  0.01283  0.26582  0.60412  1.0000 0.2714096609
H   H372      1.0  0.97664  0.52944  0.41315  1.0000 0.2607085606
H   H373      1.0  0.97087  0.92621  0.42564  1.0000 0.2297848382
H   H374      1.0  0.77098  0.46550  0.14498  1.0000 0.3000430223
H   H375      1.0  0.55999  0.49300  0.03369  1.0000 0.220091331
H   H376      1.0  0.47598  0.55477  0.03374  1.0000 0.1895199061
H   H377      1.0  0.45385  0.97385  0.01782  1.0000 0.2297848382
H   H378      1.0  0.54217  0.66024  0.02567  1.0000 0.2297848382
H   H379      1.0  0.18024  0.57116  0.03130  1.0000 0.2607085606
H   H380      1.0  0.17382  0.82733  0.03224  1.0000 0.249545233
H   H381      1.0  0.02359  0.48442  0.06134  1.0000 0.2916469108
H   H382      1.0  0.33037  0.86945  0.65799  1.0000 0.2916469108
H   H383      1.0  0.69275  0.85264  0.48211  1.0000 0.2607085606
H   H384      1.0  0.67558  0.55159  0.46818  1.0000 0.2607085606
H   H385      1.0  0.67772  0.56262  0.67069  1.0000 0.2916469108
H   H386      1.0  0.58914  0.69389  0.70654  1.0000 0.2714096609
H   H387      1.0  0.32010  0.43626  0.32991  1.0000 0.2916469108
H   H388      1.0  0.31189  0.49081  0.62703  1.0000 0.2714096609
H   H389      1.0  0.30237  0.35281  0.51848  1.0000 0.2607085606
H   H390      1.0  0.32052  0.06079  0.32860  1.0000 0.2916469108
H   H391      1.0  0.30321  0.13459  0.57196  1.0000 0.2607085606
H   H392      1.0  0.22750  0.53524  0.85531  1.0000 0.3000430223
H   H393      1.0  0.09150  0.69062  0.79333  1.0000 0.2771739792
H   H394      1.0  0.03194  0.67604  0.42014  1.0000 0.2771739792
H   H395      1.0  0.22717  0.89202  0.80791  1.0000 0.2771739792
H   H396      1.0  0.06577  0.49325  0.41721  1.0000 0.3000430223
H   H397      1.0  0.40837  0.24933  0.24422  1.0000 0.3000430223
H   H398      1.0  0.51662  0.93030  0.40310  1.0000 0.3000430223
H   H399      1.0  0.67372  0.37271  0.34699  1.0000 0.2916469108
H   H400      1.0  0.57220  0.52743  0.40912  1.0000 0.249545233
H   H401      1.0  0.67948  0.11267  0.35474  1.0000 0.2916469108
H   H402      1.0  0.93081  0.97701  0.55642  1.0000 0.2916469108
H   H403      1.0  0.18474  0.51513  0.12902  1.0000 0.2607085606
H   H404      1.0  0.14122  0.07984  0.10809  1.0000 0.2390546004
H   H405      1.0  0.48187  0.43398  0.59809  1.0000 0.3000430223
H   H406      1.0  0.52375  0.43262  0.96486  1.0000 0.220091331
H   H407      1.0  0.44231  0.50722  0.96338  1.0000 0.2390546004
H   H408      1.0  0.83774  0.36519  0.91708  1.0000 0.220091331
H   H409      1.0  0.78167  0.15781  0.93301  1.0000 0.2390546004
H   H410      1.0  0.03069  0.01484  0.05886  1.0000 0.2916469108
H   H411      1.0  0.53721  0.00920  0.03366  1.0000 0.220091331
H   H412      1.0  0.77076  0.11106  0.18719  1.0000 0.2771739792
H   H413      1.0  0.90746  0.30822  0.20881  1.0000 0.2714096609
H   H414      1.0  0.05158  0.00474  0.40703  1.0000 0.3000430223
H   H415      1.0  0.60071  0.02353  0.90916  1.0000 0.3091259965
C   C1        1.0  0.06977  0.08207  0.83648  1.0000 0.4778844208
C   C2        1.0  0.72058  0.12539  0.54298  1.0000 -0.0400806925
C   C3        1.0  0.76659  0.16755  0.80949  1.0000 -0.1205325728
C   C4        1.0  0.08881  0.92243  0.94503  1.0000 0.531897986
C   C5        1.0  0.80631  0.83497  0.74100  1.0000 -0.1309234696
C   C6        1.0  0.75628  0.12202  0.57438  1.0000 -0.1205325728
C   C7        1.0  0.73131  0.13056  0.49659  1.0000 -0.1309234696
C   C8        1.0  0.80175  0.12330  0.56056  1.0000 -0.0301346272
C   C9        1.0  0.78777  0.13090  0.43193  1.0000 0.4706694965
C   C10       1.0  0.83737  0.83594  0.70527  1.0000 -0.0400806925
C   C11       1.0  0.01286  0.09033  0.77288  1.0000 -0.1309234696
C   C12       1.0  0.71264  0.07717  0.85768  1.0000 0.5389829749
C   C13       1.0  0.85430  0.92539  0.68696  1.0000 0.5389829749
C   C14       1.0  0.77660  0.12949  0.48146  1.0000 -0.0400806925
C   C15       1.0  0.81126  0.12608  0.51390  1.0000 -0.1100333478
C   C16       1.0  0.83919  0.12300  0.59479  1.0000 0.5531250716
C   C17       1.0  0.67253  0.12344  0.55937  1.0000 0.488283401
C   C18       1.0  0.99731  0.06755  0.72921  1.0000 -0.0082451422
C   C19       1.0  0.06599  0.83439  0.96007  1.0000 -0.0400806925
C   C20       1.0  0.95071  0.09566  0.71407  1.0000 0.4706694965
C   C21       1.0  0.05512  0.05978  0.78900  1.0000 -0.0301346272
C   C22       1.0  0.09908  0.93179  0.68385  1.0000 0.5389829749
C   C23       1.0  0.02731  0.83329  0.98782  1.0000 -0.1602393448
C   C24       1.0  0.06921  0.98661  0.71513  1.0000 -0.0301346272
C   C25       1.0  0.73204  0.16647  0.84183  1.0000 -0.0472382016
C   C26       1.0  0.08317  0.00895  0.75942  1.0000 -0.1401346106
C   C27       1.0  0.02581  0.01500  0.70099  1.0000 -0.1205325728
C   C28       1.0  0.78022  0.97591  0.20556  1.0000 -0.1883801905
C   C29       1.0  0.98256  0.89938  0.58211  1.0000 -0.1711338685
C   C30       1.0  0.86331  0.98291  0.82725  1.0000 -0.1883801905
C   C31       1.0  0.59883  0.12636  0.95669  1.0000 -0.1711338685
C   C32       1.0  0.76237  0.12471  0.99745  1.0000 -0.1602393448
C   C33       1.0  0.02370  0.06054  0.12393  1.0000 -0.1711338685
C   C34       1.0  0.42846  0.91773  0.33628  1.0000 0.4778844208
C   C35       1.0  0.77787  0.87583  0.04316  1.0000 -0.0301346272
C   C36       1.0  0.73149  0.83373  0.30912  1.0000 -0.1205325728
C   C37       1.0  0.40963  0.07703  0.44488  1.0000 0.5389829749
C   C38       1.0  0.69187  0.16650  0.24122  1.0000 -0.1309234696
C   C39       1.0  0.74219  0.87955  0.07455  1.0000 -0.1205325728
C   C40       1.0  0.76716  0.87079  0.99676  1.0000 -0.1309234696
C   C41       1.0  0.69673  0.87930  0.06068  1.0000 -0.0301346272
C   C42       1.0  0.71069  0.87085  0.93210  1.0000 0.4706694965
C   C43       1.0  0.66075  0.16544  0.20556  1.0000 -0.0400806925
C   C44       1.0  0.48548  0.91032  0.27280  1.0000 -0.1309234696
C   C45       1.0  0.78451  0.92471  0.35792  1.0000 0.531897986
C   C46       1.0  0.64386  0.07601  0.18726  1.0000 0.5389829749
C   C47       1.0  0.72190  0.87294  0.98161  1.0000 -0.0301346272
C   C48       1.0  0.68728  0.87770  0.01402  1.0000 -0.1205325728
C   C49       1.0  0.65925  0.87901  0.09483  1.0000 0.5531250716
C   C50       1.0  0.82590  0.87711  0.05955  1.0000 0.488283401
C   C51       1.0  0.50107  0.93352  0.22920  1.0000 -0.0082451422
C   C52       1.0  0.43253  0.16509  0.45984  1.0000 -0.0400806925
C   C53       1.0  0.54766  0.90563  0.21409  1.0000 0.4706694965
C   C54       1.0  0.44315  0.94047  0.28887  1.0000 -0.0301346272
C   C55       1.0  0.39916  0.06825  0.18369  1.0000 0.531897986
C   C56       1.0  0.47108  0.16620  0.48779  1.0000 -0.1401346106
C   C57       1.0  0.42913  0.01405  0.21508  1.0000 -0.0301346272
C   C58       1.0  0.76571  0.83516  0.34175  1.0000 -0.0472382016
C   C59       1.0  0.41509  0.99133  0.25931  1.0000 -0.1401346106
C   C60       1.0  0.47261  0.98613  0.20100  1.0000 -0.1205325728
C   C61       1.0  0.71832  0.02573  0.70578  1.0000 -0.1795584862
C   C62       1.0  0.52095  0.11158  0.07859  1.0000 -0.1711338685
C   C63       1.0  0.63592  0.01678  0.32867  1.0000 -0.1883801905
C   C64       1.0  0.90234  0.91278  0.42996  1.0000 -0.1602393448
C   C65       1.0  0.75680  0.88741  0.50188  1.0000 -0.1711338685
C   C66       1.0  0.49393  0.88691  0.64243  1.0000 -0.1602393448
C   C67       1.0  0.92881  0.58111  0.16383  1.0000 0.4706694965
C   C68       1.0  0.27782  0.62390  0.45749  1.0000 -0.0301346272
C   C69       1.0  0.23265  0.66710  0.19191  1.0000 -0.1205325728
C   C70       1.0  0.90959  0.42228  0.05522  1.0000 0.531897986
C   C71       1.0  0.19112  0.33409  0.25853  1.0000 -0.1309234696
C   C72       1.0  0.24214  0.62077  0.42608  1.0000 -0.1205325728
C   C73       1.0  0.26708  0.62913  0.50390  1.0000 -0.1309234696
C   C74       1.0  0.19671  0.62321  0.43991  1.0000 -0.0301346272
C   C75       1.0  0.21047  0.63014  0.56850  1.0000 0.4706694965
C   C76       1.0  0.15975  0.33493  0.29399  1.0000 -0.0400806925
C   C77       1.0  0.98610  0.58780  0.22708  1.0000 -0.1309234696
C   C78       1.0  0.28679  0.57678  0.14374  1.0000 0.531897986
C   C79       1.0  0.14243  0.42408  0.31210  1.0000 0.5389829749
C   C80       1.0  0.22177  0.62877  0.51901  1.0000 -0.0301346272
C   C81       1.0  0.18716  0.62633  0.48654  1.0000 -0.1205325728
C   C82       1.0  0.15928  0.62476  0.40583  1.0000 0.5389829749
C   C83       1.0  0.32587  0.62223  0.44110  1.0000 0.488283401
C   C84       1.0  0.00155  0.56552  0.27085  1.0000 -0.0082451422
C   C85       1.0  0.93248  0.33420  0.04028  1.0000 -0.0472382016
C   C86       1.0  0.04812  0.59357  0.28606  1.0000 0.4706694965
C   C87       1.0  0.94357  0.55832  0.21122  1.0000 -0.0301346272
C   C88       1.0  0.89920  0.43303  0.31703  1.0000 0.531897986
C   C89       1.0  0.97131  0.33308  0.01275  1.0000 -0.1711338685
C   C90       1.0  0.92928  0.48638  0.28534  1.0000 -0.0301346272
C   C91       1.0  0.26722  0.66601  0.15956  1.0000 -0.0472382016
C   C92       1.0  0.91530  0.50855  0.24102  1.0000 -0.1401346106
C   C93       1.0  0.97286  0.51398  0.29927  1.0000 -0.1205325728
C   C94       1.0  0.21846  0.47088  0.79434  1.0000 -0.1795584862
C   C95       1.0  0.05821  0.36546  0.44582  1.0000 -0.1711338685
C   C96       1.0  0.13367  0.48830  0.17368  1.0000 -0.1883801905
C   C97       1.0  0.41523  0.51713  0.06116  1.0000 -0.1711338685
C   C98       1.0  0.23596  0.62695  0.00073  1.0000 -0.1602393448
C   C99       1.0  0.97119  0.55360  0.87995  1.0000 -0.1711338685
C   C100      1.0  0.56949  0.41923  0.66370  1.0000 0.4778844208
C   C101      1.0  0.22084  0.37530  0.95751  1.0000 -0.0301346272
C   C102      1.0  0.26593  0.33267  0.69204  1.0000 -0.1205325728
C   C103      1.0  0.58856  0.57789  0.55536  1.0000 0.531897986
C   C104      1.0  0.30709  0.66579  0.75807  1.0000 -0.1309234696
C   C105      1.0  0.25662  0.37867  0.92617  1.0000 -0.1205325728
C   C106      1.0  0.23150  0.36985  0.00393  1.0000 -0.1401346106
C   C107      1.0  0.30205  0.37621  0.94010  1.0000 -0.0301346272
C   C108      1.0  0.28794  0.36912  0.06867  1.0000 0.4706694965
C   C109      1.0  0.33858  0.66475  0.79337  1.0000 -0.0400806925
C   C110      1.0  0.51239  0.41234  0.72708  1.0000 -0.1309234696
C   C111      1.0  0.21234  0.42351  0.64357  1.0000 0.531897986
C   C112      1.0  0.35571  0.57555  0.81153  1.0000 0.5389829749
C   C113      1.0  0.27677  0.37046  0.01914  1.0000 -0.0301346272
C   C114      1.0  0.31146  0.37308  0.98675  1.0000 -0.1100333478
C   C115      1.0  0.33963  0.37479  0.90611  1.0000 0.5389829749
C   C116      1.0  0.17278  0.37710  0.94111  1.0000 0.488283401
C   C117      1.0  0.49685  0.43526  0.77071  1.0000 -0.0082451422
C   C118      1.0  0.56562  0.66596  0.54054  1.0000 -0.0400806925
C   C119      1.0  0.45036  0.40683  0.78597  1.0000 0.4706694965
C   C120      1.0  0.55478  0.44225  0.71107  1.0000 -0.0301346272
C   C121      1.0  0.59890  0.56939  0.81643  1.0000 0.531897986
C   C122      1.0  0.52698  0.66706  0.51277  1.0000 -0.1602393448
C   C123      1.0  0.56888  0.51552  0.78491  1.0000 -0.0301346272
C   C124      1.0  0.23149  0.33408  0.65959  1.0000 -0.0472382016
C   C125      1.0  0.58293  0.49279  0.74068  1.0000 -0.1401346106
C   C126      1.0  0.52532  0.48788  0.79889  1.0000 -0.1205325728
C   C127      1.0  0.28006  0.52593  0.29439  1.0000 -0.1883801905
C   C128      1.0  0.44067  0.64249  0.94265  1.0000 -0.1711338685
C   C129      1.0  0.36326  0.51283  0.67205  1.0000 -0.1883801905
C   C130      1.0  0.08650  0.41818  0.57383  1.0000 -0.1505837649
C   C131      1.0  0.23767  0.38625  0.50028  1.0000 -0.1711338685
C   C132      1.0  0.52584  0.44306  0.37841  1.0000 -0.1795584862
C   C133      1.0  0.92860  0.91675  0.16413  1.0000 0.4778844208
C   C134      1.0  0.27759  0.87617  0.45721  1.0000 -0.0301346272
C   C135      1.0  0.23259  0.83433  0.19186  1.0000 -0.1205325728
C   C136      1.0  0.90971  0.07543  0.05542  1.0000 0.531897986
C   C137      1.0  0.19191  0.16695  0.25905  1.0000 -0.1309234696
C   C138      1.0  0.24196  0.88084  0.42582  1.0000 -0.1205325728
C   C139      1.0  0.26682  0.86941  0.50354  1.0000 -0.1401346106
C   C140      1.0  0.19648  0.87942  0.43957  1.0000 -0.0219299589
C   C141      1.0  0.21036  0.86807  0.56819  1.0000 0.4706694965
C   C142      1.0  0.16046  0.16569  0.29439  1.0000 -0.0400806925
C   C143      1.0  0.98548  0.90945  0.22769  1.0000 -0.1309234696
C   C144      1.0  0.28677  0.92476  0.14395  1.0000 0.5389829749
C   C145      1.0  0.14378  0.07624  0.31269  1.0000 0.5389829749
C   C146      1.0  0.22153  0.87042  0.51865  1.0000 -0.0301346272
C   C147      1.0  0.18691  0.87507  0.48619  1.0000 -0.1100333478
C   C148      1.0  0.15915  0.88128  0.40527  1.0000 0.5531250716
C   C149      1.0  0.32564  0.87813  0.44088  1.0000 0.488283401
C   C150      1.0  0.00098  0.93249  0.27132  1.0000 -0.0082451422
C   C151      1.0  0.93256  0.16351  0.04042  1.0000 -0.0400806925
C   C152      1.0  0.04762  0.90494  0.28640  1.0000 0.4706694965
C   C153      1.0  0.94316  0.93956  0.21157  1.0000 -0.0301346272
C   C154      1.0  0.89904  0.06711  0.31682  1.0000 0.531897986
C   C155      1.0  0.97141  0.16457  0.01291  1.0000 -0.1602393448
C   C156      1.0  0.92898  0.01283  0.28542  1.0000 -0.0301346272
C   C157      1.0  0.26719  0.83548  0.15960  1.0000 -0.0400806925
C   C158      1.0  0.91502  0.99027  0.24113  1.0000 -0.1401346106
C   C159      1.0  0.97244  0.98486  0.29954  1.0000 -0.1205325728
C   C160      1.0  0.21890  0.02943  0.79343  1.0000 -0.1795584862
C   C161      1.0  0.02288  0.13076  0.41972  1.0000 -0.1711338685
C   C162      1.0  0.13790  0.01735  0.17010  1.0000 -0.1883801905
C   C163      1.0  0.40557  0.93500  0.06337  1.0000 -0.1602393448
C   C164      1.0  0.23841  0.87656  0.02696  1.0000 -0.1795584862
C   C165      1.0  0.97298  0.94359  0.87749  1.0000 -0.1795584862
C   C166      1.0  0.57004  0.08406  0.66413  1.0000 0.4778844208
C   C167      1.0  0.22090  0.12265  0.95737  1.0000 -0.0301346272
C   C168      1.0  0.26615  0.16537  0.69142  1.0000 -0.1205325728
C   C169      1.0  0.58834  0.92469  0.55575  1.0000 0.5389829749
C   C170      1.0  0.30717  0.83300  0.75802  1.0000 -0.1309234696
C   C171      1.0  0.25654  0.11836  0.92593  1.0000 -0.1205325728
C   C172      1.0  0.23172  0.12914  0.00370  1.0000 -0.1309234696
C   C173      1.0  0.30204  0.12005  0.93965  1.0000 -0.0219299589
C   C174      1.0  0.28821  0.13123  0.06832  1.0000 0.4706694965
C   C175      1.0  0.33842  0.83402  0.79354  1.0000 -0.0400806925
C   C176      1.0  0.51308  0.09098  0.72759  1.0000 -0.1205325728
C   C177      1.0  0.21163  0.07555  0.64348  1.0000 0.531897986
C   C178      1.0  0.35508  0.92331  0.81202  1.0000 0.5389829749
C   C179      1.0  0.27704  0.12869  0.01877  1.0000 -0.0301346272
C   C180      1.0  0.31164  0.12424  0.98629  1.0000 -0.1100333478
C   C181      1.0  0.33941  0.11884  0.90534  1.0000 0.5531250716
C   C182      1.0  0.17281  0.12092  0.94105  1.0000 0.488283401
C   C183      1.0  0.49758  0.06762  0.77118  1.0000 -0.0044782819
C   C184      1.0  0.56546  0.83667  0.54076  1.0000 -0.0400806925
C   C185      1.0  0.45094  0.09502  0.78632  1.0000 0.4778844208
C   C186      1.0  0.55546  0.06120  0.71150  1.0000 -0.0301346272
C   C187      1.0  0.59958  0.93272  0.81629  1.0000 0.531897986
C   C188      1.0  0.52673  0.83559  0.51309  1.0000 -0.1401346106
C   C189      1.0  0.56962  0.98738  0.78513  1.0000 -0.0400806925
C   C190      1.0  0.23140  0.16462  0.65926  1.0000 -0.0400806925
C   C191      1.0  0.58360  0.01037  0.74094  1.0000 -0.1401346106
C   C192      1.0  0.52616  0.01510  0.79929  1.0000 -0.1205325728
C   C193      1.0  0.27981  0.97066  0.29411  1.0000 -0.1883801905
C   C194      1.0  0.48099  0.87793  0.91001  1.0000 -0.1602393448
C   C195      1.0  0.36828  0.98516  0.67035  1.0000 -0.1795584862
C   C196      1.0  0.09492  0.02836  0.55176  1.0000 -0.1401346106
C   C197      1.0  0.26466  0.12571  0.51470  1.0000 -0.1711338685
C   C198      1.0  0.52377  0.05914  0.37529  1.0000 -0.1795584862
C   C199      1.0  0.06961  0.41705  0.83670  1.0000 0.4778844208
C   C200      1.0  0.72045  0.37675  0.54292  1.0000 -0.0301346272
C   C201      1.0  0.76629  0.33476  0.80919  1.0000 -0.1309234696
C   C202      1.0  0.08888  0.57562  0.94510  1.0000 0.5389829749
C   C203      1.0  0.80634  0.66781  0.74123  1.0000 -0.1309234696
C   C204      1.0  0.75608  0.38064  0.57436  1.0000 -0.1205325728
C   C205      1.0  0.73125  0.37056  0.49658  1.0000 -0.1401346106
C   C206      1.0  0.80157  0.37897  0.56062  1.0000 -0.0301346272
C   C207      1.0  0.78779  0.36952  0.43195  1.0000 0.4706694965
C   C208      1.0  0.83728  0.66653  0.70544  1.0000 -0.0400806925
C   C209      1.0  0.01254  0.41020  0.77319  1.0000 -0.1401346106
C   C210      1.0  0.71215  0.42517  0.85721  1.0000 0.5389829749
C   C211      1.0  0.85389  0.57695  0.68714  1.0000 0.5389829749
C   C212      1.0  0.77657  0.37160  0.48149  1.0000 -0.0301346272
C   C213      1.0  0.81116  0.37560  0.51398  1.0000 -0.1100333478
C   C214      1.0  0.83891  0.37931  0.59491  1.0000 0.5531250716
C   C215      1.0  0.67239  0.37884  0.55924  1.0000 0.488283401
C   C216      1.0  0.99693  0.43398  0.72967  1.0000 -0.0082451422
C   C217      1.0  0.06602  0.66366  0.96009  1.0000 -0.0400806925
C   C218      1.0  0.95032  0.40643  0.71443  1.0000 0.4706694965
C   C219      1.0  0.05491  0.44007  0.78931  1.0000 -0.0301346272
C   C220      1.0  0.09893  0.56859  0.68437  1.0000 0.531897986
C   C221      1.0  0.02732  0.66474  0.98780  1.0000 -0.1505837649
C   C222      1.0  0.06898  0.51415  0.71567  1.0000 -0.0219299589
C   C223      1.0  0.73177  0.33588  0.84157  1.0000 -0.0400806925
C   C224      1.0  0.08306  0.49087  0.75981  1.0000 -0.1401346106
C   C225      1.0  0.02540  0.48691  0.70164  1.0000 -0.1205325728
C   C226      1.0  0.77993  0.52833  0.20635  1.0000 -0.1883801905
C   C227      1.0  0.95009  0.64954  0.56427  1.0000 -0.1795584862
C   C228      1.0  0.86250  0.51293  0.82843  1.0000 -0.1883801905
C   C229      1.0  0.58428  0.43368  0.93142  1.0000 -0.1602393448
C   C230      1.0  0.78617  0.39218  0.96120  1.0000 -0.1711338685
C   C231      1.0  0.02109  0.42905  0.12494  1.0000 -0.1711338685
C   C232      1.0  0.42896  0.58248  0.33672  1.0000 0.4778844208
C   C233      1.0  0.77785  0.62361  0.04272  1.0000 -0.0301346272
C   C234      1.0  0.73179  0.66650  0.30918  1.0000 -0.1205325728
C   C235      1.0  0.40971  0.42387  0.44477  1.0000 0.5389829749
C   C236      1.0  0.69196  0.33365  0.24121  1.0000 -0.1309234696
C   C237      1.0  0.74215  0.62105  0.07412  1.0000 -0.1205325728
C   C238      1.0  0.76714  0.62916  0.99632  1.0000 -0.1205325728
C   C239      1.0  0.69669  0.62349  0.06030  1.0000 -0.0301346272
C   C240      1.0  0.71053  0.63121  0.93170  1.0000 0.4706694965
C   C241      1.0  0.66089  0.33479  0.20555  1.0000 -0.0400806925
C   C242      1.0  0.48591  0.58967  0.27318  1.0000 -0.1309234696
C   C243      1.0  0.78591  0.57649  0.35742  1.0000 0.531897986
C   C244      1.0  0.64420  0.42424  0.18719  1.0000 0.5389829749
C   C245      1.0  0.72182  0.62897  0.98120  1.0000 -0.0219299589
C   C246      1.0  0.68720  0.62598  0.01366  1.0000 -0.1205325728
C   C247      1.0  0.65926  0.62517  0.09446  1.0000 0.5531250716
C   C248      1.0  0.82589  0.62137  0.05916  1.0000 0.488283401
C   C249      1.0  0.50145  0.56612  0.22962  1.0000 -0.0082451422
C   C250      1.0  0.43254  0.33580  0.45976  1.0000 -0.0400806925
C   C251      1.0  0.54795  0.59423  0.21426  1.0000 0.4706694965
C   C252      1.0  0.44362  0.55949  0.28936  1.0000 -0.0301346272
C   C253      1.0  0.39950  0.43104  0.18447  1.0000 0.531897986
C   C254      1.0  0.47113  0.33477  0.48761  1.0000 -0.1505837649
C   C255      1.0  0.42950  0.48540  0.21576  1.0000 -0.0301346272
C   C256      1.0  0.76621  0.66568  0.34169  1.0000 -0.0400806925
C   C257      1.0  0.41550  0.50852  0.25993  1.0000 -0.1401346106
C   C258      1.0  0.47302  0.51296  0.20166  1.0000 -0.1205325728
C   C259      1.0  0.71818  0.47372  0.70622  1.0000 -0.1883801905
C   C260      1.0  0.55404  0.36078  0.05775  1.0000 -0.1795584862
C   C261      1.0  0.63438  0.48096  0.32610  1.0000 -0.1883801905
C   C262      1.0  0.91359  0.56776  0.43435  1.0000 -0.1602393448
C   C263      1.0  0.72974  0.62707  0.49032  1.0000 -0.1711338685
C   C264      1.0  0.47502  0.56414  0.62452  1.0000 -0.1795584862
C   C265      1.0  0.82030  0.25118  0.75785  1.0000 0.5733237058
C   C266      1.0  0.78462  0.25116  0.79334  1.0000 -0.0400806925
C   C267      1.0  0.71543  0.25118  0.85815  1.0000 -0.1309234696
C   C268      1.0  0.84645  0.25089  0.22526  1.0000 -0.1883801905
C   C269      1.0  0.67797  0.74990  0.25756  1.0000 0.5733237058
C   C270      1.0  0.71357  0.75000  0.29308  1.0000 -0.0400806925
C   C271      1.0  0.78233  0.75059  0.35828  1.0000 -0.1309234696
C   C272      1.0  0.64942  0.75190  0.72504  1.0000 -0.1883801905
C   C273      1.0  0.17867  0.75106  0.24327  1.0000 0.5733237058
C   C274      1.0  0.21445  0.75074  0.20788  1.0000 -0.0400806925
C   C275      1.0  0.28372  0.75078  0.14319  1.0000 -0.1205325728
C   C276      1.0  0.15169  0.74923  0.77506  1.0000 -0.1883801905
C   C277      1.0  0.31986  0.24852  0.74327  1.0000 0.5733237058
C   C278      1.0  0.28413  0.24888  0.70781  1.0000 -0.0400806925
C   C279      1.0  0.21490  0.24952  0.64307  1.0000 -0.1309234696
C   C280      1.0  0.34665  0.25002  0.27534  1.0000 -0.1883801905
C   C281      1.0  0.85228  0.75114  0.68746  1.0000 -0.1100333478
C   C282      1.0  0.00776  0.74900  0.00276  1.0000 -0.0400806925
C   C283      1.0  0.79015  0.75146  0.75902  1.0000 -0.0642563434
C   C284      1.0  0.75507  0.75149  0.79499  1.0000 0.5531250716
C   C285      1.0  0.96797  0.74892  0.03483  1.0000 0.589241906
C   C286      1.0  0.08474  0.74904  0.94705  1.0000 -0.1401346106
C   C287      1.0  0.56401  0.76868  0.98713  1.0000 -0.1711338685
C   C288      1.0  0.64579  0.25015  0.18773  1.0000 -0.1017439872
C   C289      1.0  0.49064  0.25056  0.50264  1.0000 -0.0400806925
C   C290      1.0  0.70809  0.25007  0.25912  1.0000 -0.0642563434
C   C291      1.0  0.74316  0.25012  0.29508  1.0000 0.5531250716
C   C292      1.0  0.53039  0.25075  0.53474  1.0000 0.589241906
C   C293      1.0  0.41390  0.25044  0.44662  1.0000 -0.1309234696
C   C294      1.0  0.97317  0.26323  0.54740  1.0000 -0.1711338685
C   C295      1.0  0.14492  0.25019  0.31187  1.0000 -0.1100333478
C   C296      1.0  0.99095  0.24880  0.99793  1.0000 -0.0400806925
C   C297      1.0  0.20786  0.25059  0.24103  1.0000 -0.0642563434
C   C298      1.0  0.24316  0.25070  0.20528  1.0000 0.5531250716
C   C299      1.0  0.03078  0.24874  0.96591  1.0000 0.5825935245
C   C300      1.0  0.91370  0.24886  0.05326  1.0000 -0.1505837649
C   C301      1.0  0.46921  0.23137  0.96507  1.0000 -0.1602393448
C   C302      1.0  0.35366  0.74941  0.81114  1.0000 -0.1017439872
C   C303      1.0  0.50733  0.75131  0.49797  1.0000 -0.0400806925
C   C304      1.0  0.29073  0.74939  0.74037  1.0000 -0.0642563434
C   C305      1.0  0.25528  0.74934  0.70483  1.0000 0.5531250716
C   C306      1.0  0.46763  0.75120  0.46582  1.0000 0.589241906
C   C307      1.0  0.58425  0.75131  0.55372  1.0000 -0.1309234696
C   C308      1.0  0.04034  0.76491  0.47342  1.0000 -0.1711338685
N   N1        1.0  0.78662  0.05238  0.17448  1.0000 -0.4310294449
N   N2        1.0  0.96410  0.98668  0.56661  1.0000 -0.4494892922
N   N3        1.0  0.83599  0.94118  0.86243  1.0000 -0.4494892922
N   N4        1.0  0.57709  0.05452  0.93030  1.0000 -0.4401786536
N   N5        1.0  0.79100  0.11144  0.95822  1.0000 -0.4906378209
N   N6        1.0  0.03625  0.99010  0.09137  1.0000 -0.4610364794
N   N7        1.0  0.71185  0.94876  0.67502  1.0000 -0.4401786536
N   N8        1.0  0.54810  0.03289  0.06501  1.0000 -0.4494892922
N   N9        1.0  0.66343  0.05242  0.36528  1.0000 -0.4494892922
N   N10       1.0  0.94581  0.93320  0.45003  1.0000 -0.4906378209
N   N11       1.0  0.72207  0.87882  0.46756  1.0000 -0.4793438499
N   N12       1.0  0.46978  0.95575  0.61629  1.0000 -0.5577112049
N   N13       1.0  0.21244  0.54929  0.82431  1.0000 -0.4401786536
N   N14       1.0  0.07200  0.46155  0.44815  1.0000 -0.4494892922
N   N15       1.0  0.16412  0.45981  0.13793  1.0000 -0.4494892922
N   N16       1.0  0.46019  0.55599  0.06511  1.0000 -0.4793438499
N   N17       1.0  0.21167  0.59701  0.04068  1.0000 -0.4793438499
N   N18       1.0  0.95842  0.48711  0.91434  1.0000 -0.4610364794
N   N19       1.0  0.28582  0.44860  0.32508  1.0000 -0.4310294449
N   N20       1.0  0.42761  0.54631  0.93785  1.0000 -0.4401786536
N   N21       1.0  0.33422  0.54355  0.63557  1.0000 -0.4494892922
N   N22       1.0  0.04813  0.47864  0.56697  1.0000 -0.6107722283
N   N23       1.0  0.27332  0.37866  0.53371  1.0000 -0.4707002753
N   N24       1.0  0.53821  0.51063  0.41245  1.0000 -0.4494892922
N   N25       1.0  0.21287  0.95016  0.82286  1.0000 -0.4310294449
N   N26       1.0  0.04940  0.05143  0.43367  1.0000 -0.4494892922
N   N27       1.0  0.16221  0.06872  0.13575  1.0000 -0.4494892922
N   N28       1.0  0.44498  0.91507  0.03603  1.0000 -0.4906378209
N   N29       1.0  0.19224  0.88467  0.04281  1.0000 -0.4793438499
N   N30       1.0  0.96093  0.01070  0.91187  1.0000 -0.4610364794
N   N31       1.0  0.28616  0.04945  0.32378  1.0000 -0.4310294449
N   N32       1.0  0.46175  0.96974  0.91365  1.0000 -0.5509937366
N   N33       1.0  0.34009  0.92925  0.64104  1.0000 -0.4401786536
N   N34       1.0  0.07431  0.11839  0.55769  1.0000 -0.6107722283
N   N35       1.0  0.29242  0.08383  0.54949  1.0000 -0.4610364794
N   N36       1.0  0.53541  0.98994  0.40881  1.0000 -0.4494892922
N   N37       1.0  0.78593  0.45062  0.17594  1.0000 -0.4310294449
N   N38       1.0  0.93604  0.55347  0.56499  1.0000 -0.4401786536
N   N39       1.0  0.83486  0.55657  0.86280  1.0000 -0.4494892922
N   N40       1.0  0.53955  0.47078  0.93964  1.0000 -0.4793438499
N   N41       1.0  0.83351  0.37550  0.95162  1.0000 -0.4793438499
N   N42       1.0  0.03382  0.50204  0.09380  1.0000 -0.4494892922
N   N43       1.0  0.71204  0.55175  0.67602  1.0000 -0.4310294449
N   N44       1.0  0.57270  0.45335  0.06006  1.0000 -0.4494892922
N   N45       1.0  0.66096  0.43398  0.36025  1.0000 -0.4494892922
N   N46       1.0  0.95860  0.53277  0.44324  1.0000 -0.4793438499
N   N47       1.0  0.70346  0.58514  0.45441  1.0000 -0.4707002753
N   N48       1.0  0.46342  0.49372  0.59159  1.0000 -0.4494892922
N   N49       1.0  0.89541  0.24991  0.22551  1.0000 -0.4186856389
N   N50       1.0  0.60047  0.75250  0.72350  1.0000 -0.4186856389
N   N51       1.0  0.10274  0.74923  0.77632  1.0000 -0.4186856389
N   N52       1.0  0.39559  0.24939  0.27696  1.0000 -0.4186856389
N   N53       1.0  0.53628  0.73092  0.02304  1.0000 -0.4707002753
N   N54       1.0  0.97864  0.26606  0.59611  1.0000 -0.4186856389
N   N55       1.0  0.47756  0.25513  0.91823  1.0000 -0.5509937366
N   N56       1.0  0.02372  0.74388  0.42844  1.0000 -0.4494892922
O   O1        1.0  0.72173  0.99520  0.83420  1.0000 -0.6429768204
O   O2        1.0  0.12819  0.91884  0.93378  1.0000 -0.5410068094
O   O3        1.0  0.08225  0.87590  0.65835  1.0000 -0.4793438499
O   O4        1.0  0.06605  0.00778  0.94251  1.0000 -0.6820714831
O   O5        1.0  0.14591  0.94648  0.68272  1.0000 -0.6234516092
O   O6        1.0  0.09670  0.03419  0.85965  1.0000 -0.4707002753
O   O7        1.0  0.84738  0.00718  0.71122  1.0000 -0.6594063401
O   O8        1.0  0.93169  0.06710  0.67840  1.0000 -0.4793438499
O   O9        1.0  0.82651  0.11678  0.41552  1.0000 -0.4610364794
O   O10       1.0  0.05686  0.15207  0.85814  1.0000 -0.4074087373
O   O11       1.0  0.75923  0.14563  0.40143  1.0000 -0.4986444533
O   O12       1.0  0.74034  0.82860  0.80939  1.0000 -0.5287941662
O   O13       1.0  0.92534  0.14893  0.73637  1.0000 -0.4707002753
O   O14       1.0  0.83458  0.17395  0.74291  1.0000 -0.5287941662
O   O15       1.0  0.95192  0.82688  0.04808  1.0000 -0.5509937366
O   O16       1.0  0.63861  0.14818  0.53710  1.0000 -0.4494892922
O   O17       1.0  0.68839  0.07582  0.89070  1.0000 -0.5287941662
O   O18       1.0  0.66091  0.09787  0.59803  1.0000 -0.4401786536
O   O19       1.0  0.82946  0.11612  0.64097  1.0000 -0.5998960835
O   O20       1.0  0.87814  0.12939  0.58252  1.0000 -0.5196858207
O   O21       1.0  0.87437  0.92703  0.65121  1.0000 -0.5287941662
O   O22       1.0  0.77700  0.00615  0.33346  1.0000 -0.6429768204
O   O23       1.0  0.37022  0.08066  0.43376  1.0000 -0.5410068094
O   O24       1.0  0.41590  0.12289  0.15749  1.0000 -0.4906378209
O   O25       1.0  0.43235  0.99168  0.44232  1.0000 -0.6820714831
O   O26       1.0  0.35230  0.05419  0.18323  1.0000 -0.6234516092
O   O27       1.0  0.40158  0.96553  0.35955  1.0000 -0.4707002753
O   O28       1.0  0.65080  0.99421  0.21150  1.0000 -0.6594063401
O   O29       1.0  0.56661  0.93424  0.17839  1.0000 -0.4707002753
O   O30       1.0  0.67196  0.88507  0.91569  1.0000 -0.4610364794
O   O31       1.0  0.44134  0.84751  0.35779  1.0000 -0.4074087373
O   O32       1.0  0.73916  0.85533  0.90161  1.0000 -0.4986444533
O   O33       1.0  0.75797  0.17302  0.30940  1.0000 -0.5287941662
O   O34       1.0  0.57305  0.85243  0.23640  1.0000 -0.4707002753
O   O35       1.0  0.66363  0.82718  0.24276  1.0000 -0.5287941662
O   O36       1.0  0.54645  0.17286  0.54804  1.0000 -0.5287941662
O   O37       1.0  0.85977  0.85276  0.03713  1.0000 -0.4494892922
O   O38       1.0  0.80670  0.92676  0.39230  1.0000 -0.5196858207
O   O39       1.0  0.83754  0.90192  0.09833  1.0000 -0.4401786536
O   O40       1.0  0.66888  0.88581  0.14103  1.0000 -0.5940119981
O   O41       1.0  0.62035  0.87183  0.08249  1.0000 -0.5196858207
O   O42       1.0  0.62379  0.07438  0.15153  1.0000 -0.5287941662
O   O43       1.0  0.27697  0.49439  0.16657  1.0000 -0.6509890715
O   O44       1.0  0.87017  0.41873  0.06629  1.0000 -0.5287941662
O   O45       1.0  0.91591  0.37960  0.34384  1.0000 -0.4986444533
O   O46       1.0  0.93236  0.50754  0.05784  1.0000 -0.6820714831
O   O47       1.0  0.85230  0.44668  0.31715  1.0000 -0.6259999036
O   O48       1.0  0.90174  0.53363  0.14062  1.0000 -0.4707002753
O   O49       1.0  0.15157  0.50670  0.28933  1.0000 -0.6509890715
O   O50       1.0  0.06586  0.57071  0.32328  1.0000 -0.4793438499
O   O51       1.0  0.17168  0.61602  0.58482  1.0000 -0.4494892922
O   O52       1.0  0.94179  0.65119  0.14229  1.0000 -0.4074087373
O   O53       1.0  0.23892  0.64493  0.59906  1.0000 -0.4986444533
O   O54       1.0  0.25826  0.32781  0.19130  1.0000 -0.5287941662
O   O55       1.0  0.07474  0.64129  0.26241  1.0000 -0.4707002753
O   O56       1.0  0.16521  0.67409  0.25916  1.0000 -0.5287941662
O   O57       1.0  0.04684  0.32670  0.95270  1.0000 -0.5509937366
O   O58       1.0  0.35980  0.64593  0.46362  1.0000 -0.4494892922
O   O59       1.0  0.31180  0.57580  0.11128  1.0000 -0.5196858207
O   O60       1.0  0.33745  0.59808  0.40220  1.0000 -0.4401786536
O   O61       1.0  0.16770  0.60457  0.36034  1.0000 -0.5998960835
O   O62       1.0  0.12123  0.64364  0.41774  1.0000 -0.4986444533
O   O63       1.0  0.12028  0.42485  0.34659  1.0000 -0.5287941662
O   O64       1.0  0.22127  0.50560  0.66701  1.0000 -0.6429768204
O   O65       1.0  0.62796  0.58147  0.56649  1.0000 -0.5410068094
O   O66       1.0  0.58218  0.62370  0.84281  1.0000 -0.4986444533
O   O67       1.0  0.56583  0.49252  0.55780  1.0000 -0.6860754847
O   O68       1.0  0.64576  0.55508  0.81695  1.0000 -0.6234516092
O   O69       1.0  0.59649  0.46669  0.64042  1.0000 -0.4707002753
O   O70       1.0  0.34656  0.49274  0.78889  1.0000 -0.6509890715
O   O71       1.0  0.43256  0.42972  0.82315  1.0000 -0.4610364794
O   O72       1.0  0.32667  0.38345  0.08504  1.0000 -0.4494892922
O   O73       1.0  0.55651  0.34901  0.64226  1.0000 -0.4074087373
O   O74       1.0  0.25943  0.35434  0.09921  1.0000 -0.4986444533
O   O75       1.0  0.24021  0.67220  0.69085  1.0000 -0.5287941662
O   O76       1.0  0.42385  0.35867  0.76242  1.0000 -0.4707002753
O   O77       1.0  0.33326  0.32552  0.75920  1.0000 -0.5287941662
O   O78       1.0  0.45164  0.67318  0.45265  1.0000 -0.5509937366
O   O79       1.0  0.13885  0.35326  0.96359  1.0000 -0.4494892922
O   O80       1.0  0.18851  0.42489  0.61026  1.0000 -0.5117828607
O   O81       1.0  0.16115  0.40158  0.90226  1.0000 -0.4401786536
O   O82       1.0  0.33126  0.39566  0.86065  1.0000 -0.5998960835
O   O83       1.0  0.37768  0.35570  0.91806  1.0000 -0.4707002753
O   O84       1.0  0.37777  0.57493  0.84604  1.0000 -0.5287941662
O   O85       1.0  0.27644  0.00728  0.16643  1.0000 -0.6509890715
O   O86       1.0  0.87027  0.07894  0.06641  1.0000 -0.5410068094
O   O87       1.0  0.91583  0.12175  0.34298  1.0000 -0.4906378209
O   O88       1.0  0.93256  0.99023  0.05819  1.0000 -0.6820714831
O   O89       1.0  0.85218  0.05294  0.31745  1.0000 -0.6234516092
O   O90       1.0  0.90175  0.96439  0.14075  1.0000 -0.4707002753
O   O91       1.0  0.15062  0.99466  0.28828  1.0000 -0.6509890715
O   O92       1.0  0.06668  0.93425  0.32189  1.0000 -0.4793438499
O   O93       1.0  0.17162  0.88160  0.58465  1.0000 -0.4401786536
O   O94       1.0  0.94157  0.84650  0.14271  1.0000 -0.4074087373
O   O95       1.0  0.23892  0.85348  0.59869  1.0000 -0.4986444533
O   O96       1.0  0.25789  0.17361  0.19083  1.0000 -0.5287941662
O   O97       1.0  0.07300  0.85155  0.26416  1.0000 -0.4707002753
O   O98       1.0  0.16370  0.82840  0.25725  1.0000 -0.5287941662
O   O99       1.0  0.04681  0.17074  0.95274  1.0000 -0.5509937366
O   O100      1.0  0.35943  0.85232  0.46302  1.0000 -0.4401786536
O   O101      1.0  0.31232  0.92567  0.11196  1.0000 -0.5196858207
O   O102      1.0  0.33736  0.90482  0.40242  1.0000 -0.4401786536
O   O103      1.0  0.16903  0.88685  0.35908  1.0000 -0.5998960835
O   O104      1.0  0.12012  0.87754  0.41749  1.0000 -0.5196858207
O   O105      1.0  0.12395  0.07439  0.34855  1.0000 -0.5287941662
O   O106      1.0  0.22157  0.99303  0.66613  1.0000 -0.6509890715
O   O107      1.0  0.62781  0.92114  0.56669  1.0000 -0.5410068094
O   O108      1.0  0.58296  0.87573  0.84132  1.0000 -0.4906378209
O   O109      1.0  0.56553  0.00993  0.55857  1.0000 -0.6594063401
O   O110      1.0  0.64625  0.94881  0.81785  1.0000 -0.6234516092
O   O111      1.0  0.59700  0.03646  0.64086  1.0000 -0.4707002753
O   O112      1.0  0.34786  0.00523  0.78803  1.0000 -0.6594063401
O   O113      1.0  0.43191  0.06550  0.82179  1.0000 -0.4310294449
O   O114      1.0  0.32681  0.11633  0.08491  1.0000 -0.4494892922
O   O115      1.0  0.55690  0.15407  0.64262  1.0000 -0.3943800986
O   O116      1.0  0.25972  0.14742  0.09870  1.0000 -0.4986444533
O   O117      1.0  0.24040  0.82641  0.69056  1.0000 -0.5287941662
O   O118      1.0  0.42554  0.14850  0.76417  1.0000 -0.4610364794
O   O119      1.0  0.33481  0.17120  0.75724  1.0000 -0.5287941662
O   O120      1.0  0.45159  0.82908  0.45254  1.0000 -0.5509937366
O   O121      1.0  0.13902  0.14662  0.96325  1.0000 -0.4494892922
O   O122      1.0  0.18629  0.07486  0.61127  1.0000 -0.5117828607
O   O123      1.0  0.16103  0.09466  0.90254  1.0000 -0.4401786536
O   O124      1.0  0.32962  0.11228  0.85915  1.0000 -0.5998960835
O   O125      1.0  0.37841  0.12412  0.91755  1.0000 -0.4707002753
O   O126      1.0  0.37510  0.92475  0.84779  1.0000 -0.4906378209
O   O127      1.0  0.72097  0.50706  0.83353  1.0000 -0.6429768204
O   O128      1.0  0.12830  0.57916  0.93398  1.0000 -0.5410068094
O   O129      1.0  0.08226  0.62534  0.65922  1.0000 -0.4906378209
O   O130      1.0  0.06609  0.49032  0.94251  1.0000 -0.6820714831
O   O131      1.0  0.14561  0.55237  0.68273  1.0000 -0.6234516092
O   O132      1.0  0.09671  0.46440  0.85993  1.0000 -0.4707002753
O   O133      1.0  0.84730  0.49533  0.71164  1.0000 -0.6594063401
O   O134      1.0  0.93137  0.43579  0.67888  1.0000 -0.4793438499
O   O135      1.0  0.82651  0.38389  0.41553  1.0000 -0.4494892922
O   O136      1.0  0.05661  0.34692  0.85819  1.0000 -0.4074087373
O   O137      1.0  0.75929  0.35417  0.40146  1.0000 -0.4986444533
O   O138      1.0  0.74015  0.67436  0.80919  1.0000 -0.5287941662
O   O139      1.0  0.92494  0.35273  0.73646  1.0000 -0.4707002753
O   O140      1.0  0.83425  0.32847  0.74276  1.0000 -0.5287941662
O   O141      1.0  0.95191  0.67089  0.04791  1.0000 -0.5509937366
O   O142      1.0  0.63850  0.35440  0.53686  1.0000 -0.4494892922
O   O143      1.0  0.68799  0.42657  0.89030  1.0000 -0.5117828607
O   O144      1.0  0.66077  0.40423  0.59793  1.0000 -0.4401786536
O   O145      1.0  0.82918  0.38668  0.64106  1.0000 -0.5998960835
O   O146      1.0  0.87785  0.37249  0.58271  1.0000 -0.5196858207
O   O147      1.0  0.87334  0.57496  0.65110  1.0000 -0.5287941662
O   O148      1.0  0.77679  0.49432  0.33407  1.0000 -0.6429768204
O   O149      1.0  0.37035  0.42031  0.43350  1.0000 -0.5410068094
O   O150      1.0  0.41616  0.37482  0.15902  1.0000 -0.4906378209
O   O151      1.0  0.43247  0.50920  0.44236  1.0000 -0.6820714831
O   O152      1.0  0.35278  0.44696  0.18308  1.0000 -0.6234516092
O   O153      1.0  0.40181  0.53518  0.35991  1.0000 -0.4707002753
O   O154      1.0  0.65119  0.50615  0.21132  1.0000 -0.6594063401
O   O155      1.0  0.56679  0.56545  0.17853  1.0000 -0.4707002753
O   O156      1.0  0.67171  0.61765  0.91534  1.0000 -0.4494892922
O   O157      1.0  0.44203  0.65257  0.35822  1.0000 -0.4074087373
O   O158      1.0  0.73903  0.64615  0.90116  1.0000 -0.4906378209
O   O159      1.0  0.75803  0.32726  0.30933  1.0000 -0.5287941662
O   O160      1.0  0.57334  0.64786  0.23633  1.0000 -0.4707002753
O   O161      1.0  0.66410  0.67265  0.24235  1.0000 -0.5287941662
O   O162      1.0  0.54646  0.32881  0.54779  1.0000 -0.5577112049
O   O163      1.0  0.85984  0.64594  0.03690  1.0000 -0.4494892922
O   O164      1.0  0.81038  0.57540  0.39027  1.0000 -0.5196858207
O   O165      1.0  0.83744  0.59580  0.09786  1.0000 -0.4401786536
O   O166      1.0  0.66864  0.61391  0.14050  1.0000 -0.5998960835
O   O167      1.0  0.62062  0.63746  0.08227  1.0000 -0.5196858207
O   O168      1.0  0.62429  0.42582  0.15140  1.0000 -0.5287941662
O   O169      1.0  0.10901  0.24901  0.88779  1.0000 -0.5410068094
O   O170      1.0  0.88282  0.25138  0.66061  1.0000 -0.7360197067
O   O171      1.0  0.38947  0.75041  0.38762  1.0000 -0.5577112049
O   O172      1.0  0.61533  0.75023  0.16058  1.0000 -0.6820714831
O   O173      1.0  0.88967  0.74880  0.11276  1.0000 -0.5509937366
O   O174      1.0  0.11653  0.75109  0.33974  1.0000 -0.7292255222
O   O175      1.0  0.60869  0.25144  0.61274  1.0000 -0.5577112049
O   O176      1.0  0.38184  0.24869  0.83965  1.0000 -0.6820714831
O   O177      1.0  0.66163  0.75155  0.83821  1.0000 -0.7292255222
O   O178      1.0  0.83664  0.25013  0.33809  1.0000 -0.7292255222
O   O179      1.0  0.33679  0.25052  0.16252  1.0000 -0.7292255222
O   O180      1.0  0.16161  0.74935  0.66253  1.0000 -0.7095379591
