# DDEC6 charges by PACMAN v1.1 (https://github.com/mtap-research/PACMAN-charge/)
data_2011[La][nan]3[ION]1
_chemical_formula_sum              "La4 H8 C24 S4 N2 Cl2 O22"
_cell_length_a       12.827
_cell_length_b       6.5366
_cell_length_c       16.096
_cell_angle_alpha    90
_cell_angle_beta     90.34
_cell_angle_gamma    90

_symmetry_space_group_name_H-M    "P 1"
_symmetry_Int_Tables_number       1

loop_
  _symmetry_equiv_pos_as_xyz
  'x, y, z'

loop_
  _atom_site_type_symbol
  _atom_site_label
  _atom_site_symmetry_multiplicity
  _atom_site_fract_x
  _atom_site_fract_y
  _atom_site_fract_z
  _atom_site_occupancy
  _atom_site_charge
La  La1       1.0  0.01706  0.92829  0.60585  1.0000 1.8132170552
La  La2       1.0  0.21595  0.32122  0.73133  1.0000 1.8522927874
La  La3       1.0  0.98294  0.42829  0.39415  1.0000 1.8159291857
La  La4       1.0  0.78405  0.82122  0.26867  1.0000 1.8522927874
H   H1        1.0  0.10710  0.91770  0.06620  1.0000 0.134305399
H   H2        1.0  0.16150  0.94220  0.92110  1.0000 0.1487992742
H   H3        1.0  0.46250  0.94790  0.64020  1.0000 0.1487992742
H   H4        1.0  0.61580  0.93360  0.56250  1.0000 0.1419933477
H   H5        1.0  0.89290  0.41770  0.93380  1.0000 0.134305399
H   H6        1.0  0.83850  0.44220  0.07890  1.0000 0.1487992742
H   H7        1.0  0.53750  0.44790  0.35980  1.0000 0.1487992742
H   H8        1.0  0.38420  0.43360  0.43750  1.0000 0.1419933477
C   C1        1.0  0.26130  0.95090  0.56890  1.0000 0.5985254759
C   C2        1.0  0.89730  0.90140  0.10770  1.0000 0.5595869535
C   C3        1.0  0.06070  0.92080  0.02160  1.0000 -0.1196199654
C   C4        1.0  0.01230  0.94690  0.79290  1.0000 0.6173968428
C   C5        1.0  0.00980  0.92860  0.88430  1.0000 -0.1104539557
C   C6        1.0  0.95470  0.91430  0.03030  1.0000 -0.1196199654
C   C7        1.0  0.09240  0.93270  0.93780  1.0000 -0.0982048548
C   C8        1.0  0.53070  0.93030  0.45810  1.0000 -0.0681862755
C   C9        1.0  0.61030  0.91300  0.38900  1.0000 0.5666703695
C   C10       1.0  0.36780  0.93890  0.53760  1.0000 -0.1104539557
C   C11       1.0  0.46160  0.94160  0.58250  1.0000 -0.1104539557
C   C12       1.0  0.54940  0.93490  0.53890  1.0000 -0.1299822515
C   C13       1.0  0.73870  0.45090  0.43110  1.0000 0.5985254759
C   C14       1.0  0.10270  0.40140  0.89230  1.0000 0.5595869535
C   C15       1.0  0.93930  0.42080  0.97840  1.0000 -0.1196199654
C   C16       1.0  0.98770  0.44690  0.20710  1.0000 0.6173968428
C   C17       1.0  0.99020  0.42860  0.11570  1.0000 -0.1104539557
C   C18       1.0  0.04530  0.41430  0.96970  1.0000 -0.1196199654
C   C19       1.0  0.90760  0.43270  0.06220  1.0000 -0.0982048548
C   C20       1.0  0.46930  0.43030  0.54190  1.0000 -0.0681862755
C   C21       1.0  0.38970  0.41300  0.61100  1.0000 0.5666703695
C   C22       1.0  0.63220  0.43890  0.46240  1.0000 -0.1104539557
C   C23       1.0  0.53840  0.44160  0.41750  1.0000 -0.1104539557
C   C24       1.0  0.45060  0.43490  0.46110  1.0000 -0.1299822515
S   S1        1.0  0.89299  0.91470  0.93437  1.0000 0.1971756333
S   S2        1.0  0.39513  0.92640  0.43427  1.0000 0.1692582184
S   S3        1.0  0.10701  0.41470  0.06563  1.0000 0.1971756333
S   S4        1.0  0.60487  0.42640  0.56573  1.0000 0.1692582184
N   N1        1.0  0.07030  0.47940  0.59940  1.0000 0.7739534491
N   N2        1.0  0.92970  0.97940  0.40060  1.0000 0.7777063959
Cl  Cl1       1.0  0.38100  0.74200  0.88700  1.0000 -0.4921584016
Cl  Cl2       1.0  0.61900  0.24200  0.11300  1.0000 -0.5027525312
O   O1        1.0  0.08650  0.28520  0.60850  1.0000 -0.5799164063
O   O2        1.0  0.24450  0.99010  0.64460  1.0000 -0.6064909583
O   O3        1.0  0.18620  0.92180  0.51850  1.0000 -0.5799164063
O   O4        1.0  0.94390  0.91450  0.17610  1.0000 -0.5506190744
O   O5        1.0  0.79790  0.87070  0.10410  1.0000 -0.5929422713
O   O6        1.0  0.10040  0.59940  0.65910  1.0000 -0.527319271
O   O7        1.0  0.09580  0.00960  0.75750  1.0000 -0.6564609593
O   O8        1.0  0.70390  0.93170  0.40900  1.0000 -0.559004981
O   O9        1.0  0.02750  0.55650  0.53540  1.0000 -0.5675991065
O   O10       1.0  0.93250  0.89830  0.75050  1.0000 -0.5929422713
O   O11       1.0  0.58070  0.88550  0.31840  1.0000 -0.5445094592
O   O12       1.0  0.91350  0.78520  0.39150  1.0000 -0.5799164063
O   O13       1.0  0.75550  0.49010  0.35540  1.0000 -0.6064909583
O   O14       1.0  0.81380  0.42180  0.48150  1.0000 -0.5799164063
O   O15       1.0  0.05610  0.41450  0.82390  1.0000 -0.5506190744
O   O16       1.0  0.20210  0.37070  0.89590  1.0000 -0.5929422713
O   O17       1.0  0.89960  0.09940  0.34090  1.0000 -0.527319271
O   O18       1.0  0.90420  0.50960  0.24250  1.0000 -0.6564609593
O   O19       1.0  0.29610  0.43170  0.59100  1.0000 -0.559004981
O   O20       1.0  0.97250  0.05650  0.46460  1.0000 -0.5675991065
O   O21       1.0  0.06750  0.39830  0.24950  1.0000 -0.5929422713
O   O22       1.0  0.41930  0.38550  0.68160  1.0000 -0.5506190744
