# DDEC6 charges by PACMAN v1.1 (https://github.com/mtap-research/PACMAN-charge/)
data_2011[Zn][bto]3[ION]1
_chemical_formula_sum              "Zn6 H234 C216 Br12 N36 O18"
_cell_length_a       13.3714
_cell_length_b       13.3714
_cell_length_c       41.4227
_cell_angle_alpha    90
_cell_angle_beta     90
_cell_angle_gamma    120

_symmetry_space_group_name_H-M    "P 1"
_symmetry_Int_Tables_number       1

loop_
  _symmetry_equiv_pos_as_xyz
  'x, y, z'

loop_
  _atom_site_type_symbol
  _atom_site_label
  _atom_site_symmetry_multiplicity
  _atom_site_fract_x
  _atom_site_fract_y
  _atom_site_fract_z
  _atom_site_occupancy
  _atom_site_charge
Zn  Zn1       1.0  0.64164  0.30738  0.74950  1.0000 0.7607029292
Zn  Zn2       1.0  0.69262  0.33426  0.08283  1.0000 0.7607029292
Zn  Zn3       1.0  0.66574  0.35836  0.41617  1.0000 0.7607029292
Zn  Zn4       1.0  0.30738  0.64164  0.25050  1.0000 0.7607029292
Zn  Zn5       1.0  0.33426  0.69262  0.91717  1.0000 0.7607029292
Zn  Zn6       1.0  0.35836  0.66574  0.58383  1.0000 0.7607029292
H   H1        1.0  0.77560  0.25100  0.77500  1.0000 0.2893757734
H   H2        1.0  0.74900  0.52460  0.10833  1.0000 0.2893757734
H   H3        1.0  0.47540  0.22440  0.44167  1.0000 0.2893757734
H   H4        1.0  0.25100  0.77560  0.22500  1.0000 0.2893757734
H   H5        1.0  0.52460  0.74900  0.89167  1.0000 0.2893757734
H   H6        1.0  0.22440  0.47540  0.55833  1.0000 0.2893757734
H   H7        1.0  0.66100  0.14130  0.77260  1.0000 0.2777305408
H   H8        1.0  0.85870  0.51970  0.10593  1.0000 0.2777305408
H   H9        1.0  0.48030  0.33900  0.43927  1.0000 0.2777305408
H   H10       1.0  0.14130  0.66100  0.22740  1.0000 0.2777305408
H   H11       1.0  0.51970  0.85870  0.89407  1.0000 0.2777305408
H   H12       1.0  0.33900  0.48030  0.56073  1.0000 0.2777305408
H   H13       1.0  0.64410  0.13600  0.82200  1.0000 0.0932115764
H   H14       1.0  0.86400  0.50810  0.15533  1.0000 0.0932115764
H   H15       1.0  0.49190  0.35590  0.48867  1.0000 0.0932115764
H   H16       1.0  0.13600  0.64410  0.17800  1.0000 0.0932115764
H   H17       1.0  0.50810  0.86400  0.84467  1.0000 0.0932115764
H   H18       1.0  0.35590  0.49190  0.51133  1.0000 0.0932115764
H   H19       1.0  0.53800  0.18400  0.86110  1.0000 0.2738408162
H   H20       1.0  0.81600  0.35400  0.19443  1.0000 0.2738408162
H   H21       1.0  0.64600  0.46200  0.52777  1.0000 0.2738408162
H   H22       1.0  0.18400  0.53800  0.13890  1.0000 0.2738408162
H   H23       1.0  0.35400  0.81600  0.80557  1.0000 0.2738408162
H   H24       1.0  0.46200  0.64600  0.47223  1.0000 0.2738408162
H   H25       1.0  0.41990  0.15780  0.89900  1.0000 0.1281812397
H   H26       1.0  0.84220  0.26210  0.23233  1.0000 0.1281812397
H   H27       1.0  0.73790  0.58010  0.56567  1.0000 0.1281812397
H   H28       1.0  0.15780  0.41990  0.10100  1.0000 0.1281812397
H   H29       1.0  0.26210  0.84220  0.76767  1.0000 0.1281812397
H   H30       1.0  0.58010  0.73790  0.43433  1.0000 0.1281812397
H   H31       1.0  0.29360  0.20650  0.92410  1.0000 0.1281812397
H   H32       1.0  0.79350  0.08710  0.25743  1.0000 0.1281812397
H   H33       1.0  0.91290  0.70640  0.59077  1.0000 0.1281812397
H   H34       1.0  0.20650  0.29360  0.07590  1.0000 0.1281812397
H   H35       1.0  0.08710  0.79350  0.74257  1.0000 0.1281812397
H   H36       1.0  0.70640  0.91290  0.40923  1.0000 0.1281812397
H   H37       1.0  0.31940  0.40520  0.84790  1.0000 0.1281812397
H   H38       1.0  0.59480  0.91420  0.18123  1.0000 0.1281812397
H   H39       1.0  0.08580  0.68060  0.51457  1.0000 0.1281812397
H   H40       1.0  0.40520  0.31940  0.15210  1.0000 0.1281812397
H   H41       1.0  0.91420  0.59480  0.81877  1.0000 0.1281812397
H   H42       1.0  0.68060  0.08580  0.48543  1.0000 0.1281812397
H   H43       1.0  0.44340  0.35450  0.82230  1.0000 0.1281812397
H   H44       1.0  0.64550  0.08890  0.15563  1.0000 0.1281812397
H   H45       1.0  0.91110  0.55660  0.48897  1.0000 0.1281812397
H   H46       1.0  0.35450  0.44340  0.17770  1.0000 0.1281812397
H   H47       1.0  0.08890  0.64550  0.84437  1.0000 0.1281812397
H   H48       1.0  0.55660  0.91110  0.51103  1.0000 0.1281812397
H   H49       1.0  0.15580  0.27320  0.91280  1.0000 0.2893757734
H   H50       1.0  0.72680  0.88260  0.24613  1.0000 0.2893757734
H   H51       1.0  0.11740  0.84420  0.57947  1.0000 0.2893757734
H   H52       1.0  0.27320  0.15580  0.08720  1.0000 0.2893757734
H   H53       1.0  0.88260  0.72680  0.75387  1.0000 0.2893757734
H   H54       1.0  0.84420  0.11740  0.42053  1.0000 0.2893757734
H   H55       1.0  0.08710  0.38780  0.93750  1.0000 0.0767224941
H   H56       1.0  0.61220  0.69930  0.27083  1.0000 0.0767224941
H   H57       1.0  0.30070  0.91290  0.60417  1.0000 0.0767224941
H   H58       1.0  0.38780  0.08710  0.06250  1.0000 0.0767224941
H   H59       1.0  0.69930  0.61220  0.72917  1.0000 0.0767224941
H   H60       1.0  0.91290  0.30070  0.39583  1.0000 0.0767224941
H   H61       1.0  0.13100  0.59000  0.94070  1.0000 0.2632738837
H   H62       1.0  0.41000  0.54100  0.27403  1.0000 0.2632738837
H   H63       1.0  0.45900  0.86900  0.60737  1.0000 0.2632738837
H   H64       1.0  0.59000  0.13100  0.05930  1.0000 0.2632738837
H   H65       1.0  0.54100  0.41000  0.72597  1.0000 0.2632738837
H   H66       1.0  0.86900  0.45900  0.39263  1.0000 0.2632738837
H   H67       1.0  0.20600  0.56300  0.95890  1.0000 0.2632738837
H   H68       1.0  0.43700  0.64300  0.29223  1.0000 0.2632738837
H   H69       1.0  0.35700  0.79400  0.62557  1.0000 0.2632738837
H   H70       1.0  0.56300  0.20600  0.04110  1.0000 0.2632738837
H   H71       1.0  0.64300  0.43700  0.70777  1.0000 0.2632738837
H   H72       1.0  0.79400  0.35700  0.37443  1.0000 0.2632738837
H   H73       1.0  0.80030  0.38210  0.82320  1.0000 0.1216168663
H   H74       1.0  0.61790  0.41820  0.15653  1.0000 0.1216168663
H   H75       1.0  0.58180  0.19970  0.48987  1.0000 0.1216168663
H   H76       1.0  0.38210  0.80030  0.17680  1.0000 0.1216168663
H   H77       1.0  0.41820  0.61790  0.84347  1.0000 0.1216168663
H   H78       1.0  0.19970  0.58180  0.51013  1.0000 0.1216168663
H   H79       1.0  0.75360  0.30290  0.85480  1.0000 0.1216168663
H   H80       1.0  0.69710  0.45070  0.18813  1.0000 0.1216168663
H   H81       1.0  0.54930  0.24640  0.52147  1.0000 0.1216168663
H   H82       1.0  0.30290  0.75360  0.14520  1.0000 0.1216168663
H   H83       1.0  0.45070  0.69710  0.81187  1.0000 0.1216168663
H   H84       1.0  0.24640  0.54930  0.47853  1.0000 0.1216168663
H   H85       1.0  0.97960  0.41930  0.80200  1.0000 0.1281812397
H   H86       1.0  0.58070  0.56030  0.13533  1.0000 0.1281812397
H   H87       1.0  0.43970  0.02040  0.46867  1.0000 0.1281812397
H   H88       1.0  0.41930  0.97960  0.19800  1.0000 0.1281812397
H   H89       1.0  0.56030  0.58070  0.86467  1.0000 0.1281812397
H   H90       1.0  0.02040  0.43970  0.53133  1.0000 0.1281812397
H   H91       1.0  0.13230  0.38220  0.80000  1.0000 0.1101957751
H   H92       1.0  0.61780  0.75010  0.13333  1.0000 0.1101957751
H   H93       1.0  0.24990  0.86770  0.46667  1.0000 0.1101957751
H   H94       1.0  0.38220  0.13230  0.20000  1.0000 0.1101957751
H   H95       1.0  0.75010  0.61780  0.86667  1.0000 0.1101957751
H   H96       1.0  0.86770  0.24990  0.53333  1.0000 0.1101957751
H   H97       1.0  0.11820  0.22190  0.82520  1.0000 0.1101957751
H   H98       1.0  0.77810  0.89630  0.15853  1.0000 0.1101957751
H   H99       1.0  0.10370  0.88180  0.49187  1.0000 0.1101957751
H   H100      1.0  0.22190  0.11820  0.17480  1.0000 0.1101957751
H   H101      1.0  0.89630  0.77810  0.84147  1.0000 0.1101957751
H   H102      1.0  0.88180  0.10370  0.50813  1.0000 0.1101957751
H   H103      1.0  0.95230  0.09730  0.85400  1.0000 0.1101957751
H   H104      1.0  0.90270  0.85500  0.18733  1.0000 0.1101957751
H   H105      1.0  0.14500  0.04770  0.52067  1.0000 0.1101957751
H   H106      1.0  0.09730  0.95230  0.14600  1.0000 0.1101957751
H   H107      1.0  0.85500  0.90270  0.81267  1.0000 0.1101957751
H   H108      1.0  0.04770  0.14500  0.47933  1.0000 0.1101957751
H   H109      1.0  0.79910  0.13320  0.85660  1.0000 0.1281812397
H   H110      1.0  0.86680  0.66590  0.18993  1.0000 0.1281812397
H   H111      1.0  0.33410  0.20090  0.52327  1.0000 0.1281812397
H   H112      1.0  0.13320  0.79910  0.14340  1.0000 0.1281812397
H   H113      1.0  0.66590  0.86680  0.81007  1.0000 0.1281812397
H   H114      1.0  0.20090  0.33410  0.47673  1.0000 0.1281812397
H   H115      1.0  0.10060  0.51050  0.87860  1.0000 0.1281812397
H   H116      1.0  0.48950  0.59010  0.21193  1.0000 0.1281812397
H   H117      1.0  0.40990  0.89940  0.54527  1.0000 0.1281812397
H   H118      1.0  0.51050  0.10060  0.12140  1.0000 0.1281812397
H   H119      1.0  0.59010  0.48950  0.78807  1.0000 0.1281812397
H   H120      1.0  0.89940  0.40990  0.45473  1.0000 0.1281812397
H   H121      1.0  0.02620  0.37320  0.88230  1.0000 0.1101957751
H   H122      1.0  0.62680  0.65300  0.21563  1.0000 0.1101957751
H   H123      1.0  0.34700  0.97380  0.54897  1.0000 0.1101957751
H   H124      1.0  0.37320  0.02620  0.11770  1.0000 0.1101957751
H   H125      1.0  0.65300  0.62680  0.78437  1.0000 0.1101957751
H   H126      1.0  0.97380  0.34700  0.45103  1.0000 0.1101957751
H   H127      1.0  0.84640  0.28600  0.91380  1.0000 0.1216168663
H   H128      1.0  0.71400  0.56040  0.24713  1.0000 0.1216168663
H   H129      1.0  0.43960  0.15360  0.58047  1.0000 0.1216168663
H   H130      1.0  0.28600  0.84640  0.08620  1.0000 0.1216168663
H   H131      1.0  0.56040  0.71400  0.75287  1.0000 0.1216168663
H   H132      1.0  0.15360  0.43960  0.41953  1.0000 0.1216168663
H   H133      1.0  0.68670  0.29950  0.93020  1.0000 0.1020593905
H   H134      1.0  0.70050  0.38720  0.26353  1.0000 0.1020593905
H   H135      1.0  0.61280  0.31330  0.59687  1.0000 0.1020593905
H   H136      1.0  0.29950  0.68670  0.06980  1.0000 0.1020593905
H   H137      1.0  0.38720  0.70050  0.73647  1.0000 0.1020593905
H   H138      1.0  0.31330  0.61280  0.40313  1.0000 0.1020593905
H   H139      1.0  0.69840  0.47960  0.93270  1.0000 0.1101957751
H   H140      1.0  0.52040  0.21880  0.26603  1.0000 0.1101957751
H   H141      1.0  0.78120  0.30160  0.59937  1.0000 0.1101957751
H   H142      1.0  0.47960  0.69840  0.06730  1.0000 0.1101957751
H   H143      1.0  0.21880  0.52040  0.73397  1.0000 0.1101957751
H   H144      1.0  0.30160  0.78120  0.40063  1.0000 0.1101957751
H   H145      1.0  0.86990  0.64580  0.91950  1.0000 0.1101957751
H   H146      1.0  0.35420  0.22410  0.25283  1.0000 0.1101957751
H   H147      1.0  0.77590  0.13010  0.58617  1.0000 0.1101957751
H   H148      1.0  0.64580  0.86990  0.08050  1.0000 0.1101957751
H   H149      1.0  0.22410  0.35420  0.74717  1.0000 0.1101957751
H   H150      1.0  0.13010  0.77590  0.41383  1.0000 0.1101957751
H   H151      1.0  0.02760  0.63130  0.90030  1.0000 0.1281812397
H   H152      1.0  0.36870  0.39630  0.23363  1.0000 0.1281812397
H   H153      1.0  0.60370  0.97240  0.56697  1.0000 0.1281812397
H   H154      1.0  0.63130  0.02760  0.09970  1.0000 0.1281812397
H   H155      1.0  0.39630  0.36870  0.76637  1.0000 0.1281812397
H   H156      1.0  0.97240  0.60370  0.43303  1.0000 0.1281812397
H   H157      1.0  0.46900  0.17700  0.71320  1.0000 0.2738408162
H   H158      1.0  0.82300  0.29200  0.04653  1.0000 0.2738408162
H   H159      1.0  0.70800  0.53100  0.37987  1.0000 0.2738408162
H   H160      1.0  0.17700  0.46900  0.28680  1.0000 0.2738408162
H   H161      1.0  0.29200  0.82300  0.95347  1.0000 0.2738408162
H   H162      1.0  0.53100  0.70800  0.62013  1.0000 0.2738408162
H   H163      1.0  0.47300  0.10010  0.73740  1.0000 0.2777305408
H   H164      1.0  0.89990  0.37290  0.07073  1.0000 0.2777305408
H   H165      1.0  0.62710  0.52700  0.40407  1.0000 0.2777305408
H   H166      1.0  0.10010  0.47300  0.26260  1.0000 0.2777305408
H   H167      1.0  0.37290  0.89990  0.92927  1.0000 0.2777305408
H   H168      1.0  0.52700  0.62710  0.59593  1.0000 0.2777305408
H   H169      1.0  0.57160  0.04900  0.70940  1.0000 0.0932115764
H   H170      1.0  0.95100  0.52260  0.04273  1.0000 0.0932115764
H   H171      1.0  0.47740  0.42840  0.37607  1.0000 0.0932115764
H   H172      1.0  0.04900  0.57160  0.29060  1.0000 0.0932115764
H   H173      1.0  0.52260  0.95100  0.95727  1.0000 0.0932115764
H   H174      1.0  0.42840  0.47740  0.62393  1.0000 0.0932115764
H   H175      1.0  0.72500  0.11020  0.66860  1.0000 0.2777305408
H   H176      1.0  0.88980  0.61480  0.00193  1.0000 0.2777305408
H   H177      1.0  0.38520  0.27500  0.33527  1.0000 0.2777305408
H   H178      1.0  0.11020  0.72500  0.33140  1.0000 0.2777305408
H   H179      1.0  0.61480  0.88980  0.99807  1.0000 0.2777305408
H   H180      1.0  0.27500  0.38520  0.66473  1.0000 0.2777305408
H   H181      1.0  0.90010  0.11000  0.67030  1.0000 0.1281812397
H   H182      1.0  0.89000  0.79010  0.00363  1.0000 0.1281812397
H   H183      1.0  0.20990  0.09990  0.33697  1.0000 0.1281812397
H   H184      1.0  0.11000  0.90010  0.32970  1.0000 0.1281812397
H   H185      1.0  0.79010  0.89000  0.99637  1.0000 0.1281812397
H   H186      1.0  0.09990  0.20990  0.66303  1.0000 0.1281812397
H   H187      1.0  0.90020  0.41010  0.67050  1.0000 0.1216168663
H   H188      1.0  0.58990  0.49010  0.00383  1.0000 0.1216168663
H   H189      1.0  0.50990  0.09980  0.33717  1.0000 0.1216168663
H   H190      1.0  0.41010  0.90020  0.32950  1.0000 0.1216168663
H   H191      1.0  0.49010  0.58990  0.99617  1.0000 0.1216168663
H   H192      1.0  0.09980  0.50990  0.66283  1.0000 0.1216168663
H   H193      1.0  0.48830  0.13810  0.65950  1.0000 0.1216168663
H   H194      1.0  0.86190  0.35020  0.99283  1.0000 0.1216168663
H   H195      1.0  0.64980  0.51170  0.32617  1.0000 0.1216168663
H   H196      1.0  0.13810  0.48830  0.34050  1.0000 0.1216168663
H   H197      1.0  0.35020  0.86190  0.00717  1.0000 0.1216168663
H   H198      1.0  0.51170  0.64980  0.67383  1.0000 0.1216168663
H   H199      1.0  0.54390  0.05880  0.65190  1.0000 0.1101957751
H   H200      1.0  0.94120  0.48510  0.98523  1.0000 0.1101957751
H   H201      1.0  0.51490  0.45610  0.31857  1.0000 0.1101957751
H   H202      1.0  0.05880  0.54390  0.34810  1.0000 0.1101957751
H   H203      1.0  0.48510  0.94120  0.01477  1.0000 0.1101957751
H   H204      1.0  0.45610  0.51490  0.68143  1.0000 0.1101957751
H   H205      1.0  0.28660  0.03560  0.65570  1.0000 0.1216168663
H   H206      1.0  0.96440  0.25100  0.98903  1.0000 0.1216168663
H   H207      1.0  0.74900  0.71340  0.32237  1.0000 0.1216168663
H   H208      1.0  0.03560  0.28660  0.34430  1.0000 0.1216168663
H   H209      1.0  0.25100  0.96440  0.01097  1.0000 0.1216168663
H   H210      1.0  0.71340  0.74900  0.67763  1.0000 0.1216168663
H   H211      1.0  0.10650  0.86600  0.66030  1.0000 0.1020593905
H   H212      1.0  0.13400  0.24050  0.99363  1.0000 0.1020593905
H   H213      1.0  0.75950  0.89350  0.32697  1.0000 0.1020593905
H   H214      1.0  0.86600  0.10650  0.33970  1.0000 0.1020593905
H   H215      1.0  0.24050  0.13400  0.00637  1.0000 0.1020593905
H   H216      1.0  0.89350  0.75950  0.67303  1.0000 0.1020593905
H   H217      1.0  0.09490  0.69860  0.68010  1.0000 0.1020593905
H   H218      1.0  0.30140  0.39630  0.01343  1.0000 0.1020593905
H   H219      1.0  0.60370  0.90510  0.34677  1.0000 0.1020593905
H   H220      1.0  0.69860  0.09490  0.31990  1.0000 0.1020593905
H   H221      1.0  0.39630  0.30140  0.98657  1.0000 0.1020593905
H   H222      1.0  0.90510  0.60370  0.65323  1.0000 0.1020593905
H   H223      1.0  0.26170  0.69710  0.69580  1.0000 0.1101957751
H   H224      1.0  0.30290  0.56460  0.02913  1.0000 0.1101957751
H   H225      1.0  0.43540  0.73830  0.36247  1.0000 0.1101957751
H   H226      1.0  0.69710  0.26170  0.30420  1.0000 0.1101957751
H   H227      1.0  0.56460  0.30290  0.97087  1.0000 0.1101957751
H   H228      1.0  0.73830  0.43540  0.63753  1.0000 0.1101957751
H   H229      1.0  0.44150  0.86580  0.69220  1.0000 0.1216168663
H   H230      1.0  0.13420  0.57570  0.02553  1.0000 0.1216168663
H   H231      1.0  0.42430  0.55850  0.35887  1.0000 0.1216168663
H   H232      1.0  0.86580  0.44150  0.30780  1.0000 0.1216168663
H   H233      1.0  0.57570  0.13420  0.97447  1.0000 0.1216168663
H   H234      1.0  0.55850  0.42430  0.64113  1.0000 0.1216168663
C   C1        1.0  0.67000  0.21460  0.81292  1.0000 0.0259715829
C   C2        1.0  0.78540  0.45540  0.14625  1.0000 0.0259715829
C   C3        1.0  0.54460  0.33000  0.47959  1.0000 0.0259715829
C   C4        1.0  0.21460  0.67000  0.18708  1.0000 0.0259715829
C   C5        1.0  0.45540  0.78540  0.85375  1.0000 0.0259715829
C   C6        1.0  0.33000  0.54460  0.52041  1.0000 0.0259715829
C   C7        1.0  0.57180  0.24190  0.81614  1.0000 0.4772477809
C   C8        1.0  0.75810  0.32990  0.14947  1.0000 0.4772477809
C   C9        1.0  0.67010  0.42820  0.48281  1.0000 0.4772477809
C   C10       1.0  0.24190  0.57180  0.18386  1.0000 0.4772477809
C   C11       1.0  0.32990  0.75810  0.85053  1.0000 0.4772477809
C   C12       1.0  0.42820  0.67010  0.51719  1.0000 0.4772477809
C   C13       1.0  0.44390  0.25120  0.85822  1.0000 0.2173589159
C   C14       1.0  0.74880  0.19270  0.19155  1.0000 0.2173589159
C   C15       1.0  0.80730  0.55610  0.52489  1.0000 0.2173589159
C   C16       1.0  0.25120  0.44390  0.14178  1.0000 0.2173589159
C   C17       1.0  0.19270  0.74880  0.80845  1.0000 0.2173589159
C   C18       1.0  0.55610  0.80730  0.47511  1.0000 0.2173589159
C   C19       1.0  0.39920  0.20790  0.88840  1.0000 -0.1687454775
C   C20       1.0  0.79210  0.19130  0.22173  1.0000 -0.1687454775
C   C21       1.0  0.80870  0.60080  0.55507  1.0000 -0.1687454775
C   C22       1.0  0.20790  0.39920  0.11160  1.0000 -0.1687454775
C   C23       1.0  0.19130  0.79210  0.77827  1.0000 -0.1687454775
C   C24       1.0  0.60080  0.80870  0.44493  1.0000 -0.1687454775
C   C25       1.0  0.32430  0.23700  0.90337  1.0000 -0.1829410555
C   C26       1.0  0.76300  0.08730  0.23670  1.0000 -0.1829410555
C   C27       1.0  0.91270  0.67570  0.57004  1.0000 -0.1829410555
C   C28       1.0  0.23700  0.32430  0.09663  1.0000 -0.1829410555
C   C29       1.0  0.08730  0.76300  0.76330  1.0000 -0.1829410555
C   C30       1.0  0.67570  0.91270  0.42996  1.0000 -0.1829410555
C   C31       1.0  0.29440  0.31010  0.88818  1.0000 0.1964786563
C   C32       1.0  0.68990  0.98430  0.22151  1.0000 0.1964786563
C   C33       1.0  0.01570  0.70560  0.55485  1.0000 0.1964786563
C   C34       1.0  0.31010  0.29440  0.11182  1.0000 0.1964786563
C   C35       1.0  0.98430  0.68990  0.77849  1.0000 0.1964786563
C   C36       1.0  0.70560  0.01570  0.44515  1.0000 0.1964786563
C   C37       1.0  0.33920  0.35420  0.85827  1.0000 -0.1829410555
C   C38       1.0  0.64580  0.98500  0.19160  1.0000 -0.1829410555
C   C39       1.0  0.01500  0.66080  0.52494  1.0000 -0.1829410555
C   C40       1.0  0.35420  0.33920  0.14173  1.0000 -0.1829410555
C   C41       1.0  0.98500  0.64580  0.80840  1.0000 -0.1829410555
C   C42       1.0  0.66080  0.01500  0.47506  1.0000 -0.1829410555
C   C43       1.0  0.41350  0.32440  0.84313  1.0000 -0.1687454775
C   C44       1.0  0.67560  0.08910  0.17646  1.0000 -0.1687454775
C   C45       1.0  0.91090  0.58650  0.50980  1.0000 -0.1687454775
C   C46       1.0  0.32440  0.41350  0.15687  1.0000 -0.1687454775
C   C47       1.0  0.08910  0.67560  0.82354  1.0000 -0.1687454775
C   C48       1.0  0.58650  0.91090  0.49020  1.0000 -0.1687454775
C   C49       1.0  0.23320  0.44350  0.90786  1.0000 0.4706481509
C   C50       1.0  0.55650  0.78970  0.24119  1.0000 0.4706481509
C   C51       1.0  0.21030  0.76680  0.57453  1.0000 0.4706481509
C   C52       1.0  0.44350  0.23320  0.09214  1.0000 0.4706481509
C   C53       1.0  0.78970  0.55650  0.75881  1.0000 0.4706481509
C   C54       1.0  0.76680  0.21030  0.42547  1.0000 0.4706481509
C   C55       1.0  0.13190  0.45260  0.92200  1.0000 0.0429143335
C   C56       1.0  0.54740  0.67930  0.25533  1.0000 0.0429143335
C   C57       1.0  0.32070  0.86810  0.58867  1.0000 0.0429143335
C   C58       1.0  0.45260  0.13190  0.07800  1.0000 0.0429143335
C   C59       1.0  0.67930  0.54740  0.74467  1.0000 0.0429143335
C   C60       1.0  0.86810  0.32070  0.41133  1.0000 0.0429143335
C   C61       1.0  0.77530  0.30410  0.83186  1.0000 -0.2921042627
C   C62       1.0  0.69590  0.47120  0.16519  1.0000 -0.2921042627
C   C63       1.0  0.52880  0.22470  0.49853  1.0000 -0.2921042627
C   C64       1.0  0.30410  0.77530  0.16814  1.0000 -0.2921042627
C   C65       1.0  0.47120  0.69590  0.83481  1.0000 -0.2921042627
C   C66       1.0  0.22470  0.52880  0.50147  1.0000 -0.2921042627
C   C67       1.0  0.87420  0.28050  0.82981  1.0000 0.1404083384
C   C68       1.0  0.71950  0.59370  0.16314  1.0000 0.1404083384
C   C69       1.0  0.40630  0.12580  0.49648  1.0000 0.1404083384
C   C70       1.0  0.28050  0.87420  0.17019  1.0000 0.1404083384
C   C71       1.0  0.59370  0.71950  0.83686  1.0000 0.1404083384
C   C72       1.0  0.12580  0.40630  0.50352  1.0000 0.1404083384
C   C73       1.0  0.97350  0.35380  0.81274  1.0000 -0.1599335442
C   C74       1.0  0.64620  0.61970  0.14607  1.0000 -0.1599335442
C   C75       1.0  0.38030  0.02650  0.47941  1.0000 -0.1599335442
C   C76       1.0  0.35380  0.97350  0.18726  1.0000 -0.1599335442
C   C77       1.0  0.61970  0.64620  0.85393  1.0000 -0.1599335442
C   C78       1.0  0.02650  0.38030  0.52059  1.0000 -0.1599335442
C   C79       1.0  0.06390  0.33120  0.81148  1.0000 -0.0929828174
C   C80       1.0  0.66880  0.73270  0.14481  1.0000 -0.0929828174
C   C81       1.0  0.26730  0.93610  0.47815  1.0000 -0.0929828174
C   C82       1.0  0.33120  0.06390  0.18852  1.0000 -0.0929828174
C   C83       1.0  0.73270  0.66880  0.85519  1.0000 -0.0929828174
C   C84       1.0  0.93610  0.26730  0.52185  1.0000 -0.0929828174
C   C85       1.0  0.05590  0.23680  0.82643  1.0000 -0.1229150009
C   C86       1.0  0.76320  0.81910  0.15976  1.0000 -0.1229150009
C   C87       1.0  0.18090  0.94410  0.49310  1.0000 -0.1229150009
C   C88       1.0  0.23680  0.05590  0.17357  1.0000 -0.1229150009
C   C89       1.0  0.81910  0.76320  0.84024  1.0000 -0.1229150009
C   C90       1.0  0.94410  0.18090  0.50690  1.0000 -0.1229150009
C   C91       1.0  0.95760  0.16280  0.84341  1.0000 -0.1019142083
C   C92       1.0  0.83720  0.79480  0.17674  1.0000 -0.1019142083
C   C93       1.0  0.20520  0.04240  0.51008  1.0000 -0.1019142083
C   C94       1.0  0.16280  0.95760  0.15659  1.0000 -0.1019142083
C   C95       1.0  0.79480  0.83720  0.82326  1.0000 -0.1019142083
C   C96       1.0  0.04240  0.20520  0.48992  1.0000 -0.1019142083
C   C97       1.0  0.86700  0.18450  0.84501  1.0000 -0.1532758858
C   C98       1.0  0.81550  0.68250  0.17834  1.0000 -0.1532758858
C   C99       1.0  0.31750  0.13300  0.51168  1.0000 -0.1532758858
C   C100      1.0  0.18450  0.86700  0.15499  1.0000 -0.1532758858
C   C101      1.0  0.68250  0.81550  0.82166  1.0000 -0.1532758858
C   C102      1.0  0.13300  0.31750  0.48832  1.0000 -0.1532758858
C   C103      1.0  0.05430  0.44710  0.89392  1.0000 -0.2967308945
C   C104      1.0  0.55290  0.60720  0.22725  1.0000 -0.2967308945
C   C105      1.0  0.39280  0.94570  0.56059  1.0000 -0.2967308945
C   C106      1.0  0.44710  0.05430  0.10608  1.0000 -0.2967308945
C   C107      1.0  0.60720  0.55290  0.77275  1.0000 -0.2967308945
C   C108      1.0  0.94570  0.39280  0.43941  1.0000 -0.2967308945
C   C109      1.0  0.95260  0.45690  0.90499  1.0000 0.1404083384
C   C110      1.0  0.54310  0.49570  0.23832  1.0000 0.1404083384
C   C111      1.0  0.50430  0.04740  0.57166  1.0000 0.1404083384
C   C112      1.0  0.45690  0.95260  0.09501  1.0000 0.1404083384
C   C113      1.0  0.49570  0.54310  0.76168  1.0000 0.1404083384
C   C114      1.0  0.04740  0.50430  0.42834  1.0000 0.1404083384
C   C115      1.0  0.85110  0.35930  0.91434  1.0000 -0.1599335442
C   C116      1.0  0.64070  0.49180  0.24767  1.0000 -0.1599335442
C   C117      1.0  0.50820  0.14890  0.58101  1.0000 -0.1599335442
C   C118      1.0  0.35930  0.85110  0.08566  1.0000 -0.1599335442
C   C119      1.0  0.49180  0.64070  0.75233  1.0000 -0.1599335442
C   C120      1.0  0.14890  0.50820  0.41899  1.0000 -0.1599335442
C   C121      1.0  0.75630  0.36730  0.92441  1.0000 -0.0826039201
C   C122      1.0  0.63270  0.38900  0.25774  1.0000 -0.0826039201
C   C123      1.0  0.61100  0.24370  0.59108  1.0000 -0.0826039201
C   C124      1.0  0.36730  0.75630  0.07559  1.0000 -0.0826039201
C   C125      1.0  0.38900  0.63270  0.74226  1.0000 -0.0826039201
C   C126      1.0  0.24370  0.61100  0.40892  1.0000 -0.0826039201
C   C127      1.0  0.76340  0.47420  0.92596  1.0000 -0.129476264
C   C128      1.0  0.52580  0.28920  0.25929  1.0000 -0.129476264
C   C129      1.0  0.71080  0.23660  0.59263  1.0000 -0.129476264
C   C130      1.0  0.47420  0.76340  0.07404  1.0000 -0.129476264
C   C131      1.0  0.28920  0.52580  0.74071  1.0000 -0.129476264
C   C132      1.0  0.23660  0.71080  0.40737  1.0000 -0.129476264
C   C133      1.0  0.86420  0.57230  0.91771  1.0000 -0.0929828174
C   C134      1.0  0.42770  0.29190  0.25104  1.0000 -0.0929828174
C   C135      1.0  0.70810  0.13580  0.58438  1.0000 -0.0929828174
C   C136      1.0  0.57230  0.86420  0.08229  1.0000 -0.0929828174
C   C137      1.0  0.29190  0.42770  0.74896  1.0000 -0.0929828174
C   C138      1.0  0.13580  0.70810  0.41562  1.0000 -0.0929828174
C   C139      1.0  0.95880  0.56360  0.90666  1.0000 -0.1687454775
C   C140      1.0  0.43640  0.39520  0.23999  1.0000 -0.1687454775
C   C141      1.0  0.60480  0.04120  0.57333  1.0000 -0.1687454775
C   C142      1.0  0.56360  0.95880  0.09334  1.0000 -0.1687454775
C   C143      1.0  0.39520  0.43640  0.76001  1.0000 -0.1687454775
C   C144      1.0  0.04120  0.60480  0.42667  1.0000 -0.1687454775
C   C145      1.0  0.57025  0.11680  0.69971  1.0000 0.0259715829
C   C146      1.0  0.88320  0.45345  0.03304  1.0000 0.0259715829
C   C147      1.0  0.54655  0.42975  0.36638  1.0000 0.0259715829
C   C148      1.0  0.11680  0.57025  0.30029  1.0000 0.0259715829
C   C149      1.0  0.45345  0.88320  0.96696  1.0000 0.0259715829
C   C150      1.0  0.42975  0.54655  0.63362  1.0000 0.0259715829
C   C151      1.0  0.69590  0.21190  0.69441  1.0000 0.4706481509
C   C152      1.0  0.78810  0.48400  0.02774  1.0000 0.4706481509
C   C153      1.0  0.51600  0.30410  0.36108  1.0000 0.4706481509
C   C154      1.0  0.21190  0.69590  0.30559  1.0000 0.4706481509
C   C155      1.0  0.48400  0.78810  0.97226  1.0000 0.4706481509
C   C156      1.0  0.30410  0.51600  0.63892  1.0000 0.4706481509
C   C157      1.0  0.88110  0.25110  0.67104  1.0000 0.2054076009
C   C158      1.0  0.74890  0.63000  0.00437  1.0000 0.2054076009
C   C159      1.0  0.37000  0.11890  0.33771  1.0000 0.2054076009
C   C160      1.0  0.25110  0.88110  0.32896  1.0000 0.2054076009
C   C161      1.0  0.63000  0.74890  0.99563  1.0000 0.2054076009
C   C162      1.0  0.11890  0.37000  0.66229  1.0000 0.2054076009
C   C163      1.0  0.94060  0.19190  0.66885  1.0000 -0.1687454775
C   C164      1.0  0.80810  0.74870  0.00218  1.0000 -0.1687454775
C   C165      1.0  0.25130  0.05940  0.33552  1.0000 -0.1687454775
C   C166      1.0  0.19190  0.94060  0.33115  1.0000 -0.1687454775
C   C167      1.0  0.74870  0.80810  0.99782  1.0000 -0.1687454775
C   C168      1.0  0.05940  0.25130  0.66448  1.0000 -0.1687454775
C   C169      1.0  0.94050  0.36850  0.66890  1.0000 -0.1687454775
C   C170      1.0  0.63150  0.57200  0.00223  1.0000 -0.1687454775
C   C171      1.0  0.42800  0.05950  0.33557  1.0000 -0.1687454775
C   C172      1.0  0.36850  0.94050  0.33110  1.0000 -0.1687454775
C   C173      1.0  0.57200  0.63150  0.99777  1.0000 -0.1687454775
C   C174      1.0  0.05950  0.42800  0.66443  1.0000 -0.1687454775
C   C175      1.0  0.49970  0.07540  0.66810  1.0000 -0.2921042627
C   C176      1.0  0.92460  0.42430  0.00143  1.0000 -0.2921042627
C   C177      1.0  0.57570  0.50030  0.33477  1.0000 -0.2921042627
C   C178      1.0  0.07540  0.49970  0.33190  1.0000 -0.2921042627
C   C179      1.0  0.42430  0.92460  0.99857  1.0000 -0.2921042627
C   C180      1.0  0.50030  0.57570  0.66523  1.0000 -0.2921042627
C   C181      1.0  0.38290  0.96820  0.67301  1.0000 0.1515003581
C   C182      1.0  0.03180  0.41470  0.00634  1.0000 0.1515003581
C   C183      1.0  0.58530  0.61710  0.33968  1.0000 0.1515003581
C   C184      1.0  0.96820  0.38290  0.32699  1.0000 0.1515003581
C   C185      1.0  0.41470  0.03180  0.99366  1.0000 0.1515003581
C   C186      1.0  0.61710  0.58530  0.66032  1.0000 0.1515003581
C   C187      1.0  0.28240  0.96720  0.66384  1.0000 -0.1687454775
C   C188      1.0  0.03280  0.31520  0.99717  1.0000 -0.1687454775
C   C189      1.0  0.68480  0.71760  0.33051  1.0000 -0.1687454775
C   C190      1.0  0.96720  0.28240  0.33616  1.0000 -0.1687454775
C   C191      1.0  0.31520  0.03280  0.00283  1.0000 -0.1687454775
C   C192      1.0  0.71760  0.68480  0.66949  1.0000 -0.1687454775
C   C193      1.0  0.17480  0.86590  0.66667  1.0000 -0.1074600058
C   C194      1.0  0.13410  0.30890  0.00000  1.0000 -0.1074600058
C   C195      1.0  0.69110  0.82520  0.33333  1.0000 -0.1074600058
C   C196      1.0  0.86590  0.17480  0.33333  1.0000 -0.1074600058
C   C197      1.0  0.30890  0.13410  0.00000  1.0000 -0.1074600058
C   C198      1.0  0.82520  0.69110  0.66667  1.0000 -0.1074600058
C   C199      1.0  0.16800  0.76710  0.67836  1.0000 -0.129476264
C   C200      1.0  0.23290  0.40090  0.01169  1.0000 -0.129476264
C   C201      1.0  0.59910  0.83200  0.34503  1.0000 -0.129476264
C   C202      1.0  0.76710  0.16800  0.32164  1.0000 -0.129476264
C   C203      1.0  0.40090  0.23290  0.98831  1.0000 -0.129476264
C   C204      1.0  0.83200  0.59910  0.65497  1.0000 -0.129476264
C   C205      1.0  0.26690  0.76610  0.68778  1.0000 -0.0929828174
C   C206      1.0  0.23390  0.50080  0.02111  1.0000 -0.0929828174
C   C207      1.0  0.49920  0.73310  0.35445  1.0000 -0.0929828174
C   C208      1.0  0.76610  0.26690  0.31222  1.0000 -0.0929828174
C   C209      1.0  0.50080  0.23390  0.97889  1.0000 -0.0929828174
C   C210      1.0  0.73310  0.49920  0.64555  1.0000 -0.0929828174
C   C211      1.0  0.37390  0.86630  0.68538  1.0000 -0.1599335442
C   C212      1.0  0.13370  0.50760  0.01871  1.0000 -0.1599335442
C   C213      1.0  0.49240  0.62610  0.35205  1.0000 -0.1599335442
C   C214      1.0  0.86630  0.37390  0.31462  1.0000 -0.1599335442
C   C215      1.0  0.50760  0.13370  0.98129  1.0000 -0.1599335442
C   C216      1.0  0.62610  0.49240  0.64795  1.0000 -0.1599335442
Br  Br1       1.0  0.48156  0.41794  0.56287  1.0000 -0.6193967548
Br  Br2       1.0  0.58206  0.06362  0.89621  1.0000 -0.6193967548
Br  Br3       1.0  0.93638  0.51844  0.22954  1.0000 -0.6193967548
Br  Br4       1.0  0.41794  0.48156  0.43713  1.0000 -0.6193967548
Br  Br5       1.0  0.06362  0.58206  0.10379  1.0000 -0.6193967548
Br  Br6       1.0  0.51844  0.93638  0.77046  1.0000 -0.6193967548
Br  Br7       1.0  0.34661  0.25782  0.68577  1.0000 -0.6193967548
Br  Br8       1.0  0.74218  0.08879  0.01911  1.0000 -0.6193967548
Br  Br9       1.0  0.91121  0.65339  0.35244  1.0000 -0.6193967548
Br  Br10      1.0  0.25782  0.34661  0.31423  1.0000 -0.6193967548
Br  Br11      1.0  0.08879  0.74218  0.98089  1.0000 -0.6193967548
Br  Br12      1.0  0.65339  0.91121  0.64756  1.0000 -0.6193967548
N   N1        1.0  0.69894  0.21626  0.77836  1.0000 -0.543270835
N   N2        1.0  0.78374  0.48268  0.11169  1.0000 -0.543270835
N   N3        1.0  0.51732  0.30106  0.44503  1.0000 -0.5460451629
N   N4        1.0  0.21626  0.69894  0.22164  1.0000 -0.5460451629
N   N5        1.0  0.48268  0.78374  0.88831  1.0000 -0.5460451629
N   N6        1.0  0.30106  0.51732  0.55497  1.0000 -0.5460451629
N   N7        1.0  0.52350  0.22110  0.84523  1.0000 -0.3569084244
N   N8        1.0  0.77890  0.30240  0.17856  1.0000 -0.3569084244
N   N9        1.0  0.69760  0.47650  0.51190  1.0000 -0.3569084244
N   N10       1.0  0.22110  0.52350  0.15477  1.0000 -0.3569084244
N   N11       1.0  0.30240  0.77890  0.82144  1.0000 -0.3569084244
N   N12       1.0  0.47650  0.69760  0.48810  1.0000 -0.3569084244
N   N13       1.0  0.21500  0.33655  0.90390  1.0000 -0.3819146242
N   N14       1.0  0.66345  0.87845  0.23723  1.0000 -0.3819146242
N   N15       1.0  0.12155  0.78500  0.57057  1.0000 -0.3819146242
N   N16       1.0  0.33655  0.21500  0.09610  1.0000 -0.3819146242
N   N17       1.0  0.87845  0.66345  0.76277  1.0000 -0.3819146242
N   N18       1.0  0.78500  0.12155  0.42943  1.0000 -0.3819146242
N   N19       1.0  0.18097  0.56420  0.93880  1.0000 -0.543270835
N   N20       1.0  0.43580  0.61677  0.27213  1.0000 -0.543270835
N   N21       1.0  0.38323  0.81903  0.60547  1.0000 -0.543270835
N   N22       1.0  0.56420  0.18097  0.06120  1.0000 -0.543270835
N   N23       1.0  0.61677  0.43580  0.72787  1.0000 -0.543270835
N   N24       1.0  0.81903  0.38323  0.39453  1.0000 -0.543270835
N   N25       1.0  0.51581  0.15758  0.72351  1.0000 -0.562747348
N   N26       1.0  0.84242  0.35823  0.05684  1.0000 -0.562747348
N   N27       1.0  0.64177  0.48419  0.39018  1.0000 -0.562747348
N   N28       1.0  0.15758  0.51581  0.27649  1.0000 -0.562747348
N   N29       1.0  0.35823  0.84242  0.94316  1.0000 -0.562747348
N   N30       1.0  0.48419  0.64177  0.60982  1.0000 -0.562747348
N   N31       1.0  0.75893  0.18397  0.67536  1.0000 -0.3569084244
N   N32       1.0  0.81603  0.57496  0.00869  1.0000 -0.3569084244
N   N33       1.0  0.42504  0.24107  0.34203  1.0000 -0.3569084244
N   N34       1.0  0.18397  0.75893  0.32464  1.0000 -0.3569084244
N   N35       1.0  0.57496  0.81603  0.99131  1.0000 -0.3569084244
N   N36       1.0  0.24107  0.42504  0.65797  1.0000 -0.3569084244
O   O1        1.0  0.54416  0.28391  0.79316  1.0000 -0.4949223187
O   O2        1.0  0.71609  0.26025  0.12649  1.0000 -0.4949223187
O   O3        1.0  0.73975  0.45584  0.45983  1.0000 -0.4949223187
O   O4        1.0  0.28391  0.54416  0.20684  1.0000 -0.4949223187
O   O5        1.0  0.26025  0.71609  0.87351  1.0000 -0.4949223187
O   O6        1.0  0.45584  0.73975  0.54017  1.0000 -0.4949223187
O   O7        1.0  0.32302  0.53182  0.89979  1.0000 -0.4709638145
O   O8        1.0  0.46818  0.79120  0.23312  1.0000 -0.4709638145
O   O9        1.0  0.20880  0.67698  0.56646  1.0000 -0.4709638145
O   O10       1.0  0.53182  0.32302  0.10021  1.0000 -0.4709638145
O   O11       1.0  0.79120  0.46818  0.76688  1.0000 -0.4709638145
O   O12       1.0  0.67698  0.20880  0.43354  1.0000 -0.4709638145
O   O13       1.0  0.73721  0.30568  0.70845  1.0000 -0.4709638145
O   O14       1.0  0.69432  0.43153  0.04178  1.0000 -0.4709638145
O   O15       1.0  0.56847  0.26279  0.37512  1.0000 -0.4709638145
O   O16       1.0  0.30568  0.73721  0.29155  1.0000 -0.4709638145
O   O17       1.0  0.43153  0.69432  0.95822  1.0000 -0.4709638145
O   O18       1.0  0.26279  0.56847  0.62488  1.0000 -0.4709638145
