# DDEC6 charges by PACMAN v1.1 (https://github.com/mtap-research/PACMAN-charge/)
data_2011[Cu][fjh]3[ION]1
_chemical_formula_sum              "Cu6 H178 C144 N76 O22"
_cell_length_a       19.3033
_cell_length_b       19.3033
_cell_length_c       19.3033
_cell_angle_alpha    105.902
_cell_angle_beta     105.902
_cell_angle_gamma    116.872

_symmetry_space_group_name_H-M    "P 1"
_symmetry_Int_Tables_number       1

loop_
  _symmetry_equiv_pos_as_xyz
  'x, y, z'

loop_
  _atom_site_type_symbol
  _atom_site_label
  _atom_site_symmetry_multiplicity
  _atom_site_fract_x
  _atom_site_fract_y
  _atom_site_fract_z
  _atom_site_occupancy
  _atom_site_charge
Cu  Cu1       1.0  0.16205  0.16205  0.00000  1.0000 0.7186575814
Cu  Cu2       1.0  0.83795  0.83795  0.00000  1.0000 0.7186575814
Cu  Cu3       1.0  0.74151  0.47944  0.22095  1.0000 0.7104620322
Cu  Cu4       1.0  0.52056  0.74151  0.26207  1.0000 0.7104620322
Cu  Cu5       1.0  0.25849  0.52056  0.77905  1.0000 0.7104620322
Cu  Cu6       1.0  0.47944  0.25849  0.73793  1.0000 0.7104620322
H   H1        1.0  0.88070  0.46290  0.97800  1.0000 0.114747925
H   H2        1.0  0.90270  0.88070  0.41780  1.0000 0.114747925
H   H3        1.0  0.48490  0.90270  0.02200  1.0000 0.114747925
H   H4        1.0  0.46290  0.48490  0.58220  1.0000 0.114747925
H   H5        1.0  0.11930  0.53710  0.02200  1.0000 0.114747925
H   H6        1.0  0.09730  0.11930  0.58220  1.0000 0.114747925
H   H7        1.0  0.51510  0.09730  0.97800  1.0000 0.114747925
H   H8        1.0  0.53710  0.51510  0.41780  1.0000 0.114747925
H   H9        1.0  0.94750  0.56420  0.03590  1.0000 0.1198503427
H   H10       1.0  0.91160  0.94750  0.38330  1.0000 0.1198503427
H   H11       1.0  0.52830  0.91160  0.96410  1.0000 0.1198503427
H   H12       1.0  0.56420  0.52830  0.61670  1.0000 0.1198503427
H   H13       1.0  0.05250  0.43580  0.96410  1.0000 0.1198503427
H   H14       1.0  0.08840  0.05250  0.61670  1.0000 0.1198503427
H   H15       1.0  0.47170  0.08840  0.03590  1.0000 0.1198503427
H   H16       1.0  0.43580  0.47170  0.38330  1.0000 0.1198503427
H   H17       1.0  0.87790  0.47570  0.15780  1.0000 0.1309518389
H   H18       1.0  0.72010  0.87790  0.40220  1.0000 0.1309518389
H   H19       1.0  0.31790  0.72010  0.84220  1.0000 0.1309518389
H   H20       1.0  0.47570  0.31790  0.59780  1.0000 0.1309518389
H   H21       1.0  0.12210  0.52430  0.84220  1.0000 0.1309518389
H   H22       1.0  0.27990  0.12210  0.59780  1.0000 0.1309518389
H   H23       1.0  0.68210  0.27990  0.15780  1.0000 0.1309518389
H   H24       1.0  0.52430  0.68210  0.40220  1.0000 0.1309518389
H   H25       1.0  0.06320  0.20800  0.09200  1.0000 0.1198503427
H   H26       1.0  0.97120  0.06320  0.85520  1.0000 0.1198503427
H   H27       1.0  0.11600  0.97120  0.90800  1.0000 0.1198503427
H   H28       1.0  0.20800  0.11600  0.14480  1.0000 0.1198503427
H   H29       1.0  0.93680  0.79200  0.90800  1.0000 0.1198503427
H   H30       1.0  0.02880  0.93680  0.14480  1.0000 0.1198503427
H   H31       1.0  0.88400  0.02880  0.09200  1.0000 0.1198503427
H   H32       1.0  0.79200  0.88400  0.85520  1.0000 0.1198503427
H   H33       1.0  0.03060  0.65410  0.14190  1.0000 0.1309518389
H   H34       1.0  0.88870  0.03060  0.37650  1.0000 0.1309518389
H   H35       1.0  0.51220  0.88870  0.85810  1.0000 0.1309518389
H   H36       1.0  0.65410  0.51220  0.62350  1.0000 0.1309518389
H   H37       1.0  0.96940  0.34590  0.85810  1.0000 0.1309518389
H   H38       1.0  0.11130  0.96940  0.62350  1.0000 0.1309518389
H   H39       1.0  0.48780  0.11130  0.14190  1.0000 0.1309518389
H   H40       1.0  0.34590  0.48780  0.37650  1.0000 0.1309518389
H   H41       1.0  0.08560  0.67780  0.23160  1.0000 0.1309518389
H   H42       1.0  0.85400  0.08560  0.40780  1.0000 0.1309518389
H   H43       1.0  0.44620  0.85400  0.76840  1.0000 0.1309518389
H   H44       1.0  0.67780  0.44620  0.59220  1.0000 0.1309518389
H   H45       1.0  0.91440  0.32220  0.76840  1.0000 0.1309518389
H   H46       1.0  0.14600  0.91440  0.59220  1.0000 0.1309518389
H   H47       1.0  0.55380  0.14600  0.23160  1.0000 0.1309518389
H   H48       1.0  0.32220  0.55380  0.40780  1.0000 0.1309518389
H   H49       1.0  0.13070  0.69250  0.17580  1.0000 0.1468369572
H   H50       1.0  0.95490  0.13070  0.43820  1.0000 0.1468369572
H   H51       1.0  0.51670  0.95490  0.82420  1.0000 0.1468369572
H   H52       1.0  0.69250  0.51670  0.56180  1.0000 0.1468369572
H   H53       1.0  0.86930  0.30750  0.82420  1.0000 0.1468369572
H   H54       1.0  0.04510  0.86930  0.56180  1.0000 0.1468369572
H   H55       1.0  0.48330  0.04510  0.17580  1.0000 0.1468369572
H   H56       1.0  0.30750  0.48330  0.43820  1.0000 0.1468369572
H   H57       1.0  0.92390  0.25920  0.04770  1.0000 0.1198503427
H   H58       1.0  0.87620  0.92390  0.66470  1.0000 0.1198503427
H   H59       1.0  0.21150  0.87620  0.95230  1.0000 0.1198503427
H   H60       1.0  0.25920  0.21150  0.33530  1.0000 0.1198503427
H   H61       1.0  0.07610  0.74080  0.95230  1.0000 0.1198503427
H   H62       1.0  0.12380  0.07610  0.33530  1.0000 0.1198503427
H   H63       1.0  0.78850  0.12380  0.04770  1.0000 0.1198503427
H   H64       1.0  0.74080  0.78850  0.66470  1.0000 0.1198503427
H   H65       1.0  0.99790  0.29400  0.13330  1.0000 0.1309518389
H   H66       1.0  0.86460  0.99790  0.70390  1.0000 0.1309518389
H   H67       1.0  0.16070  0.86460  0.86670  1.0000 0.1309518389
H   H68       1.0  0.29400  0.16070  0.29610  1.0000 0.1309518389
H   H69       1.0  0.00210  0.70600  0.86670  1.0000 0.1309518389
H   H70       1.0  0.13540  0.00210  0.29610  1.0000 0.1309518389
H   H71       1.0  0.83930  0.13540  0.13330  1.0000 0.1309518389
H   H72       1.0  0.70600  0.83930  0.70390  1.0000 0.1309518389
H   H73       1.0  0.38180  0.69630  0.32990  1.0000 0.1309518389
H   H74       1.0  0.05190  0.38180  0.68550  1.0000 0.1309518389
H   H75       1.0  0.36640  0.05190  0.67010  1.0000 0.1309518389
H   H76       1.0  0.69630  0.36640  0.31450  1.0000 0.1309518389
H   H77       1.0  0.61820  0.30370  0.67010  1.0000 0.1309518389
H   H78       1.0  0.94810  0.61820  0.31450  1.0000 0.1309518389
H   H79       1.0  0.63360  0.94810  0.32990  1.0000 0.1309518389
H   H80       1.0  0.30370  0.63360  0.68550  1.0000 0.1309518389
H   H81       1.0  0.84820  0.34200  0.94820  1.0000 0.1309518389
H   H82       1.0  0.90000  0.84820  0.50620  1.0000 0.1309518389
H   H83       1.0  0.39380  0.90000  0.05180  1.0000 0.1309518389
H   H84       1.0  0.34200  0.39380  0.49380  1.0000 0.1309518389
H   H85       1.0  0.15180  0.65800  0.05180  1.0000 0.1309518389
H   H86       1.0  0.10000  0.15180  0.49380  1.0000 0.1309518389
H   H87       1.0  0.60620  0.10000  0.94820  1.0000 0.1309518389
H   H88       1.0  0.65800  0.60620  0.50620  1.0000 0.1309518389
H   H89       1.0  0.86730  0.27880  0.97210  1.0000 0.1393529589
H   H90       1.0  0.89520  0.86730  0.58850  1.0000 0.1393529589
H   H91       1.0  0.30670  0.89520  0.02790  1.0000 0.1393529589
H   H92       1.0  0.27880  0.30670  0.41150  1.0000 0.1393529589
H   H93       1.0  0.13270  0.72120  0.02790  1.0000 0.1393529589
H   H94       1.0  0.10480  0.13270  0.41150  1.0000 0.1393529589
H   H95       1.0  0.69330  0.10480  0.97210  1.0000 0.1393529589
H   H96       1.0  0.72120  0.69330  0.58850  1.0000 0.1393529589
H   H97       1.0  0.82160  0.31480  0.01100  1.0000 0.1393529589
H   H98       1.0  0.81060  0.82160  0.50680  1.0000 0.1393529589
H   H99       1.0  0.30380  0.81060  0.98900  1.0000 0.1393529589
H   H100      1.0  0.31480  0.30380  0.49320  1.0000 0.1393529589
H   H101      1.0  0.17840  0.68520  0.98900  1.0000 0.1393529589
H   H102      1.0  0.18940  0.17840  0.49320  1.0000 0.1393529589
H   H103      1.0  0.69620  0.18940  0.01100  1.0000 0.1393529589
H   H104      1.0  0.68520  0.69620  0.50680  1.0000 0.1393529589
H   H105      1.0  0.10680  0.27200  0.92700  1.0000 0.1198503427
H   H106      1.0  0.17980  0.10680  0.83480  1.0000 0.1198503427
H   H107      1.0  0.34500  0.17980  0.07300  1.0000 0.1198503427
H   H108      1.0  0.27200  0.34500  0.16520  1.0000 0.1198503427
H   H109      1.0  0.89320  0.72800  0.07300  1.0000 0.1198503427
H   H110      1.0  0.82020  0.89320  0.16520  1.0000 0.1198503427
H   H111      1.0  0.65500  0.82020  0.92700  1.0000 0.1198503427
H   H112      1.0  0.72800  0.65500  0.83480  1.0000 0.1198503427
H   H113      1.0  0.70830  0.52170  0.07220  1.0000 0.1198503427
H   H114      1.0  0.63610  0.70830  0.18660  1.0000 0.1198503427
H   H115      1.0  0.44950  0.63610  0.92780  1.0000 0.1198503427
H   H116      1.0  0.52170  0.44950  0.81340  1.0000 0.1198503427
H   H117      1.0  0.29170  0.47830  0.92780  1.0000 0.1198503427
H   H118      1.0  0.36390  0.29170  0.81340  1.0000 0.1198503427
H   H119      1.0  0.55050  0.36390  0.07220  1.0000 0.1198503427
H   H120      1.0  0.47830  0.55050  0.18660  1.0000 0.1198503427
H   H121      1.0  0.21310  0.48130  0.21840  1.0000 0.1309518389
H   H122      1.0  0.99470  0.21310  0.73180  1.0000 0.1309518389
H   H123      1.0  0.26290  0.99470  0.78160  1.0000 0.1309518389
H   H124      1.0  0.48130  0.26290  0.26820  1.0000 0.1309518389
H   H125      1.0  0.78690  0.51870  0.78160  1.0000 0.1309518389
H   H126      1.0  0.00530  0.78690  0.26820  1.0000 0.1309518389
H   H127      1.0  0.73710  0.00530  0.21840  1.0000 0.1309518389
H   H128      1.0  0.51870  0.73710  0.73180  1.0000 0.1309518389
H   H129      1.0  0.16560  0.46540  0.27220  1.0000 0.1468369572
H   H130      1.0  0.89340  0.16560  0.70020  1.0000 0.1468369572
H   H131      1.0  0.19320  0.89340  0.72780  1.0000 0.1468369572
H   H132      1.0  0.46540  0.19320  0.29980  1.0000 0.1468369572
H   H133      1.0  0.83440  0.53460  0.72780  1.0000 0.1468369572
H   H134      1.0  0.10660  0.83440  0.29980  1.0000 0.1468369572
H   H135      1.0  0.80680  0.10660  0.27220  1.0000 0.1468369572
H   H136      1.0  0.53460  0.80680  0.70020  1.0000 0.1468369572
H   H137      1.0  0.13500  0.38650  0.19210  1.0000 0.1309518389
H   H138      1.0  0.94290  0.13500  0.74850  1.0000 0.1309518389
H   H139      1.0  0.19440  0.94290  0.80790  1.0000 0.1309518389
H   H140      1.0  0.38650  0.19440  0.25150  1.0000 0.1309518389
H   H141      1.0  0.86500  0.61350  0.80790  1.0000 0.1309518389
H   H142      1.0  0.05710  0.86500  0.25150  1.0000 0.1309518389
H   H143      1.0  0.80560  0.05710  0.19210  1.0000 0.1309518389
H   H144      1.0  0.61350  0.80560  0.74850  1.0000 0.1309518389
H   H145      1.0  0.33920  0.66210  0.11450  1.0000 0.1198503427
H   H146      1.0  0.22470  0.33920  0.67710  1.0000 0.1198503427
H   H147      1.0  0.54760  0.22470  0.88550  1.0000 0.1198503427
H   H148      1.0  0.66210  0.54760  0.32290  1.0000 0.1198503427
H   H149      1.0  0.66080  0.33790  0.88550  1.0000 0.1198503427
H   H150      1.0  0.77530  0.66080  0.32290  1.0000 0.1198503427
H   H151      1.0  0.45240  0.77530  0.11450  1.0000 0.1198503427
H   H152      1.0  0.33790  0.45240  0.67710  1.0000 0.1198503427
H   H153      1.0  0.19860  0.67340  0.28220  1.0000 0.1198503427
H   H154      1.0  0.91640  0.19860  0.52520  1.0000 0.1198503427
H   H155      1.0  0.39120  0.91640  0.71780  1.0000 0.1198503427
H   H156      1.0  0.67340  0.39120  0.47480  1.0000 0.1198503427
H   H157      1.0  0.80140  0.32660  0.71780  1.0000 0.1198503427
H   H158      1.0  0.08360  0.80140  0.47480  1.0000 0.1198503427
H   H159      1.0  0.60880  0.08360  0.28220  1.0000 0.1198503427
H   H160      1.0  0.32660  0.60880  0.52520  1.0000 0.1198503427
H   H161      1.0  0.21570  0.60820  0.30410  1.0000 0.1198503427
H   H162      1.0  0.91160  0.21570  0.60750  1.0000 0.1198503427
H   H163      1.0  0.30410  0.91160  0.69590  1.0000 0.1198503427
H   H164      1.0  0.60820  0.30410  0.39250  1.0000 0.1198503427
H   H165      1.0  0.78430  0.39180  0.69590  1.0000 0.1198503427
H   H166      1.0  0.08840  0.78430  0.39250  1.0000 0.1198503427
H   H167      1.0  0.69590  0.08840  0.30410  1.0000 0.1198503427
H   H168      1.0  0.39180  0.69590  0.60750  1.0000 0.1198503427
H   H169      1.0  0.61457  0.53551  0.15008  1.0000 0.3551466449
H   H170      1.0  0.46449  0.61457  0.07906  1.0000 0.3551466449
H   H171      1.0  0.38543  0.46449  0.84992  1.0000 0.3551466449
H   H172      1.0  0.53551  0.38543  0.92094  1.0000 0.3551466449
H   H173      1.0  0.32922  0.32922  0.00000  1.0000 0.3819122597
H   H174      1.0  0.67078  0.67078  0.00000  1.0000 0.3819122597
H   H175      1.0  0.85856  0.46160  0.32016  1.0000 0.3231397181
H   H176      1.0  0.53840  0.85856  0.39696  1.0000 0.3231397181
H   H177      1.0  0.14144  0.53840  0.67984  1.0000 0.3231397181
H   H178      1.0  0.46160  0.14144  0.60304  1.0000 0.3231397181
C   C1        1.0  0.95326  0.40643  0.06027  1.0000 0.0807426838
C   C2        1.0  0.89299  0.95326  0.54683  1.0000 0.0807426838
C   C3        1.0  0.34616  0.89299  0.93973  1.0000 0.0807426838
C   C4        1.0  0.40643  0.34616  0.45317  1.0000 0.0807426838
C   C5        1.0  0.04674  0.59357  0.93973  1.0000 0.0807426838
C   C6        1.0  0.10701  0.04674  0.45317  1.0000 0.0807426838
C   C7        1.0  0.65384  0.10701  0.06027  1.0000 0.0807426838
C   C8        1.0  0.59357  0.65384  0.54683  1.0000 0.0807426838
C   C9        1.0  0.01191  0.39216  0.10447  1.0000 -0.0314789617
C   C10       1.0  0.90744  0.01191  0.61975  1.0000 -0.0314789617
C   C11       1.0  0.28769  0.90744  0.89553  1.0000 -0.0314789617
C   C12       1.0  0.39216  0.28769  0.38025  1.0000 -0.0314789617
C   C13       1.0  0.98809  0.60784  0.89553  1.0000 -0.0314789617
C   C14       1.0  0.09256  0.98809  0.38025  1.0000 -0.0314789617
C   C15       1.0  0.71231  0.09256  0.10447  1.0000 -0.0314789617
C   C16       1.0  0.60784  0.71231  0.61975  1.0000 -0.0314789617
C   C17       1.0  0.97662  0.49168  0.08230  1.0000 -0.0470485107
C   C18       1.0  0.89432  0.97662  0.48494  1.0000 -0.0470485107
C   C19       1.0  0.40938  0.89432  0.91770  1.0000 -0.0470485107
C   C20       1.0  0.49168  0.40938  0.51506  1.0000 -0.0470485107
C   C21       1.0  0.02338  0.50832  0.91770  1.0000 -0.0470485107
C   C22       1.0  0.10568  0.02338  0.51506  1.0000 -0.0470485107
C   C23       1.0  0.59062  0.10568  0.08230  1.0000 -0.0470485107
C   C24       1.0  0.50832  0.59062  0.48494  1.0000 -0.0470485107
C   C25       1.0  0.91431  0.50771  0.03430  1.0000 -0.1862090246
C   C26       1.0  0.88001  0.91431  0.40660  1.0000 -0.1862090246
C   C27       1.0  0.47341  0.88001  0.96570  1.0000 -0.1862090246
C   C28       1.0  0.50771  0.47341  0.59340  1.0000 -0.1862090246
C   C29       1.0  0.08569  0.49229  0.96570  1.0000 -0.1862090246
C   C30       1.0  0.11999  0.08569  0.59340  1.0000 -0.1862090246
C   C31       1.0  0.52659  0.11999  0.03430  1.0000 -0.1862090246
C   C32       1.0  0.49229  0.52659  0.40660  1.0000 -0.1862090246
C   C33       1.0  0.11409  0.54779  0.19126  1.0000 -0.0373450347
C   C34       1.0  0.92283  0.11409  0.56630  1.0000 -0.0373450347
C   C35       1.0  0.35653  0.92283  0.80874  1.0000 -0.0373450347
C   C36       1.0  0.54779  0.35653  0.43370  1.0000 -0.0373450347
C   C37       1.0  0.88591  0.45221  0.80874  1.0000 -0.0373450347
C   C38       1.0  0.07717  0.88591  0.43370  1.0000 -0.0373450347
C   C39       1.0  0.64347  0.07717  0.19126  1.0000 -0.0373450347
C   C40       1.0  0.45221  0.64347  0.56630  1.0000 -0.0373450347
C   C41       1.0  0.05584  0.56290  0.14856  1.0000 0.0702243022
C   C42       1.0  0.90728  0.05584  0.49294  1.0000 0.0702243022
C   C43       1.0  0.41434  0.90728  0.85144  1.0000 0.0702243022
C   C44       1.0  0.56290  0.41434  0.50706  1.0000 0.0702243022
C   C45       1.0  0.94416  0.43710  0.85144  1.0000 0.0702243022
C   C46       1.0  0.09272  0.94416  0.50706  1.0000 0.0702243022
C   C47       1.0  0.58566  0.09272  0.14856  1.0000 0.0702243022
C   C48       1.0  0.43710  0.58566  0.49294  1.0000 0.0702243022
C   C49       1.0  0.09316  0.46298  0.16964  1.0000 0.0807426838
C   C50       1.0  0.92352  0.09316  0.63018  1.0000 0.0807426838
C   C51       1.0  0.29334  0.92352  0.83036  1.0000 0.0807426838
C   C52       1.0  0.46298  0.29334  0.36982  1.0000 0.0807426838
C   C53       1.0  0.90684  0.53702  0.83036  1.0000 0.0807426838
C   C54       1.0  0.07648  0.90684  0.36982  1.0000 0.0807426838
C   C55       1.0  0.70666  0.07648  0.16964  1.0000 0.0807426838
C   C56       1.0  0.53702  0.70666  0.63018  1.0000 0.0807426838
C   C57       1.0  0.84483  0.48958  0.12709  1.0000 0.0807426838
C   C58       1.0  0.71774  0.84483  0.35525  1.0000 0.0807426838
C   C59       1.0  0.36249  0.71774  0.87291  1.0000 0.0807426838
C   C60       1.0  0.48958  0.36249  0.64475  1.0000 0.0807426838
C   C61       1.0  0.15517  0.51042  0.87291  1.0000 0.0807426838
C   C62       1.0  0.28226  0.15517  0.64475  1.0000 0.0807426838
C   C63       1.0  0.63751  0.28226  0.12709  1.0000 0.0807426838
C   C64       1.0  0.51042  0.63751  0.35525  1.0000 0.0807426838
C   C65       1.0  0.06539  0.23099  0.05558  1.0000 0.0807426838
C   C66       1.0  0.00981  0.06539  0.83440  1.0000 0.0807426838
C   C67       1.0  0.17541  0.00981  0.94442  1.0000 0.0807426838
C   C68       1.0  0.23099  0.17541  0.16560  1.0000 0.0807426838
C   C69       1.0  0.93461  0.76901  0.94442  1.0000 0.0807426838
C   C70       1.0  0.99019  0.93461  0.16560  1.0000 0.0807426838
C   C71       1.0  0.82459  0.99019  0.05558  1.0000 0.0807426838
C   C72       1.0  0.76901  0.82459  0.83440  1.0000 0.0807426838
C   C73       1.0  0.07772  0.65539  0.17713  1.0000 -0.4662884788
C   C74       1.0  0.90059  0.07772  0.42233  1.0000 -0.4662884788
C   C75       1.0  0.47826  0.90059  0.82287  1.0000 -0.4662884788
C   C76       1.0  0.65539  0.47826  0.57767  1.0000 -0.4662884788
C   C77       1.0  0.92228  0.34461  0.82287  1.0000 -0.4662884788
C   C78       1.0  0.09941  0.92228  0.57767  1.0000 -0.4662884788
C   C79       1.0  0.52174  0.09941  0.17713  1.0000 -0.4662884788
C   C80       1.0  0.34461  0.52174  0.42233  1.0000 -0.4662884788
C   C81       1.0  0.98633  0.30003  0.08392  1.0000 -0.1776850081
C   C82       1.0  0.90241  0.98633  0.68630  1.0000 -0.1776850081
C   C83       1.0  0.21611  0.90241  0.91608  1.0000 -0.1776850081
C   C84       1.0  0.30003  0.21611  0.31370  1.0000 -0.1776850081
C   C85       1.0  0.01367  0.69997  0.91608  1.0000 -0.1776850081
C   C86       1.0  0.09759  0.01367  0.31370  1.0000 -0.1776850081
C   C87       1.0  0.78389  0.09759  0.08392  1.0000 -0.1776850081
C   C88       1.0  0.69997  0.78389  0.68630  1.0000 -0.1776850081
C   C89       1.0  0.35459  0.68295  0.27571  1.0000 0.087721987
C   C90       1.0  0.07888  0.35459  0.67165  1.0000 0.087721987
C   C91       1.0  0.40724  0.07888  0.72429  1.0000 0.087721987
C   C92       1.0  0.68295  0.40724  0.32835  1.0000 0.087721987
C   C93       1.0  0.64541  0.31705  0.72429  1.0000 0.087721987
C   C94       1.0  0.92111  0.64541  0.32835  1.0000 0.087721987
C   C95       1.0  0.59276  0.92112  0.27571  1.0000 0.087721987
C   C96       1.0  0.31705  0.59276  0.67165  1.0000 0.087721987
C   C97       1.0  0.86442  0.32832  0.99158  1.0000 -0.4605747664
C   C98       1.0  0.87284  0.86442  0.53610  1.0000 -0.4605747664
C   C99       1.0  0.33674  0.87284  0.00842  1.0000 -0.4605747664
C   C100      1.0  0.32832  0.33674  0.46390  1.0000 -0.4605747664
C   C101      1.0  0.13558  0.67168  0.00842  1.0000 -0.4605747664
C   C102      1.0  0.12716  0.13558  0.46390  1.0000 -0.4605747664
C   C103      1.0  0.66326  0.12716  0.99158  1.0000 -0.4605747664
C   C104      1.0  0.67168  0.66326  0.53610  1.0000 -0.4605747664
C   C105      1.0  0.08799  0.26630  0.96586  1.0000 0.1393529589
C   C106      1.0  0.12213  0.08800  0.82170  1.0000 0.1393529589
C   C107      1.0  0.30044  0.12213  0.03414  1.0000 0.1393529589
C   C108      1.0  0.26629  0.30044  0.17830  1.0000 0.1393529589
C   C109      1.0  0.91200  0.73371  0.03414  1.0000 0.1393529589
C   C110      1.0  0.87787  0.91200  0.17830  1.0000 0.1393529589
C   C111      1.0  0.69956  0.87787  0.96586  1.0000 0.1393529589
C   C112      1.0  0.73371  0.69956  0.82170  1.0000 0.1393529589
C   C113      1.0  0.75336  0.51361  0.07995  1.0000 0.1309518389
C   C114      1.0  0.67341  0.75336  0.23975  1.0000 0.1309518389
C   C115      1.0  0.43366  0.67341  0.92005  1.0000 0.1309518389
C   C116      1.0  0.51361  0.43366  0.76025  1.0000 0.1309518389
C   C117      1.0  0.24664  0.48639  0.92005  1.0000 0.1309518389
C   C118      1.0  0.32659  0.24664  0.76025  1.0000 0.1309518389
C   C119      1.0  0.56634  0.32659  0.07995  1.0000 0.1309518389
C   C120      1.0  0.48639  0.56634  0.23975  1.0000 0.1309518389
C   C121      1.0  0.15776  0.44761  0.21755  1.0000 -0.4605747664
C   C122      1.0  0.94021  0.15776  0.71015  1.0000 -0.4605747664
C   C123      1.0  0.23006  0.94021  0.78245  1.0000 -0.4605747664
C   C124      1.0  0.44761  0.23006  0.28985  1.0000 -0.4605747664
C   C125      1.0  0.84224  0.55239  0.78245  1.0000 -0.4605747664
C   C126      1.0  0.05979  0.84224  0.28985  1.0000 -0.4605747664
C   C127      1.0  0.76994  0.05979  0.21755  1.0000 -0.4605747664
C   C128      1.0  0.55239  0.76994  0.71015  1.0000 -0.4605747664
C   C129      1.0  0.33082  0.66462  0.16014  1.0000 0.1393529589
C   C130      1.0  0.17068  0.33082  0.66620  1.0000 0.1393529589
C   C131      1.0  0.50448  0.17068  0.83986  1.0000 0.1393529589
C   C132      1.0  0.66462  0.50448  0.33380  1.0000 0.1393529589
C   C133      1.0  0.66918  0.33538  0.83986  1.0000 0.1393529589
C   C134      1.0  0.82932  0.66918  0.33380  1.0000 0.1393529589
C   C135      1.0  0.49552  0.82932  0.16014  1.0000 0.1393529589
C   C136      1.0  0.33538  0.49552  0.66620  1.0000 0.1393529589
C   C137      1.0  0.20155  0.62363  0.26092  1.0000 -0.1776850081
C   C138      1.0  0.94063  0.20155  0.57792  1.0000 -0.1776850081
C   C139      1.0  0.36271  0.94063  0.73908  1.0000 -0.1776850081
C   C140      1.0  0.62363  0.36271  0.42208  1.0000 -0.1776850081
C   C141      1.0  0.79845  0.37637  0.73908  1.0000 -0.1776850081
C   C142      1.0  0.05937  0.79845  0.42208  1.0000 -0.1776850081
C   C143      1.0  0.63729  0.05937  0.26092  1.0000 -0.1776850081
C   C144      1.0  0.37637  0.63729  0.57792  1.0000 -0.1776850081
N   N1        1.0  0.85408  0.50608  0.06820  1.0000 0.1719927995
N   N2        1.0  0.78588  0.85408  0.34801  1.0000 0.1719927995
N   N3        1.0  0.43788  0.78588  0.93180  1.0000 0.1719927995
N   N4        1.0  0.50608  0.43788  0.65199  1.0000 0.1719927995
N   N5        1.0  0.14592  0.49393  0.93180  1.0000 0.1719927995
N   N6        1.0  0.21411  0.14592  0.65199  1.0000 0.1719927995
N   N7        1.0  0.56212  0.21411  0.06820  1.0000 0.1719927995
N   N8        1.0  0.49392  0.56212  0.34801  1.0000 0.1719927995
N   N9        1.0  0.78286  0.49491  0.13777  1.0000 -0.2954598458
N   N10       1.0  0.64509  0.78286  0.28795  1.0000 -0.2954598458
N   N11       1.0  0.35714  0.64509  0.86223  1.0000 -0.2954598458
N   N12       1.0  0.49491  0.35714  0.71205  1.0000 -0.2954598458
N   N13       1.0  0.21714  0.50509  0.86223  1.0000 -0.2954598458
N   N14       1.0  0.35491  0.21714  0.71205  1.0000 -0.2954598458
N   N15       1.0  0.64286  0.35491  0.13777  1.0000 -0.2954598458
N   N16       1.0  0.50509  0.64286  0.28795  1.0000 -0.2954598458
N   N17       1.0  0.03391  0.27720  0.04519  1.0000 0.1719927995
N   N18       1.0  0.98872  0.03391  0.75671  1.0000 0.1719927995
N   N19       1.0  0.23201  0.98872  0.95481  1.0000 0.1719927995
N   N20       1.0  0.27720  0.23201  0.24329  1.0000 0.1719927995
N   N21       1.0  0.96609  0.72280  0.95481  1.0000 0.1719927995
N   N22       1.0  0.01128  0.96609  0.24329  1.0000 0.1719927995
N   N23       1.0  0.76799  0.01128  0.04519  1.0000 0.1719927995
N   N24       1.0  0.72280  0.76799  0.75671  1.0000 0.1719927995
N   N25       1.0  0.10065  0.22195  0.00676  1.0000 -0.3125792311
N   N26       1.0  0.09389  0.10065  0.87870  1.0000 -0.3125792311
N   N27       1.0  0.21519  0.09389  0.99324  1.0000 -0.3125792311
N   N28       1.0  0.22195  0.21519  0.12130  1.0000 -0.3125792311
N   N29       1.0  0.89935  0.77805  0.99324  1.0000 -0.3125792311
N   N30       1.0  0.90611  0.89935  0.12130  1.0000 -0.3125792311
N   N31       1.0  0.78481  0.90611  0.00676  1.0000 -0.3125792311
N   N32       1.0  0.77805  0.78481  0.87870  1.0000 -0.3125792311
N   N33       1.0  0.27175  0.64861  0.23602  1.0000 0.1598687603
N   N34       1.0  0.03573  0.27175  0.62314  1.0000 0.1598687603
N   N35       1.0  0.41259  0.03573  0.76398  1.0000 0.1598687603
N   N36       1.0  0.64861  0.41259  0.37686  1.0000 0.1598687603
N   N37       1.0  0.72825  0.35139  0.76398  1.0000 0.1598687603
N   N38       1.0  0.96427  0.72825  0.37686  1.0000 0.1598687603
N   N39       1.0  0.58741  0.96427  0.23602  1.0000 0.1598687603
N   N40       1.0  0.35139  0.58741  0.62314  1.0000 0.1598687603
N   N41       1.0  0.39572  0.69690  0.23356  1.0000 -0.2854134158
N   N42       1.0  0.16216  0.39572  0.69882  1.0000 -0.2854134158
N   N43       1.0  0.46334  0.16216  0.76644  1.0000 -0.2854134158
N   N44       1.0  0.69690  0.46334  0.30118  1.0000 -0.2854134158
N   N45       1.0  0.60428  0.30310  0.76644  1.0000 -0.2854134158
N   N46       1.0  0.83784  0.60428  0.30118  1.0000 -0.2854134158
N   N47       1.0  0.53666  0.83784  0.23356  1.0000 -0.2854134158
N   N48       1.0  0.30310  0.53666  0.69882  1.0000 -0.2854134158
N   N49       1.0  0.04662  0.30007  0.98669  1.0000 -0.2476853222
N   N50       1.0  0.05993  0.04662  0.74655  1.0000 -0.2476853222
N   N51       1.0  0.31338  0.05993  0.01331  1.0000 -0.2476853222
N   N52       1.0  0.30007  0.31338  0.25345  1.0000 -0.2476853222
N   N53       1.0  0.95338  0.69993  0.01331  1.0000 -0.2476853222
N   N54       1.0  0.94007  0.95338  0.25345  1.0000 -0.2476853222
N   N55       1.0  0.68662  0.94007  0.98669  1.0000 -0.2476853222
N   N56       1.0  0.69993  0.68662  0.74655  1.0000 -0.2476853222
N   N57       1.0  0.79406  0.51974  0.03398  1.0000 -0.2476853222
N   N58       1.0  0.76008  0.79406  0.27432  1.0000 -0.2476853222
N   N59       1.0  0.48576  0.76008  0.96602  1.0000 -0.2476853222
N   N60       1.0  0.51974  0.48576  0.72568  1.0000 -0.2476853222
N   N61       1.0  0.20594  0.48026  0.96602  1.0000 -0.2476853222
N   N62       1.0  0.23992  0.20594  0.72568  1.0000 -0.2476853222
N   N63       1.0  0.51424  0.23992  0.03398  1.0000 -0.2476853222
N   N64       1.0  0.48026  0.51424  0.27432  1.0000 -0.2476853222
N   N65       1.0  0.25426  0.63691  0.15885  1.0000 -0.2319314998
N   N66       1.0  0.09541  0.25426  0.61735  1.0000 -0.2319314998
N   N67       1.0  0.47806  0.09541  0.84115  1.0000 -0.2319314998
N   N68       1.0  0.63691  0.47806  0.38265  1.0000 -0.2319314998
N   N69       1.0  0.74574  0.36309  0.84115  1.0000 -0.2319314998
N   N70       1.0  0.90459  0.74574  0.38265  1.0000 -0.2319314998
N   N71       1.0  0.52194  0.90459  0.15885  1.0000 -0.2319314998
N   N72       1.0  0.36309  0.52194  0.61735  1.0000 -0.2319314998
N   N73       1.0  0.17241  0.94034  0.11275  1.0000 0.6584082826
N   N74       1.0  0.94034  0.82759  0.76793  1.0000 0.6584082826
N   N75       1.0  0.82759  0.05966  0.88725  1.0000 0.6584082826
N   N76       1.0  0.05966  0.17241  0.23207  1.0000 0.6584082826
O   O1        1.0  0.83483  0.43620  0.27103  1.0000 -0.8734215662
O   O2        1.0  0.56380  0.83483  0.39863  1.0000 -0.8734215662
O   O3        1.0  0.16517  0.56380  0.72897  1.0000 -0.8734215662
O   O4        1.0  0.43620  0.16517  0.60137  1.0000 -0.8734215662
O   O5        1.0  0.64977  0.53265  0.18242  1.0000 -0.8802302347
O   O6        1.0  0.46735  0.64977  0.11712  1.0000 -0.8802302347
O   O7        1.0  0.35023  0.46735  0.81758  1.0000 -0.8802302347
O   O8        1.0  0.53265  0.35023  0.88288  1.0000 -0.8802302347
O   O9        1.0  0.28439  0.28439  0.00000  1.0000 -0.933825703
O   O10       1.0  0.71561  0.71561  0.00000  1.0000 -0.933825703
O   O11       1.0  0.19728  0.89599  0.09327  1.0000 -0.3826230333
O   O12       1.0  0.11939  0.94414  0.06353  1.0000 -0.4203661875
O   O13       1.0  0.19488  0.98831  0.18319  1.0000 -0.4203661875
O   O14       1.0  0.89599  0.80272  0.69871  1.0000 -0.3826230333
O   O15       1.0  0.94414  0.88061  0.82475  1.0000 -0.4203661875
O   O16       1.0  0.98831  0.80512  0.79343  1.0000 -0.4143044964
O   O17       1.0  0.80272  0.10401  0.90673  1.0000 -0.3826230333
O   O18       1.0  0.88061  0.05586  0.93647  1.0000 -0.4203661875
O   O19       1.0  0.80512  0.01169  0.81681  1.0000 -0.4143044964
O   O20       1.0  0.10401  0.19728  0.30129  1.0000 -0.3826230333
O   O21       1.0  0.05586  0.11939  0.17525  1.0000 -0.4252169446
O   O22       1.0  0.01169  0.19488  0.20657  1.0000 -0.4203661875
