# DDEC6 charges by PACMAN v1.1 (https://github.com/mtap-research/PACMAN-charge/)
data_2011[U][nan]3[ION]2
_chemical_formula_sum              "U24 H44 C60 N8 O120"
_cell_length_a       13.198
_cell_length_b       14.852
_cell_length_c       23.407
_cell_angle_alpha    90
_cell_angle_beta     90
_cell_angle_gamma    90

_symmetry_space_group_name_H-M    "P 1"
_symmetry_Int_Tables_number       1

loop_
  _symmetry_equiv_pos_as_xyz
  'x, y, z'

loop_
  _atom_site_type_symbol
  _atom_site_label
  _atom_site_symmetry_multiplicity
  _atom_site_fract_x
  _atom_site_fract_y
  _atom_site_fract_z
  _atom_site_occupancy
  _atom_site_charge
U   U1        1.0  0.32341  0.20023  0.19747  1.0000 2.5770247333
U   U2        1.0  0.00131  0.18899  0.18708  1.0000 2.7103856755
U   U3        1.0  0.18650  0.31653  0.31263  1.0000 2.7103856755
U   U4        1.0  0.65796  0.81706  0.19044  1.0000 2.7271223419
U   U5        1.0  0.98582  0.80757  0.20979  1.0000 2.5021572463
U   U6        1.0  0.80747  0.72484  0.30814  1.0000 2.4598896854
U   U7        1.0  0.16943  0.69196  0.30620  1.0000 2.6363606803
U   U8        1.0  0.48851  0.67672  0.30876  1.0000 2.7475273959
U   U9        1.0  0.33698  0.81681  0.20394  1.0000 2.6588845603
U   U10       1.0  0.86599  0.31821  0.29861  1.0000 2.6255958431
U   U11       1.0  0.50602  0.28371  0.30112  1.0000 2.4307995193
U   U12       1.0  0.68292  0.21425  0.19810  1.0000 2.466205632
U   U13       1.0  0.64955  0.81319  0.80205  1.0000 2.6030686252
U   U14       1.0  0.00903  0.78910  0.79879  1.0000 2.4307995193
U   U15       1.0  0.83186  0.71591  0.69836  1.0000 2.4598896854
U   U16       1.0  0.33654  0.19982  0.79874  1.0000 2.6470916622
U   U17       1.0  0.99963  0.20602  0.80426  1.0000 2.5946760528
U   U18       1.0  0.16599  0.30178  0.70014  1.0000 2.4944639556
U   U19       1.0  0.84614  0.31074  0.68516  1.0000 2.7475273959
U   U20       1.0  0.52121  0.31804  0.70083  1.0000 2.6230335586
U   U21       1.0  0.66410  0.19718  0.81079  1.0000 2.7413714282
U   U22       1.0  0.19154  0.70247  0.69591  1.0000 2.5946760528
U   U23       1.0  0.51376  0.68578  0.68953  1.0000 2.7150469177
U   U24       1.0  0.32875  0.81343  0.81460  1.0000 2.7103856755
H   H1        1.0  0.19235  0.15894  0.00560  1.0000 0.177885706
H   H2        1.0  0.12829  0.83105  0.01176  1.0000 0.177885706
H   H3        1.0  0.49198  0.17462  0.00798  1.0000 0.177885706
H   H4        1.0  0.84736  0.82751  0.98785  1.0000 0.177885706
H   H5        1.0  0.81613  0.15908  0.98728  1.0000 0.177885706
H   H6        1.0  0.50384  0.84191  0.01126  1.0000 0.1850541137
H   H7        1.0  0.31717  0.65354  0.50509  1.0000 0.177885706
H   H8        1.0  0.37783  0.32556  0.51685  1.0000 0.177885706
H   H9        1.0  0.98444  0.69077  0.50210  1.0000 0.1721557878
H   H10       1.0  0.67183  0.31403  0.49338  1.0000 0.177885706
H   H11       1.0  0.70658  0.64520  0.49616  1.0000 0.177885706
H   H12       1.0  0.03264  0.36193  0.49498  1.0000 0.177885706
H   H13       1.0  0.24098  0.02985  0.37826  1.0000 0.418416848
H   H14       1.0  0.31179  0.10523  0.41610  1.0000 0.3198692016
H   H15       1.0  0.35703  0.06196  0.35364  1.0000 0.3803530685
H   H16       1.0  0.52471  0.95800  0.35639  1.0000 0.3490704469
H   H17       1.0  0.60160  0.00226  0.40783  1.0000 0.3490704469
H   H18       1.0  0.65107  0.97052  0.34358  1.0000 0.4007494701
H   H19       1.0  0.15596  0.48130  0.08444  1.0000 0.3421876721
H   H20       1.0  0.12396  0.58593  0.10845  1.0000 0.3198692016
H   H21       1.0  0.21781  0.52674  0.14156  1.0000 0.4007494701
H   H22       1.0  0.79939  0.47505  0.07194  1.0000 0.3421876721
H   H23       1.0  0.90570  0.51168  0.10622  1.0000 0.3323444776
H   H24       1.0  0.85967  0.40645  0.11944  1.0000 0.3711850323
H   H25       1.0  0.64924  0.91010  0.59514  1.0000 0.3421876721
H   H26       1.0  0.61309  0.02026  0.59227  1.0000 0.3323444776
H   H27       1.0  0.70299  0.98673  0.64011  1.0000 0.4083811991
H   H28       1.0  0.32461  0.07540  0.57739  1.0000 0.3198692016
H   H29       1.0  0.27910  0.02196  0.63657  1.0000 0.4083811991
H   H30       1.0  0.40516  0.04555  0.63110  1.0000 0.3421876721
H   H31       1.0  0.78526  0.44472  0.83393  1.0000 0.4279178135
H   H32       1.0  0.81728  0.53072  0.87869  1.0000 0.392615398
H   H33       1.0  0.90865  0.47740  0.83982  1.0000 0.3490704469
H   H34       1.0  0.11913  0.52788  0.85180  1.0000 0.3711850323
H   H35       1.0  0.17015  0.60638  0.89656  1.0000 0.3421876721
H   H36       1.0  0.24394  0.52175  0.87024  1.0000 0.4279178135
H   H37       1.0  0.61016  0.89102  0.39080  1.0000 0.3711850323
H   H38       1.0  0.57974  0.95549  0.64941  1.0000 0.3711850323
H   H39       1.0  0.79528  0.49866  0.14319  1.0000 0.418416848
H   H40       1.0  0.85093  0.42296  0.89515  1.0000 0.3490704469
H   H41       1.0  0.15258  0.49857  0.91965  1.0000 0.3198692016
H   H42       1.0  0.09477  0.49316  0.14815  1.0000 0.3490704469
H   H43       1.0  0.35244  0.96467  0.58882  1.0000 0.3323444776
H   H44       1.0  0.34799  0.99509  0.41265  1.0000 0.3198692016
C   C1        1.0  0.18691  0.10334  0.11363  1.0000 0.6216029875
C   C2        1.0  0.53164  0.11477  0.12007  1.0000 0.2715782799
C   C3        1.0  0.49407  0.05982  0.06562  1.0000 0.0400879114
C   C4        1.0  0.17053  0.04368  0.06204  1.0000 0.0295884949
C   C5        1.0  0.15659  0.94684  0.06577  1.0000 0.0121427405
C   C6        1.0  0.12684  0.89369  0.12195  1.0000 0.3323444776
C   C7        1.0  0.84064  0.89311  0.09911  1.0000 0.4083811991
C   C8        1.0  0.47827  0.90763  0.11846  1.0000 0.5949460022
C   C9        1.0  0.49556  0.96247  0.06447  1.0000 0.0212943293
C   C10       1.0  0.83740  0.94602  0.04209  1.0000 0.0295884949
C   C11       1.0  0.82052  0.04152  0.04222  1.0000 0.0295884949
C   C12       1.0  0.82060  0.09707  0.09888  1.0000 0.4445725434
C   C13       1.0  0.32272  0.58268  0.39630  1.0000 0.7028819673
C   C14       1.0  0.96464  0.63164  0.38889  1.0000 0.2715782799
C   C15       1.0  0.00495  0.57762  0.44307  1.0000 0.0212943293
C   C16       1.0  0.34077  0.53403  0.45493  1.0000 0.0295884949
C   C17       1.0  0.36779  0.44073  0.45937  1.0000 0.0121427405
C   C18       1.0  0.36812  0.38462  0.40535  1.0000 0.4007494701
C   C19       1.0  0.65388  0.38031  0.38189  1.0000 0.2514689393
C   C20       1.0  0.00521  0.42032  0.38778  1.0000 0.6544406168
C   C21       1.0  0.01703  0.48026  0.44216  1.0000 0.0295884949
C   C22       1.0  0.68795  0.43098  0.43816  1.0000 0.0400879114
C   C23       1.0  0.69095  0.52768  0.44184  1.0000 0.0212943293
C   C24       1.0  0.68372  0.58824  0.39086  1.0000 0.3610639028
C   C25       1.0  0.86344  0.88850  0.87775  1.0000 0.2514689393
C   C26       1.0  0.50919  0.90103  0.89805  1.0000 0.6741882913
C   C27       1.0  0.49694  0.95699  0.95496  1.0000 0.0295884949
C   C28       1.0  0.83044  0.94354  0.93171  1.0000 0.0400879114
C   C29       1.0  0.82701  0.04133  0.93219  1.0000 0.0005937867
C   C30       1.0  0.86498  0.09765  0.88070  1.0000 0.3803530685
C   C31       1.0  0.17037  0.09773  0.89541  1.0000 0.4554798655
C   C32       1.0  0.48648  0.10427  0.89865  1.0000 0.6623701207
C   C33       1.0  0.48683  0.05315  0.95525  1.0000 0.0005937867
C   C34       1.0  0.16705  0.04238  0.95293  1.0000 0.0295884949
C   C35       1.0  0.14668  0.94744  0.95625  1.0000 0.0121427405
C   C36       1.0  0.14693  0.89114  0.90264  1.0000 0.311362391
C   C37       1.0  0.66222  0.38134  0.60320  1.0000 0.6307070606
C   C38       1.0  0.02510  0.41213  0.60430  1.0000 0.467284029
C   C39       1.0  0.02487  0.47619  0.55219  1.0000 0.0295884949
C   C40       1.0  0.68851  0.43199  0.54850  1.0000 0.0212943293
C   C41       1.0  0.69914  0.52820  0.54979  1.0000 0.0212943293
C   C42       1.0  0.69596  0.58696  0.60493  1.0000 0.392615398
C   C43       1.0  0.32895  0.60246  0.61444  1.0000 0.6071904056
C   C44       1.0  0.98123  0.62198  0.61465  1.0000 0.2637680225
C   C45       1.0  0.01427  0.57349  0.55621  1.0000 0.0400879114
C   C46       1.0  0.34496  0.54180  0.56334  1.0000 0.0295884949
C   C47       1.0  0.35744  0.44547  0.56877  1.0000 0.0295884949
C   C48       1.0  0.31638  0.39278  0.62245  1.0000 0.2408648037
C   C49       1.0  0.17871  0.08702  0.00669  1.0000 -0.0602989943
C   C50       1.0  0.14309  0.90278  0.01138  1.0000 -0.0659600593
C   C51       1.0  0.48935  0.10180  0.00962  1.0000 -0.0602989943
C   C52       1.0  0.83710  0.89985  0.98729  1.0000 -0.0510745518
C   C53       1.0  0.81770  0.08617  0.98718  1.0000 -0.0602989943
C   C54       1.0  0.50038  0.91477  0.01026  1.0000 -0.0602989943
C   C55       1.0  0.33333  0.58212  0.50752  1.0000 -0.0602989943
C   C56       1.0  0.37173  0.39823  0.51533  1.0000 -0.0766328819
C   C57       1.0  0.00265  0.61976  0.50054  1.0000 -0.0258534796
C   C58       1.0  0.68494  0.38601  0.49327  1.0000 -0.0602989943
C   C59       1.0  0.70192  0.57229  0.49595  1.0000 -0.0602989943
C   C60       1.0  0.02693  0.43470  0.49630  1.0000 -0.0407351278
N   N1        1.0  0.31444  0.04804  0.39018  1.0000 -0.6499973036
N   N2        1.0  0.59686  0.95546  0.37464  1.0000 -0.6200501994
N   N3        1.0  0.14812  0.52179  0.12065  1.0000 -0.6386069007
N   N4        1.0  0.84002  0.47298  0.11020  1.0000 -0.6386069007
N   N5        1.0  0.63626  0.96815  0.61923  1.0000 -0.6386069007
N   N6        1.0  0.34031  0.02689  0.60846  1.0000 -0.6499973036
N   N7        1.0  0.84055  0.46894  0.86191  1.0000 -0.6294568256
N   N8        1.0  0.17145  0.53865  0.88457  1.0000 -0.6294568256
O   O1        1.0  0.15594  0.24989  0.22553  1.0000 -0.8287595458
O   O2        1.0  0.03049  0.88277  0.13048  1.0000 -0.2212528683
O   O3        1.0  0.62927  0.12567  0.12532  1.0000 -0.2271964945
O   O4        1.0  0.13125  0.09796  0.15920  1.0000 -0.6294568256
O   O5        1.0  0.18395  0.85457  0.16167  1.0000 -0.4231113143
O   O6        1.0  0.50524  0.19493  0.22213  1.0000 -0.6499973036
O   O7        1.0  0.34904  0.33775  0.16365  1.0000 -0.8507791705
O   O8        1.0  0.29722  0.06366  0.23014  1.0000 -0.6995006449
O   O9        1.0  0.03112  0.28604  0.11705  1.0000 -0.9110235818
O   O10       1.0  0.24853  0.42506  0.25855  1.0000 -0.7368109671
O   O11       1.0  0.97072  0.09425  0.25732  1.0000 -0.6995006449
O   O12       1.0  0.26811  0.15103  0.11461  1.0000 -0.5900185056
O   O13       1.0  0.47938  0.15435  0.16206  1.0000 -0.3108833082
O   O14       1.0  0.33697  0.23647  0.29096  1.0000 -1.2096449978
O   O15       1.0  0.12838  0.20479  0.36624  1.0000 -0.9472161777
O   O16       1.0  0.81511  0.82451  0.23849  1.0000 -1.181628669
O   O17       1.0  0.90967  0.10740  0.12257  1.0000 -0.6294568256
O   O18       1.0  0.39728  0.92324  0.14710  1.0000 -0.5625028856
O   O19       1.0  0.92842  0.88193  0.12717  1.0000 -0.2108058877
O   O20       1.0  0.73360  0.12985  0.11908  1.0000 -0.2417024024
O   O21       1.0  0.50469  0.79294  0.24422  1.0000 -0.8771917867
O   O22       1.0  0.67672  0.67534  0.16276  1.0000 -0.8587868161
O   O23       1.0  0.63543  0.95802  0.21665  1.0000 -0.7801436432
O   O24       1.0  0.95162  0.68126  0.16313  1.0000 -0.8425330169
O   O25       1.0  0.80250  0.61374  0.24580  1.0000 -0.6892381556
O   O26       1.0  0.02304  0.93133  0.25702  1.0000 -0.6995006449
O   O27       1.0  0.75145  0.86618  0.11579  1.0000 -0.6294568256
O   O28       1.0  0.52773  0.83385  0.12858  1.0000 -0.660723532
O   O29       1.0  0.63474  0.76339  0.28301  1.0000 -0.9110235818
O   O30       1.0  0.81178  0.83740  0.37031  1.0000 -0.8999756523
O   O31       1.0  0.32953  0.69948  0.26402  1.0000 -1.1960549004
O   O32       1.0  0.45561  0.36393  0.38069  1.0000 -0.2108058877
O   O33       1.0  0.86723  0.63807  0.38169  1.0000 -0.1997309622
O   O34       1.0  0.39235  0.57418  0.35708  1.0000 -0.612149442
O   O35       1.0  0.27794  0.36718  0.38647  1.0000 -0.6294568256
O   O36       1.0  0.98912  0.73222  0.29389  1.0000 -0.6784357674
O   O37       1.0  0.19299  0.82223  0.35040  1.0000 -0.8587868161
O   O38       1.0  0.14066  0.56360  0.26210  1.0000 -0.7260920353
O   O39       1.0  0.44975  0.77653  0.37571  1.0000 -0.8999756523
O   O40       1.0  0.31199  0.91150  0.27529  1.0000 -0.6995006449
O   O41       1.0  0.52766  0.57792  0.24153  1.0000 -0.7368109671
O   O42       1.0  0.23545  0.62294  0.38625  1.0000 -0.6200501994
O   O43       1.0  0.01490  0.67315  0.34777  1.0000 -0.3223899551
O   O44       1.0  0.16116  0.76327  0.21839  1.0000 -0.868742878
O   O45       1.0  0.36209  0.71771  0.13437  1.0000 -0.8913241274
O   O46       1.0  0.68308  0.30359  0.27686  1.0000 -0.667319233
O   O47       1.0  0.59523  0.60614  0.36991  1.0000 -0.6200501994
O   O48       1.0  0.07167  0.42153  0.34644  1.0000 -0.6200501994
O   O49       1.0  0.55697  0.36713  0.37622  1.0000 -0.2108058877
O   O50       1.0  0.76842  0.62478  0.37521  1.0000 -0.2271964945
O   O51       1.0  0.03339  0.29293  0.25885  1.0000 -0.8208485044
O   O52       1.0  0.86369  0.18143  0.33637  1.0000 -0.8115931399
O   O53       1.0  0.86900  0.45465  0.26202  1.0000 -0.7368109671
O   O54       1.0  0.54033  0.16309  0.35339  1.0000 -0.8507791705
O   O55       1.0  0.72314  0.09916  0.25351  1.0000 -0.7260920353
O   O56       1.0  0.47229  0.40416  0.24914  1.0000 -0.6995006449
O   O57       1.0  0.70831  0.34692  0.33869  1.0000 -0.329986875
O   O58       1.0  0.92148  0.37607  0.38153  1.0000 -0.6200501994
O   O59       1.0  0.84953  0.26680  0.20737  1.0000 -1.2482761986
O   O60       1.0  0.64513  0.33184  0.14373  1.0000 -0.8587868161
O   O61       1.0  0.83151  0.80759  0.77579  1.0000 -0.660723532
O   O62       1.0  0.96077  0.10848  0.87404  1.0000 -0.2771995909
O   O63       1.0  0.44520  0.90959  0.85579  1.0000 -0.6386069007
O   O64       1.0  0.96020  0.87668  0.87170  1.0000 -0.1997309622
O   O65       1.0  0.81247  0.14260  0.84323  1.0000 -0.5900185056
O   O66       1.0  0.48240  0.78730  0.76235  1.0000 -0.8208485044
O   O67       1.0  0.66218  0.67464  0.83638  1.0000 -0.8287595458
O   O68       1.0  0.63625  0.95026  0.77029  1.0000 -0.7237234957
O   O69       1.0  0.97500  0.67081  0.85328  1.0000 -0.8287595458
O   O70       1.0  0.79987  0.60205  0.75620  1.0000 -0.6892381556
O   O71       1.0  0.04192  0.90789  0.74474  1.0000 -0.7105148084
O   O72       1.0  0.80837  0.84848  0.83739  1.0000 -0.3223899551
O   O73       1.0  0.59465  0.86048  0.88871  1.0000 -0.612149442
O   O74       1.0  0.66438  0.76592  0.70955  1.0000 -1.2482761986
O   O75       1.0  0.86317  0.83273  0.64204  1.0000 -0.8771917867
O   O76       1.0  0.16646  0.19474  0.76784  1.0000 -1.1688664801
O   O77       1.0  0.06014  0.87337  0.87645  1.0000 -0.1997309622
O   O78       1.0  0.57458  0.10817  0.87236  1.0000 -0.6499973036
O   O79       1.0  0.08023  0.11631  0.87233  1.0000 -0.3108833082
O   O80       1.0  0.23677  0.86629  0.88724  1.0000 -0.6294568256
O   O81       1.0  0.50288  0.25144  0.78583  1.0000 -1.2597218402
O   O82       1.0  0.30439  0.32747  0.84428  1.0000 -0.8287595458
O   O83       1.0  0.37424  0.07389  0.75363  1.0000 -0.7237234957
O   O84       1.0  0.02822  0.31885  0.86416  1.0000 -0.868742878
O   O85       1.0  0.19258  0.40757  0.76436  1.0000 -0.6499973036
O   O86       1.0  0.97236  0.09244  0.74494  1.0000 -0.7237234957
O   O87       1.0  0.26104  0.12405  0.87570  1.0000 -0.4102664091
O   O88       1.0  0.39870  0.13637  0.88059  1.0000 -0.4102664091
O   O89       1.0  0.34364  0.26887  0.71055  1.0000 -0.667319233
O   O90       1.0  0.13740  0.19348  0.63693  1.0000 -0.8771917867
O   O91       1.0  0.69118  0.30254  0.74057  1.0000 -0.962698067
O   O92       1.0  0.60634  0.59949  0.62756  1.0000 -0.6200501994
O   O93       1.0  0.11072  0.40429  0.63345  1.0000 -0.257230515
O   O94       1.0  0.57409  0.39438  0.62483  1.0000 -0.5815408178
O   O95       1.0  0.78177  0.62433  0.62305  1.0000 -0.2212528683
O   O96       1.0  0.00005  0.31006  0.73477  1.0000 -1.1638894923
O   O97       1.0  0.85974  0.16702  0.66097  1.0000 -0.8587868161
O   O98       1.0  0.83198  0.45381  0.70729  1.0000 -0.7935241707
O   O99       1.0  0.54416  0.19054  0.65325  1.0000 -0.8208485044
O   O100      1.0  0.66233  0.10243  0.73855  1.0000 -0.6995006449
O   O101      1.0  0.49334  0.44116  0.74935  1.0000 -0.6499973036
O   O102      1.0  0.71541  0.31467  0.62234  1.0000 -0.6499973036
O   O103      1.0  0.94554  0.35950  0.61067  1.0000 -0.6499973036
O   O104      1.0  0.82730  0.25810  0.77882  1.0000 -0.9110235818
O   O105      1.0  0.66741  0.29942  0.87979  1.0000 -0.932016278
O   O106      1.0  0.35914  0.74938  0.72650  1.0000 -0.8208485044
O   O107      1.0  0.36498  0.34393  0.66129  1.0000 -0.329986875
O   O108      1.0  0.88394  0.63040  0.62333  1.0000 -0.2108058877
O   O109      1.0  0.38310  0.59585  0.66071  1.0000 -0.6200501994
O   O110      1.0  0.21929  0.39326  0.63018  1.0000 -0.2417024024
O   O111      1.0  0.00986  0.69876  0.72075  1.0000 -0.6784357674
O   O112      1.0  0.16976  0.84034  0.66179  1.0000 -0.8425330169
O   O113      1.0  0.21403  0.56585  0.72946  1.0000 -0.6995006449
O   O114      1.0  0.48569  0.78078  0.61816  1.0000 -0.9110235818
O   O115      1.0  0.27714  0.92810  0.76231  1.0000 -0.7237234957
O   O116      1.0  0.54366  0.59621  0.76218  1.0000 -0.6784357674
O   O117      1.0  0.24964  0.65242  0.61416  1.0000 -0.5815408178
O   O118      1.0  0.03669  0.65828  0.65671  1.0000 -0.329986875
O   O119      1.0  0.17650  0.73991  0.78895  1.0000 -1.2482761986
O   O120      1.0  0.37666  0.69600  0.86651  1.0000 -0.9439442403
