# DDEC6 charges by PACMAN v1.1 (https://github.com/mtap-research/PACMAN-charge/)
data_2012[CoLu][nan]3[ION]1
_chemical_formula_sum              "Lu24 Co16 H368 C576 N96 Cl8 O264"
_cell_length_a       18.4705
_cell_length_b       18.528
_cell_length_c       49.3489
_cell_angle_alpha    90
_cell_angle_beta     90
_cell_angle_gamma    90

_symmetry_space_group_name_H-M    "P 1"
_symmetry_Int_Tables_number       1

loop_
  _symmetry_equiv_pos_as_xyz
  'x, y, z'

loop_
  _atom_site_type_symbol
  _atom_site_label
  _atom_site_symmetry_multiplicity
  _atom_site_fract_x
  _atom_site_fract_y
  _atom_site_fract_z
  _atom_site_occupancy
  _atom_site_charge
Lu  Lu1       1.0  0.29728  0.42714  0.12151  1.0000 1.6596772331
Lu  Lu2       1.0  0.79728  0.57286  0.37849  1.0000 1.6596772331
Lu  Lu3       1.0  0.70272  0.07286  0.62151  1.0000 1.6596772331
Lu  Lu4       1.0  0.20272  0.92714  0.87849  1.0000 1.6596772331
Lu  Lu5       1.0  0.70272  0.57286  0.87849  1.0000 1.6596772331
Lu  Lu6       1.0  0.20272  0.42714  0.62151  1.0000 1.6596772331
Lu  Lu7       1.0  0.29728  0.92714  0.37849  1.0000 1.6596772331
Lu  Lu8       1.0  0.79728  0.07286  0.12151  1.0000 1.6596772331
Lu  Lu9       1.0  0.86600  0.40153  0.87778  1.0000 1.6819095272
Lu  Lu10      1.0  0.36600  0.59847  0.62222  1.0000 1.6819095272
Lu  Lu11      1.0  0.13400  0.09847  0.37778  1.0000 1.6819095272
Lu  Lu12      1.0  0.63400  0.90153  0.12222  1.0000 1.6819095272
Lu  Lu13      1.0  0.13400  0.59847  0.12222  1.0000 1.6819095272
Lu  Lu14      1.0  0.63400  0.40153  0.37778  1.0000 1.6819095272
Lu  Lu15      1.0  0.86600  0.90153  0.62222  1.0000 1.6819095272
Lu  Lu16      1.0  0.36600  0.09847  0.87778  1.0000 1.6819095272
Lu  Lu17      1.0  0.68445  0.51409  0.12467  1.0000 1.4466564465
Lu  Lu18      1.0  0.18445  0.48591  0.37533  1.0000 1.4466564465
Lu  Lu19      1.0  0.31555  0.98591  0.62467  1.0000 1.4466564465
Lu  Lu20      1.0  0.81555  0.01409  0.87533  1.0000 1.4466564465
Lu  Lu21      1.0  0.31555  0.48591  0.87533  1.0000 1.4466564465
Lu  Lu22      1.0  0.81555  0.51409  0.62467  1.0000 1.4466564465
Lu  Lu23      1.0  0.68445  0.01409  0.37533  1.0000 1.4466564465
Lu  Lu24      1.0  0.18445  0.98591  0.12467  1.0000 1.4466564465
Co  Co1       1.0  0.95533  0.38368  0.24542  1.0000 0.5536545966
Co  Co2       1.0  0.45533  0.61632  0.25458  1.0000 0.5536545966
Co  Co3       1.0  0.04467  0.11632  0.74542  1.0000 0.5536545966
Co  Co4       1.0  0.54467  0.88368  0.75458  1.0000 0.5536545966
Co  Co5       1.0  0.04467  0.61632  0.75458  1.0000 0.5536545966
Co  Co6       1.0  0.54467  0.38368  0.74542  1.0000 0.5536545966
Co  Co7       1.0  0.95533  0.88368  0.25458  1.0000 0.5536545966
Co  Co8       1.0  0.45533  0.11632  0.24542  1.0000 0.5536545966
Co  Co9       1.0  0.10761  0.24759  0.00214  1.0000 0.4607138517
Co  Co10      1.0  0.60761  0.75241  0.49786  1.0000 0.4607138517
Co  Co11      1.0  0.89239  0.25241  0.50214  1.0000 0.4607138517
Co  Co12      1.0  0.39239  0.74759  0.99786  1.0000 0.4607138517
Co  Co13      1.0  0.89239  0.75241  0.99786  1.0000 0.4607138517
Co  Co14      1.0  0.39239  0.24759  0.50214  1.0000 0.4607138517
Co  Co15      1.0  0.10761  0.74759  0.49786  1.0000 0.4607138517
Co  Co16      1.0  0.60761  0.25241  0.00214  1.0000 0.4607138517
H   H1        1.0  0.44270  0.43930  0.11330  1.0000 0.3538099952
H   H2        1.0  0.94270  0.56070  0.38670  1.0000 0.3538099952
H   H3        1.0  0.55730  0.06070  0.61330  1.0000 0.3538099952
H   H4        1.0  0.05730  0.93930  0.88670  1.0000 0.3538099952
H   H5        1.0  0.55730  0.56070  0.88670  1.0000 0.3538099952
H   H6        1.0  0.05730  0.43930  0.61330  1.0000 0.3538099952
H   H7        1.0  0.44270  0.93930  0.38670  1.0000 0.3538099952
H   H8        1.0  0.94270  0.06070  0.11330  1.0000 0.3538099952
H   H9        1.0  0.44230  0.46500  0.13950  1.0000 0.3650262463
H   H10       1.0  0.94230  0.53500  0.36050  1.0000 0.3650262463
H   H11       1.0  0.55770  0.03500  0.63950  1.0000 0.3625537969
H   H12       1.0  0.05770  0.96500  0.86050  1.0000 0.3650262463
H   H13       1.0  0.55770  0.53500  0.86050  1.0000 0.3625537969
H   H14       1.0  0.05770  0.46500  0.63950  1.0000 0.3650262463
H   H15       1.0  0.44230  0.96500  0.36050  1.0000 0.3650262463
H   H16       1.0  0.94230  0.03500  0.13950  1.0000 0.3625537969
H   H17       1.0  0.28010  0.28680  0.10510  1.0000 0.379468679
H   H18       1.0  0.78010  0.71320  0.39490  1.0000 0.379468679
H   H19       1.0  0.71990  0.21320  0.60510  1.0000 0.379468679
H   H20       1.0  0.21990  0.78680  0.89490  1.0000 0.379468679
H   H21       1.0  0.71990  0.71320  0.89490  1.0000 0.379468679
H   H22       1.0  0.21990  0.28680  0.60510  1.0000 0.379468679
H   H23       1.0  0.28010  0.78680  0.39490  1.0000 0.379468679
H   H24       1.0  0.78010  0.21320  0.10510  1.0000 0.379468679
H   H25       1.0  0.29020  0.28860  0.13310  1.0000 0.3538099952
H   H26       1.0  0.79020  0.71140  0.36690  1.0000 0.3538099952
H   H27       1.0  0.70980  0.21140  0.63310  1.0000 0.3538099952
H   H28       1.0  0.20980  0.78860  0.86690  1.0000 0.3538099952
H   H29       1.0  0.70980  0.71140  0.86690  1.0000 0.3538099952
H   H30       1.0  0.20980  0.28860  0.63310  1.0000 0.3538099952
H   H31       1.0  0.29020  0.78860  0.36690  1.0000 0.3538099952
H   H32       1.0  0.79020  0.21140  0.13310  1.0000 0.3538099952
H   H33       1.0  0.00140  0.43740  0.90140  1.0000 0.379468679
H   H34       1.0  0.50140  0.56260  0.59860  1.0000 0.379468679
H   H35       1.0  0.99860  0.06260  0.40140  1.0000 0.379468679
H   H36       1.0  0.49860  0.93740  0.09860  1.0000 0.379468679
H   H37       1.0  0.99860  0.56260  0.09860  1.0000 0.379468679
H   H38       1.0  0.49860  0.43740  0.40140  1.0000 0.379468679
H   H39       1.0  0.00140  0.93740  0.59860  1.0000 0.379468679
H   H40       1.0  0.50140  0.06260  0.90140  1.0000 0.379468679
H   H41       1.0  0.00870  0.41870  0.87420  1.0000 0.3980582588
H   H42       1.0  0.50870  0.58130  0.62580  1.0000 0.3980582588
H   H43       1.0  0.99130  0.08130  0.37420  1.0000 0.3980582588
H   H44       1.0  0.49130  0.91870  0.12580  1.0000 0.3980582588
H   H45       1.0  0.99130  0.58130  0.12580  1.0000 0.3980582588
H   H46       1.0  0.49130  0.41870  0.37420  1.0000 0.3980582588
H   H47       1.0  0.00870  0.91870  0.62580  1.0000 0.3980582588
H   H48       1.0  0.50870  0.08130  0.87420  1.0000 0.3980582588
H   H49       1.0  0.71140  0.67200  0.12690  1.0000 0.3980582588
H   H50       1.0  0.21140  0.32800  0.37310  1.0000 0.3980582588
H   H51       1.0  0.28860  0.82800  0.62690  1.0000 0.3980582588
H   H52       1.0  0.78860  0.17200  0.87310  1.0000 0.3980582588
H   H53       1.0  0.28860  0.32800  0.87310  1.0000 0.3980582588
H   H54       1.0  0.78860  0.67200  0.62690  1.0000 0.3980582588
H   H55       1.0  0.71140  0.17200  0.37310  1.0000 0.3980582588
H   H56       1.0  0.21140  0.82800  0.12690  1.0000 0.3980582588
H   H57       1.0  0.63540  0.66580  0.12570  1.0000 0.3980582588
H   H58       1.0  0.13540  0.33420  0.37430  1.0000 0.3980582588
H   H59       1.0  0.36460  0.83420  0.62570  1.0000 0.3980582588
H   H60       1.0  0.86460  0.16580  0.87430  1.0000 0.3980582588
H   H61       1.0  0.36460  0.33420  0.87430  1.0000 0.3980582588
H   H62       1.0  0.86460  0.66580  0.62570  1.0000 0.3980582588
H   H63       1.0  0.63540  0.16580  0.37430  1.0000 0.3980582588
H   H64       1.0  0.13540  0.83420  0.12570  1.0000 0.3980582588
H   H65       1.0  0.55360  0.55880  0.09090  1.0000 0.3625537969
H   H66       1.0  0.05360  0.44120  0.40910  1.0000 0.3625537969
H   H67       1.0  0.44640  0.94120  0.59090  1.0000 0.3625537969
H   H68       1.0  0.94640  0.05880  0.90910  1.0000 0.3625537969
H   H69       1.0  0.44640  0.44120  0.90910  1.0000 0.3625537969
H   H70       1.0  0.94640  0.55880  0.59090  1.0000 0.3625537969
H   H71       1.0  0.55360  0.05880  0.40910  1.0000 0.3625537969
H   H72       1.0  0.05360  0.94120  0.09090  1.0000 0.3625537969
H   H73       1.0  0.61160  0.56110  0.10830  1.0000 0.2723619784
H   H74       1.0  0.11160  0.43890  0.39170  1.0000 0.2723619784
H   H75       1.0  0.38840  0.93890  0.60830  1.0000 0.2723619784
H   H76       1.0  0.88840  0.06110  0.89170  1.0000 0.2723619784
H   H77       1.0  0.38840  0.43890  0.89170  1.0000 0.2723619784
H   H78       1.0  0.88840  0.56110  0.60830  1.0000 0.2723619784
H   H79       1.0  0.61160  0.06110  0.39170  1.0000 0.2723619784
H   H80       1.0  0.11160  0.93890  0.10830  1.0000 0.2723619784
H   H81       1.0  0.03580  0.22650  0.94500  1.0000 0.1135423817
H   H82       1.0  0.53580  0.77350  0.55500  1.0000 0.1135423817
H   H83       1.0  0.96420  0.27350  0.44500  1.0000 0.1135423817
H   H84       1.0  0.46420  0.72650  0.05500  1.0000 0.1135423817
H   H85       1.0  0.96420  0.77350  0.05500  1.0000 0.1135423817
H   H86       1.0  0.46420  0.22650  0.44500  1.0000 0.1135423817
H   H87       1.0  0.03580  0.72650  0.55500  1.0000 0.1135423817
H   H88       1.0  0.53580  0.27350  0.94500  1.0000 0.1135423817
H   H89       1.0  0.86970  0.36590  0.94280  1.0000 0.1376082742
H   H90       1.0  0.36970  0.63410  0.55720  1.0000 0.1376082742
H   H91       1.0  0.13030  0.13410  0.44280  1.0000 0.1376082742
H   H92       1.0  0.63030  0.86590  0.05720  1.0000 0.1376082742
H   H93       1.0  0.13030  0.63410  0.05720  1.0000 0.1376082742
H   H94       1.0  0.63030  0.36590  0.44280  1.0000 0.1376082742
H   H95       1.0  0.86970  0.86590  0.55720  1.0000 0.1376082742
H   H96       1.0  0.36970  0.13410  0.94280  1.0000 0.1376082742
H   H97       1.0  0.90750  0.41000  0.98500  1.0000 0.1299678515
H   H98       1.0  0.40750  0.59000  0.51500  1.0000 0.1299678515
H   H99       1.0  0.09250  0.09000  0.48500  1.0000 0.1299678515
H   H100      1.0  0.59250  0.91000  0.01500  1.0000 0.1299678515
H   H101      1.0  0.09250  0.59000  0.01500  1.0000 0.1299678515
H   H102      1.0  0.59250  0.41000  0.48500  1.0000 0.1299678515
H   H103      1.0  0.90750  0.91000  0.51500  1.0000 0.1299678515
H   H104      1.0  0.40750  0.09000  0.98500  1.0000 0.1299678515
H   H105      1.0  0.96060  0.45590  0.02390  1.0000 0.1527473367
H   H106      1.0  0.46060  0.54410  0.47610  1.0000 0.1527473367
H   H107      1.0  0.03940  0.04410  0.52390  1.0000 0.1527473367
H   H108      1.0  0.53940  0.95590  0.97610  1.0000 0.1527473367
H   H109      1.0  0.03940  0.54410  0.97610  1.0000 0.1527473367
H   H110      1.0  0.53940  0.45590  0.52390  1.0000 0.1527473367
H   H111      1.0  0.96060  0.95590  0.47610  1.0000 0.1527473367
H   H112      1.0  0.46060  0.04410  0.02390  1.0000 0.1527473367
H   H113      1.0  0.02690  0.49840  0.06050  1.0000 0.1210785865
H   H114      1.0  0.52690  0.50160  0.43950  1.0000 0.1210785865
H   H115      1.0  0.97310  0.00160  0.56050  1.0000 0.1210785865
H   H116      1.0  0.47310  0.99840  0.93950  1.0000 0.1210785865
H   H117      1.0  0.97310  0.50160  0.93950  1.0000 0.1210785865
H   H118      1.0  0.47310  0.49840  0.56050  1.0000 0.1210785865
H   H119      1.0  0.02690  0.99840  0.43950  1.0000 0.1210785865
H   H120      1.0  0.52690  0.00160  0.06050  1.0000 0.1210785865
H   H121      1.0  0.16770  0.33550  0.04970  1.0000 0.1299678515
H   H122      1.0  0.66770  0.66450  0.45030  1.0000 0.1299678515
H   H123      1.0  0.83230  0.16450  0.54970  1.0000 0.1299678515
H   H124      1.0  0.33230  0.83550  0.95030  1.0000 0.1299678515
H   H125      1.0  0.83230  0.66450  0.95030  1.0000 0.1299678515
H   H126      1.0  0.33230  0.33550  0.54970  1.0000 0.1299678515
H   H127      1.0  0.16770  0.83550  0.45030  1.0000 0.1299678515
H   H128      1.0  0.66770  0.16450  0.04970  1.0000 0.1299678515
H   H129      1.0  0.86520  0.64000  0.03980  1.0000 0.1210785865
H   H130      1.0  0.36520  0.36000  0.46020  1.0000 0.1210785865
H   H131      1.0  0.13480  0.86000  0.53980  1.0000 0.1210785865
H   H132      1.0  0.63480  0.14000  0.96020  1.0000 0.1210785865
H   H133      1.0  0.13480  0.36000  0.96020  1.0000 0.1210785865
H   H134      1.0  0.63480  0.64000  0.53980  1.0000 0.1210785865
H   H135      1.0  0.86520  0.14000  0.46020  1.0000 0.1210785865
H   H136      1.0  0.36520  0.86000  0.03980  1.0000 0.1210785865
H   H137      1.0  0.65030  0.63440  0.04970  1.0000 0.1299678515
H   H138      1.0  0.15030  0.36560  0.45030  1.0000 0.1299678515
H   H139      1.0  0.34970  0.86560  0.54970  1.0000 0.1299678515
H   H140      1.0  0.84970  0.13440  0.95030  1.0000 0.1299678515
H   H141      1.0  0.34970  0.36560  0.95030  1.0000 0.1299678515
H   H142      1.0  0.84970  0.63440  0.54970  1.0000 0.1299678515
H   H143      1.0  0.65030  0.13440  0.45030  1.0000 0.1299678515
H   H144      1.0  0.15030  0.86560  0.04970  1.0000 0.1299678515
H   H145      1.0  0.63790  0.71430  0.01320  1.0000 0.1299678515
H   H146      1.0  0.13790  0.28570  0.48680  1.0000 0.1299678515
H   H147      1.0  0.36210  0.78570  0.51320  1.0000 0.1299678515
H   H148      1.0  0.86210  0.21430  0.98680  1.0000 0.1299678515
H   H149      1.0  0.36210  0.28570  0.98680  1.0000 0.1299678515
H   H150      1.0  0.86210  0.71430  0.51320  1.0000 0.1299678515
H   H151      1.0  0.63790  0.21430  0.48680  1.0000 0.1299678515
H   H152      1.0  0.13790  0.78570  0.01320  1.0000 0.1299678515
H   H153      1.0  0.64290  0.79320  0.97540  1.0000 0.1299678515
H   H154      1.0  0.14290  0.20680  0.52460  1.0000 0.1299678515
H   H155      1.0  0.35710  0.70680  0.47540  1.0000 0.1299678515
H   H156      1.0  0.85710  0.29320  0.02460  1.0000 0.1299678515
H   H157      1.0  0.35710  0.20680  0.02460  1.0000 0.1299678515
H   H158      1.0  0.85710  0.79320  0.47540  1.0000 0.1299678515
H   H159      1.0  0.64290  0.29320  0.52460  1.0000 0.1299678515
H   H160      1.0  0.14290  0.70680  0.97540  1.0000 0.1299678515
H   H161      1.0  0.65880  0.86100  0.93540  1.0000 0.1376082742
H   H162      1.0  0.15880  0.13900  0.56460  1.0000 0.1376082742
H   H163      1.0  0.34120  0.63900  0.43540  1.0000 0.1376082742
H   H164      1.0  0.84120  0.36100  0.06460  1.0000 0.1376082742
H   H165      1.0  0.34120  0.13900  0.06460  1.0000 0.1376082742
H   H166      1.0  0.84120  0.86100  0.43540  1.0000 0.1376082742
H   H167      1.0  0.65880  0.36100  0.56460  1.0000 0.1376082742
H   H168      1.0  0.15880  0.63900  0.93540  1.0000 0.1376082742
H   H169      1.0  0.87310  0.83800  0.94500  1.0000 0.1210785865
H   H170      1.0  0.37310  0.16200  0.55500  1.0000 0.1210785865
H   H171      1.0  0.12690  0.66200  0.44500  1.0000 0.1210785865
H   H172      1.0  0.62690  0.33800  0.05500  1.0000 0.1210785865
H   H173      1.0  0.12690  0.16200  0.05500  1.0000 0.1210785865
H   H174      1.0  0.62690  0.83800  0.44500  1.0000 0.1210785865
H   H175      1.0  0.87310  0.33800  0.55500  1.0000 0.1210785865
H   H176      1.0  0.37310  0.66200  0.94500  1.0000 0.1210785865
H   H177      1.0  0.50410  0.25800  0.05250  1.0000 0.1210785865
H   H178      1.0  0.00410  0.74200  0.44750  1.0000 0.1210785865
H   H179      1.0  0.49590  0.24200  0.55250  1.0000 0.1210785865
H   H180      1.0  0.99590  0.75800  0.94750  1.0000 0.1210785865
H   H181      1.0  0.49590  0.74200  0.94750  1.0000 0.1210785865
H   H182      1.0  0.99590  0.25800  0.55250  1.0000 0.1210785865
H   H183      1.0  0.50410  0.75800  0.44750  1.0000 0.1210785865
H   H184      1.0  0.00410  0.24200  0.05250  1.0000 0.1210785865
H   H185      1.0  0.37360  0.42580  0.03700  1.0000 0.1299678515
H   H186      1.0  0.87360  0.57420  0.46300  1.0000 0.1299678515
H   H187      1.0  0.62640  0.07420  0.53700  1.0000 0.1299678515
H   H188      1.0  0.12640  0.92580  0.96300  1.0000 0.1299678515
H   H189      1.0  0.62640  0.57420  0.96300  1.0000 0.1299678515
H   H190      1.0  0.12640  0.42580  0.53700  1.0000 0.1299678515
H   H191      1.0  0.37360  0.92580  0.46300  1.0000 0.1299678515
H   H192      1.0  0.87360  0.07420  0.03700  1.0000 0.1299678515
H   H193      1.0  0.43720  0.44690  0.99700  1.0000 0.1376082742
H   H194      1.0  0.93720  0.55310  0.50300  1.0000 0.1376082742
H   H195      1.0  0.56280  0.05310  0.49700  1.0000 0.1376082742
H   H196      1.0  0.06280  0.94690  0.00300  1.0000 0.1376082742
H   H197      1.0  0.56280  0.55310  0.00300  1.0000 0.1376082742
H   H198      1.0  0.06280  0.44690  0.49700  1.0000 0.1376082742
H   H199      1.0  0.43720  0.94690  0.50300  1.0000 0.1376082742
H   H200      1.0  0.93720  0.05310  0.99700  1.0000 0.1376082742
H   H201      1.0  0.50360  0.45970  0.95940  1.0000 0.1376082742
H   H202      1.0  0.00360  0.54030  0.54060  1.0000 0.1376082742
H   H203      1.0  0.49640  0.04030  0.45940  1.0000 0.1376082742
H   H204      1.0  0.99640  0.95970  0.04060  1.0000 0.1376082742
H   H205      1.0  0.49640  0.54030  0.04060  1.0000 0.1376082742
H   H206      1.0  0.99640  0.45970  0.45940  1.0000 0.1376082742
H   H207      1.0  0.50360  0.95970  0.54060  1.0000 0.1376082742
H   H208      1.0  0.00360  0.04030  0.95940  1.0000 0.1376082742
H   H209      1.0  0.58590  0.47470  0.92460  1.0000 0.1376082742
H   H210      1.0  0.08590  0.52530  0.57540  1.0000 0.1376082742
H   H211      1.0  0.41410  0.02530  0.42460  1.0000 0.1376082742
H   H212      1.0  0.91410  0.97470  0.07540  1.0000 0.1376082742
H   H213      1.0  0.41410  0.52530  0.07540  1.0000 0.1376082742
H   H214      1.0  0.91410  0.47470  0.42460  1.0000 0.1376082742
H   H215      1.0  0.58590  0.97470  0.57540  1.0000 0.1376082742
H   H216      1.0  0.08590  0.02530  0.92460  1.0000 0.1376082742
H   H217      1.0  0.70680  0.31580  0.95670  1.0000 0.1210785865
H   H218      1.0  0.20680  0.68420  0.54330  1.0000 0.1210785865
H   H219      1.0  0.29320  0.18420  0.45670  1.0000 0.1210785865
H   H220      1.0  0.79320  0.81580  0.04330  1.0000 0.1210785865
H   H221      1.0  0.29320  0.68420  0.04330  1.0000 0.1210785865
H   H222      1.0  0.79320  0.31580  0.45670  1.0000 0.1210785865
H   H223      1.0  0.70680  0.81580  0.54330  1.0000 0.1210785865
H   H224      1.0  0.20680  0.18420  0.95670  1.0000 0.1210785865
H   H225      1.0  0.85280  0.41980  0.19590  1.0000 0.1210785865
H   H226      1.0  0.35280  0.58020  0.30410  1.0000 0.1210785865
H   H227      1.0  0.14720  0.08020  0.69590  1.0000 0.1210785865
H   H228      1.0  0.64720  0.91980  0.80410  1.0000 0.1210785865
H   H229      1.0  0.14720  0.58020  0.80410  1.0000 0.1210785865
H   H230      1.0  0.64720  0.41980  0.69590  1.0000 0.1210785865
H   H231      1.0  0.85280  0.91980  0.30410  1.0000 0.1210785865
H   H232      1.0  0.35280  0.08020  0.19590  1.0000 0.1210785865
H   H233      1.0  0.86130  0.63230  0.18260  1.0000 0.1299678515
H   H234      1.0  0.36130  0.36770  0.31740  1.0000 0.1299678515
H   H235      1.0  0.13870  0.86770  0.68260  1.0000 0.1299678515
H   H236      1.0  0.63870  0.13230  0.81740  1.0000 0.1299678515
H   H237      1.0  0.13870  0.36770  0.81740  1.0000 0.1299678515
H   H238      1.0  0.63870  0.63230  0.68260  1.0000 0.1299678515
H   H239      1.0  0.86130  0.13230  0.31740  1.0000 0.1299678515
H   H240      1.0  0.36130  0.86770  0.18260  1.0000 0.1299678515
H   H241      1.0  0.92830  0.64450  0.22280  1.0000 0.1210785865
H   H242      1.0  0.42830  0.35550  0.27720  1.0000 0.1210785865
H   H243      1.0  0.07170  0.85550  0.72280  1.0000 0.1210785865
H   H244      1.0  0.57170  0.14450  0.77720  1.0000 0.1210785865
H   H245      1.0  0.07170  0.35550  0.77720  1.0000 0.1210785865
H   H246      1.0  0.57170  0.64450  0.72280  1.0000 0.1210785865
H   H247      1.0  0.92830  0.14450  0.27720  1.0000 0.1210785865
H   H248      1.0  0.42830  0.85550  0.22280  1.0000 0.1210785865
H   H249      1.0  0.97710  0.64610  0.26570  1.0000 0.1210785865
H   H250      1.0  0.47710  0.35390  0.23430  1.0000 0.1210785865
H   H251      1.0  0.02290  0.85390  0.76570  1.0000 0.1210785865
H   H252      1.0  0.52290  0.14610  0.73430  1.0000 0.1210785865
H   H253      1.0  0.02290  0.35390  0.73430  1.0000 0.1210785865
H   H254      1.0  0.52290  0.64610  0.76570  1.0000 0.1210785865
H   H255      1.0  0.97710  0.14610  0.23430  1.0000 0.1210785865
H   H256      1.0  0.47710  0.85390  0.26570  1.0000 0.1210785865
H   H257      1.0  0.04030  0.63700  0.30670  1.0000 0.1299678515
H   H258      1.0  0.54030  0.36300  0.19330  1.0000 0.1299678515
H   H259      1.0  0.95970  0.86300  0.80670  1.0000 0.1299678515
H   H260      1.0  0.45970  0.13700  0.69330  1.0000 0.1299678515
H   H261      1.0  0.95970  0.36300  0.69330  1.0000 0.1299678515
H   H262      1.0  0.45970  0.63700  0.80670  1.0000 0.1299678515
H   H263      1.0  0.04030  0.13700  0.19330  1.0000 0.1299678515
H   H264      1.0  0.54030  0.86300  0.30670  1.0000 0.1299678515
H   H265      1.0  0.04990  0.42360  0.29530  1.0000 0.1210785865
H   H266      1.0  0.54990  0.57640  0.20470  1.0000 0.1210785865
H   H267      1.0  0.95010  0.07640  0.79530  1.0000 0.1210785865
H   H268      1.0  0.45010  0.92360  0.70470  1.0000 0.1210785865
H   H269      1.0  0.95010  0.57640  0.70470  1.0000 0.1210785865
H   H270      1.0  0.45010  0.42360  0.79530  1.0000 0.1210785865
H   H271      1.0  0.04990  0.92360  0.20470  1.0000 0.1210785865
H   H272      1.0  0.54990  0.07640  0.29530  1.0000 0.1210785865
H   H273      1.0  0.03130  0.45590  0.19340  1.0000 0.1210785865
H   H274      1.0  0.53130  0.54410  0.30660  1.0000 0.1210785865
H   H275      1.0  0.96870  0.04410  0.69340  1.0000 0.1210785865
H   H276      1.0  0.46870  0.95590  0.80660  1.0000 0.1210785865
H   H277      1.0  0.96870  0.54410  0.80660  1.0000 0.1210785865
H   H278      1.0  0.46870  0.45590  0.69340  1.0000 0.1210785865
H   H279      1.0  0.03130  0.95590  0.30660  1.0000 0.1210785865
H   H280      1.0  0.53130  0.04410  0.19340  1.0000 0.1210785865
H   H281      1.0  0.18290  0.31700  0.16760  1.0000 0.1376082742
H   H282      1.0  0.68290  0.68300  0.33240  1.0000 0.1376082742
H   H283      1.0  0.81710  0.18300  0.66760  1.0000 0.1376082742
H   H284      1.0  0.31710  0.81700  0.83240  1.0000 0.1376082742
H   H285      1.0  0.81710  0.68300  0.83240  1.0000 0.1376082742
H   H286      1.0  0.31710  0.31700  0.66760  1.0000 0.1376082742
H   H287      1.0  0.18290  0.81700  0.33240  1.0000 0.1376082742
H   H288      1.0  0.68290  0.18300  0.16760  1.0000 0.1376082742
H   H289      1.0  0.15850  0.24500  0.20530  1.0000 0.1376082742
H   H290      1.0  0.65850  0.75500  0.29470  1.0000 0.1376082742
H   H291      1.0  0.84150  0.25500  0.70530  1.0000 0.1376082742
H   H292      1.0  0.34150  0.74500  0.79470  1.0000 0.1376082742
H   H293      1.0  0.84150  0.75500  0.79470  1.0000 0.1376082742
H   H294      1.0  0.34150  0.24500  0.70530  1.0000 0.1376082742
H   H295      1.0  0.15850  0.74500  0.29470  1.0000 0.1376082742
H   H296      1.0  0.65850  0.25500  0.20530  1.0000 0.1376082742
H   H297      1.0  0.14830  0.19630  0.24570  1.0000 0.1299678515
H   H298      1.0  0.64830  0.80370  0.25430  1.0000 0.1299678515
H   H299      1.0  0.85170  0.30370  0.74570  1.0000 0.1299678515
H   H300      1.0  0.35170  0.69630  0.75430  1.0000 0.1299678515
H   H301      1.0  0.85170  0.80370  0.75430  1.0000 0.1299678515
H   H302      1.0  0.35170  0.19630  0.74570  1.0000 0.1299678515
H   H303      1.0  0.14830  0.69630  0.25430  1.0000 0.1299678515
H   H304      1.0  0.64830  0.30370  0.24570  1.0000 0.1299678515
H   H305      1.0  0.13420  0.15040  0.28980  1.0000 0.1299678515
H   H306      1.0  0.63420  0.84960  0.21020  1.0000 0.1299678515
H   H307      1.0  0.86580  0.34960  0.78980  1.0000 0.1299678515
H   H308      1.0  0.36580  0.65040  0.71020  1.0000 0.1299678515
H   H309      1.0  0.86580  0.84960  0.71020  1.0000 0.1299678515
H   H310      1.0  0.36580  0.15040  0.78980  1.0000 0.1299678515
H   H311      1.0  0.13420  0.65040  0.21020  1.0000 0.1299678515
H   H312      1.0  0.63420  0.34960  0.28980  1.0000 0.1299678515
H   H313      1.0  0.97580  0.29560  0.30200  1.0000 0.1135423817
H   H314      1.0  0.47580  0.70440  0.19800  1.0000 0.1135423817
H   H315      1.0  0.02420  0.20440  0.80200  1.0000 0.1135423817
H   H316      1.0  0.52420  0.79560  0.69800  1.0000 0.1135423817
H   H317      1.0  0.02420  0.70440  0.69800  1.0000 0.1135423817
H   H318      1.0  0.52420  0.29560  0.80200  1.0000 0.1135423817
H   H319      1.0  0.97580  0.79560  0.19800  1.0000 0.1135423817
H   H320      1.0  0.47580  0.20440  0.30200  1.0000 0.1135423817
H   H321      1.0  0.38060  0.55400  0.20110  1.0000 0.1210785865
H   H322      1.0  0.88060  0.44600  0.29890  1.0000 0.1210785865
H   H323      1.0  0.61940  0.94600  0.70110  1.0000 0.1210785865
H   H324      1.0  0.11940  0.05400  0.79890  1.0000 0.1210785865
H   H325      1.0  0.61940  0.44600  0.79890  1.0000 0.1210785865
H   H326      1.0  0.11940  0.55400  0.70110  1.0000 0.1210785865
H   H327      1.0  0.38060  0.05400  0.29890  1.0000 0.1210785865
H   H328      1.0  0.88060  0.94600  0.20110  1.0000 0.1210785865
H   H329      1.0  0.24460  0.70600  0.17330  1.0000 0.1376082742
H   H330      1.0  0.74460  0.29400  0.32670  1.0000 0.1376082742
H   H331      1.0  0.75540  0.79400  0.67330  1.0000 0.1376082742
H   H332      1.0  0.25540  0.20600  0.82670  1.0000 0.1376082742
H   H333      1.0  0.75540  0.29400  0.82670  1.0000 0.1376082742
H   H334      1.0  0.25540  0.70600  0.67330  1.0000 0.1376082742
H   H335      1.0  0.24460  0.20600  0.32670  1.0000 0.1376082742
H   H336      1.0  0.74460  0.79400  0.17330  1.0000 0.1376082742
H   H337      1.0  0.26700  0.77200  0.21320  1.0000 0.1376082742
H   H338      1.0  0.76700  0.22800  0.28680  1.0000 0.1376082742
H   H339      1.0  0.73300  0.72800  0.71320  1.0000 0.1376082742
H   H340      1.0  0.23300  0.27200  0.78680  1.0000 0.1376082742
H   H341      1.0  0.73300  0.22800  0.78680  1.0000 0.1376082742
H   H342      1.0  0.23300  0.77200  0.71320  1.0000 0.1376082742
H   H343      1.0  0.26700  0.27200  0.28680  1.0000 0.1376082742
H   H344      1.0  0.76700  0.72800  0.21320  1.0000 0.1376082742
H   H345      1.0  0.27940  0.81970  0.25380  1.0000 0.1299678515
H   H346      1.0  0.77940  0.18030  0.24620  1.0000 0.1299678515
H   H347      1.0  0.72060  0.68030  0.75380  1.0000 0.1299678515
H   H348      1.0  0.22060  0.31970  0.74620  1.0000 0.1299678515
H   H349      1.0  0.72060  0.18030  0.74620  1.0000 0.1299678515
H   H350      1.0  0.22060  0.81970  0.75380  1.0000 0.1299678515
H   H351      1.0  0.27940  0.31970  0.24620  1.0000 0.1299678515
H   H352      1.0  0.77940  0.68030  0.25380  1.0000 0.1299678515
H   H353      1.0  0.30090  0.86560  0.29780  1.0000 0.1376082742
H   H354      1.0  0.80090  0.13440  0.20220  1.0000 0.1376082742
H   H355      1.0  0.69910  0.63440  0.79780  1.0000 0.1376082742
H   H356      1.0  0.19910  0.36560  0.70220  1.0000 0.1376082742
H   H357      1.0  0.69910  0.13440  0.70220  1.0000 0.1376082742
H   H358      1.0  0.19910  0.86560  0.79780  1.0000 0.1376082742
H   H359      1.0  0.30090  0.36560  0.20220  1.0000 0.1376082742
H   H360      1.0  0.80090  0.63440  0.29780  1.0000 0.1376082742
H   H361      1.0  0.44030  0.70460  0.31040  1.0000 0.1210785865
H   H362      1.0  0.94030  0.29540  0.18960  1.0000 0.1210785865
H   H363      1.0  0.55970  0.79540  0.81040  1.0000 0.1210785865
H   H364      1.0  0.05970  0.20460  0.68960  1.0000 0.1210785865
H   H365      1.0  0.55970  0.29540  0.68960  1.0000 0.1210785865
H   H366      1.0  0.05970  0.70460  0.81040  1.0000 0.1210785865
H   H367      1.0  0.44030  0.20460  0.18960  1.0000 0.1210785865
H   H368      1.0  0.94030  0.79540  0.31040  1.0000 0.1210785865
C   C1        1.0  0.92670  0.25610  0.91261  1.0000 0.5861329842
C   C2        1.0  0.42670  0.74390  0.58739  1.0000 0.5861329842
C   C3        1.0  0.07330  0.24390  0.41261  1.0000 0.5861329842
C   C4        1.0  0.57330  0.75610  0.08739  1.0000 0.5861329842
C   C5        1.0  0.07330  0.74390  0.08739  1.0000 0.5861329842
C   C6        1.0  0.57330  0.25610  0.41261  1.0000 0.5861329842
C   C7        1.0  0.92670  0.75610  0.58739  1.0000 0.5861329842
C   C8        1.0  0.42670  0.24390  0.91261  1.0000 0.5861329842
C   C9        1.0  0.00970  0.26350  0.95314  1.0000 0.0392863681
C   C10       1.0  0.50970  0.73650  0.54686  1.0000 0.0392863681
C   C11       1.0  0.99030  0.23650  0.45314  1.0000 0.0392863681
C   C12       1.0  0.49030  0.76350  0.04686  1.0000 0.0392863681
C   C13       1.0  0.99030  0.73650  0.04686  1.0000 0.0392863681
C   C14       1.0  0.49030  0.26350  0.45314  1.0000 0.0392863681
C   C15       1.0  0.00970  0.76350  0.54686  1.0000 0.0392863681
C   C16       1.0  0.50970  0.23650  0.95314  1.0000 0.0392863681
C   C17       1.0  0.95020  0.29090  0.93962  1.0000 -0.0614229871
C   C18       1.0  0.45020  0.70910  0.56038  1.0000 -0.0614229871
C   C19       1.0  0.04980  0.20910  0.43962  1.0000 -0.0614229871
C   C20       1.0  0.54980  0.79090  0.06038  1.0000 -0.0614229871
C   C21       1.0  0.04980  0.70910  0.06038  1.0000 -0.0614229871
C   C22       1.0  0.54980  0.29090  0.43962  1.0000 -0.0614229871
C   C23       1.0  0.95020  0.79090  0.56038  1.0000 -0.0614229871
C   C24       1.0  0.45020  0.20910  0.93962  1.0000 -0.0614229871
C   C25       1.0  0.91010  0.34680  0.95141  1.0000 -0.0614229871
C   C26       1.0  0.41010  0.65320  0.54859  1.0000 -0.0614229871
C   C27       1.0  0.08990  0.15320  0.45141  1.0000 -0.0614229871
C   C28       1.0  0.58990  0.84680  0.04859  1.0000 -0.0614229871
C   C29       1.0  0.08990  0.65320  0.04859  1.0000 -0.0614229871
C   C30       1.0  0.58990  0.34680  0.45141  1.0000 -0.0614229871
C   C31       1.0  0.91010  0.84680  0.54859  1.0000 -0.0614229871
C   C32       1.0  0.41010  0.15320  0.95141  1.0000 -0.0614229871
C   C33       1.0  0.93300  0.37290  0.97670  1.0000 -0.1602575346
C   C34       1.0  0.43300  0.62710  0.52330  1.0000 -0.1602575346
C   C35       1.0  0.06700  0.12710  0.47670  1.0000 -0.1602575346
C   C36       1.0  0.56700  0.87290  0.02330  1.0000 -0.1602575346
C   C37       1.0  0.06700  0.62710  0.02330  1.0000 -0.1602575346
C   C38       1.0  0.56700  0.37290  0.47670  1.0000 -0.1602575346
C   C39       1.0  0.93300  0.87290  0.52330  1.0000 -0.1602575346
C   C40       1.0  0.43300  0.12710  0.97670  1.0000 -0.1602575346
C   C41       1.0  0.99400  0.34370  0.98946  1.0000 0.1527473367
C   C42       1.0  0.49400  0.65630  0.51054  1.0000 0.1527473367
C   C43       1.0  0.00600  0.15630  0.48946  1.0000 0.1527473367
C   C44       1.0  0.50600  0.84370  0.01054  1.0000 0.1527473367
C   C45       1.0  0.00600  0.65630  0.01054  1.0000 0.1527473367
C   C46       1.0  0.50600  0.34370  0.48946  1.0000 0.1527473367
C   C47       1.0  0.99400  0.84370  0.51054  1.0000 0.1527473367
C   C48       1.0  0.49400  0.15630  0.98946  1.0000 0.1527473367
C   C49       1.0  0.02620  0.37120  0.01472  1.0000 0.1633314387
C   C50       1.0  0.52620  0.62880  0.48528  1.0000 0.1633314387
C   C51       1.0  0.97380  0.12880  0.51472  1.0000 0.1633314387
C   C52       1.0  0.47380  0.87120  0.98528  1.0000 0.1633314387
C   C53       1.0  0.97380  0.62880  0.98528  1.0000 0.1633314387
C   C54       1.0  0.47380  0.37120  0.51472  1.0000 0.1633314387
C   C55       1.0  0.02620  0.87120  0.48528  1.0000 0.1633314387
C   C56       1.0  0.52620  0.12880  0.01472  1.0000 0.1633314387
C   C57       1.0  0.00290  0.43240  0.02906  1.0000 -0.1533226757
C   C58       1.0  0.50290  0.56760  0.47094  1.0000 -0.1533226757
C   C59       1.0  0.99710  0.06760  0.52906  1.0000 -0.1533226757
C   C60       1.0  0.49710  0.93240  0.97094  1.0000 -0.1533226757
C   C61       1.0  0.99710  0.56760  0.97094  1.0000 -0.1533226757
C   C62       1.0  0.49710  0.43240  0.52906  1.0000 -0.1533226757
C   C63       1.0  0.00290  0.93240  0.47094  1.0000 -0.1533226757
C   C64       1.0  0.50290  0.06760  0.02906  1.0000 -0.1533226757
C   C65       1.0  0.04260  0.45810  0.05090  1.0000 -0.0506669905
C   C66       1.0  0.54260  0.54190  0.44910  1.0000 -0.0506669905
C   C67       1.0  0.95740  0.04190  0.55090  1.0000 -0.0506669905
C   C68       1.0  0.45740  0.95810  0.94910  1.0000 -0.0506669905
C   C69       1.0  0.95740  0.54190  0.94910  1.0000 -0.0506669905
C   C70       1.0  0.45740  0.45810  0.55090  1.0000 -0.0506669905
C   C71       1.0  0.04260  0.95810  0.44910  1.0000 -0.0506669905
C   C72       1.0  0.54260  0.04190  0.05090  1.0000 -0.0506669905
C   C73       1.0  0.10590  0.42300  0.05831  1.0000 -0.0506669905
C   C74       1.0  0.60590  0.57700  0.44169  1.0000 -0.0506669905
C   C75       1.0  0.89410  0.07700  0.55831  1.0000 -0.0506669905
C   C76       1.0  0.39410  0.92300  0.94169  1.0000 -0.0506669905
C   C77       1.0  0.89410  0.57700  0.94169  1.0000 -0.0506669905
C   C78       1.0  0.39410  0.42300  0.55831  1.0000 -0.0506669905
C   C79       1.0  0.10590  0.92300  0.44169  1.0000 -0.0506669905
C   C80       1.0  0.60590  0.07700  0.05831  1.0000 -0.0506669905
C   C81       1.0  0.12590  0.35980  0.04449  1.0000 0.0780475796
C   C82       1.0  0.62590  0.64020  0.45551  1.0000 0.0780475796
C   C83       1.0  0.87410  0.14020  0.54449  1.0000 0.0780475796
C   C84       1.0  0.37410  0.85980  0.95551  1.0000 0.0780475796
C   C85       1.0  0.87410  0.64020  0.95551  1.0000 0.0780475796
C   C86       1.0  0.37410  0.35980  0.54449  1.0000 0.0780475796
C   C87       1.0  0.12590  0.85980  0.45551  1.0000 0.0780475796
C   C88       1.0  0.62590  0.14020  0.04449  1.0000 0.0780475796
C   C89       1.0  0.15420  0.45070  0.08106  1.0000 0.6205270298
C   C90       1.0  0.65420  0.54930  0.41894  1.0000 0.6205270298
C   C91       1.0  0.84580  0.04930  0.58106  1.0000 0.6205270298
C   C92       1.0  0.34580  0.95070  0.91894  1.0000 0.6205270298
C   C93       1.0  0.84580  0.54930  0.91894  1.0000 0.6205270298
C   C94       1.0  0.34580  0.45070  0.58106  1.0000 0.6205270298
C   C95       1.0  0.15420  0.95070  0.41894  1.0000 0.6205270298
C   C96       1.0  0.65420  0.04930  0.08106  1.0000 0.6205270298
C   C97       1.0  0.77370  0.57300  0.07120  1.0000 0.5809706035
C   C98       1.0  0.27370  0.42700  0.42880  1.0000 0.5809706035
C   C99       1.0  0.22630  0.92700  0.57120  1.0000 0.5809706035
C   C100      1.0  0.72630  0.07300  0.92880  1.0000 0.5809706035
C   C101      1.0  0.22630  0.42700  0.92880  1.0000 0.5809706035
C   C102      1.0  0.72630  0.57300  0.57120  1.0000 0.5809706035
C   C103      1.0  0.77370  0.07300  0.42880  1.0000 0.5809706035
C   C104      1.0  0.27370  0.92700  0.07120  1.0000 0.5809706035
C   C105      1.0  0.81910  0.65500  0.03468  1.0000 0.0688579253
C   C106      1.0  0.31910  0.34500  0.46532  1.0000 0.0688579253
C   C107      1.0  0.18090  0.84500  0.53468  1.0000 0.0688579253
C   C108      1.0  0.68090  0.15500  0.96532  1.0000 0.0688579253
C   C109      1.0  0.18090  0.34500  0.96532  1.0000 0.0688579253
C   C110      1.0  0.68090  0.65500  0.53468  1.0000 0.0688579253
C   C111      1.0  0.81910  0.15500  0.46532  1.0000 0.0688579253
C   C112      1.0  0.31910  0.84500  0.03468  1.0000 0.0688579253
C   C113      1.0  0.75890  0.62640  0.04808  1.0000 -0.0311733349
C   C114      1.0  0.25890  0.37360  0.45192  1.0000 -0.0311733349
C   C115      1.0  0.24110  0.87360  0.54808  1.0000 -0.0311733349
C   C116      1.0  0.74110  0.12640  0.95192  1.0000 -0.0311733349
C   C117      1.0  0.24110  0.37360  0.95192  1.0000 -0.0311733349
C   C118      1.0  0.74110  0.62640  0.54808  1.0000 -0.0311733349
C   C119      1.0  0.75890  0.12640  0.45192  1.0000 -0.0311733349
C   C120      1.0  0.25890  0.87360  0.04808  1.0000 -0.0311733349
C   C121      1.0  0.69110  0.65050  0.04051  1.0000 -0.0410684841
C   C122      1.0  0.19110  0.34950  0.45949  1.0000 -0.0410684841
C   C123      1.0  0.30890  0.84950  0.54051  1.0000 -0.0410684841
C   C124      1.0  0.80890  0.15050  0.95949  1.0000 -0.0410684841
C   C125      1.0  0.30890  0.34950  0.95949  1.0000 -0.0410684841
C   C126      1.0  0.80890  0.65050  0.54051  1.0000 -0.0410684841
C   C127      1.0  0.69110  0.15050  0.45949  1.0000 -0.0410684841
C   C128      1.0  0.19110  0.84950  0.04051  1.0000 -0.0410684841
C   C129      1.0  0.68350  0.69940  0.01885  1.0000 -0.1602575346
C   C130      1.0  0.18350  0.30060  0.48115  1.0000 -0.1602575346
C   C131      1.0  0.31650  0.80060  0.51885  1.0000 -0.1602575346
C   C132      1.0  0.81650  0.19940  0.98115  1.0000 -0.1602575346
C   C133      1.0  0.31650  0.30060  0.98115  1.0000 -0.1602575346
C   C134      1.0  0.81650  0.69940  0.51885  1.0000 -0.1602575346
C   C135      1.0  0.68350  0.19940  0.48115  1.0000 -0.1602575346
C   C136      1.0  0.18350  0.80060  0.01885  1.0000 -0.1602575346
C   C137      1.0  0.74580  0.72510  0.00613  1.0000 0.1705610593
C   C138      1.0  0.24580  0.27490  0.49387  1.0000 0.1705610593
C   C139      1.0  0.25420  0.77490  0.50613  1.0000 0.1705610593
C   C140      1.0  0.75420  0.22510  0.99387  1.0000 0.1705610593
C   C141      1.0  0.25420  0.27490  0.99387  1.0000 0.1705610593
C   C142      1.0  0.75420  0.72510  0.50613  1.0000 0.1705610593
C   C143      1.0  0.74580  0.22510  0.49387  1.0000 0.1705610593
C   C144      1.0  0.24580  0.77490  0.00613  1.0000 0.1705610593
C   C145      1.0  0.74770  0.77430  0.98208  1.0000 0.1527473367
C   C146      1.0  0.24770  0.22570  0.51792  1.0000 0.1527473367
C   C147      1.0  0.25230  0.72570  0.48208  1.0000 0.1527473367
C   C148      1.0  0.75230  0.27430  0.01792  1.0000 0.1527473367
C   C149      1.0  0.25230  0.22570  0.01792  1.0000 0.1527473367
C   C150      1.0  0.75230  0.77430  0.48208  1.0000 0.1527473367
C   C151      1.0  0.74770  0.27430  0.51792  1.0000 0.1527473367
C   C152      1.0  0.24770  0.72570  0.98208  1.0000 0.1527473367
C   C153      1.0  0.68920  0.80160  0.96873  1.0000 -0.1533226757
C   C154      1.0  0.18920  0.19840  0.53127  1.0000 -0.1533226757
C   C155      1.0  0.31080  0.69840  0.46873  1.0000 -0.1533226757
C   C156      1.0  0.81080  0.30160  0.03127  1.0000 -0.1533226757
C   C157      1.0  0.31080  0.19840  0.03127  1.0000 -0.1533226757
C   C158      1.0  0.81080  0.80160  0.46873  1.0000 -0.1533226757
C   C159      1.0  0.68920  0.30160  0.53127  1.0000 -0.1533226757
C   C160      1.0  0.18920  0.69840  0.96873  1.0000 -0.1533226757
C   C161      1.0  0.69860  0.84280  0.94472  1.0000 -0.0214768033
C   C162      1.0  0.19860  0.15720  0.55528  1.0000 -0.0214768033
C   C163      1.0  0.30140  0.65720  0.44472  1.0000 -0.0214768033
C   C164      1.0  0.80140  0.34280  0.05528  1.0000 -0.0214768033
C   C165      1.0  0.30140  0.15720  0.05528  1.0000 -0.0214768033
C   C166      1.0  0.80140  0.84280  0.44472  1.0000 -0.0214768033
C   C167      1.0  0.69860  0.34280  0.55528  1.0000 -0.0214768033
C   C168      1.0  0.19860  0.65720  0.94472  1.0000 -0.0214768033
C   C169      1.0  0.76840  0.85540  0.93548  1.0000 -0.0311733349
C   C170      1.0  0.26840  0.14460  0.56452  1.0000 -0.0311733349
C   C171      1.0  0.23160  0.64460  0.43548  1.0000 -0.0311733349
C   C172      1.0  0.73160  0.35540  0.06452  1.0000 -0.0311733349
C   C173      1.0  0.23160  0.14460  0.06452  1.0000 -0.0311733349
C   C174      1.0  0.73160  0.85540  0.43548  1.0000 -0.0311733349
C   C175      1.0  0.76840  0.35540  0.56452  1.0000 -0.0311733349
C   C176      1.0  0.26840  0.64460  0.93548  1.0000 -0.0311733349
C   C177      1.0  0.82620  0.82830  0.95076  1.0000 0.0688579253
C   C178      1.0  0.32620  0.17170  0.54924  1.0000 0.0688579253
C   C179      1.0  0.17380  0.67170  0.45076  1.0000 0.0688579253
C   C180      1.0  0.67380  0.32830  0.04924  1.0000 0.0688579253
C   C181      1.0  0.17380  0.17170  0.04924  1.0000 0.0688579253
C   C182      1.0  0.67380  0.82830  0.45076  1.0000 0.0688579253
C   C183      1.0  0.82620  0.32830  0.54924  1.0000 0.0688579253
C   C184      1.0  0.32620  0.67170  0.95076  1.0000 0.0688579253
C   C185      1.0  0.78450  0.89980  0.91005  1.0000 0.5600560462
C   C186      1.0  0.28450  0.10020  0.58995  1.0000 0.5600560462
C   C187      1.0  0.21550  0.60020  0.41005  1.0000 0.5600560462
C   C188      1.0  0.71550  0.39980  0.08995  1.0000 0.5600560462
C   C189      1.0  0.21550  0.10020  0.08995  1.0000 0.5600560462
C   C190      1.0  0.71550  0.89980  0.41005  1.0000 0.5600560462
C   C191      1.0  0.78450  0.39980  0.58995  1.0000 0.5600560462
C   C192      1.0  0.28450  0.60020  0.91005  1.0000 0.5600560462
C   C193      1.0  0.39220  0.32880  0.07652  1.0000 0.5809706035
C   C194      1.0  0.89220  0.67120  0.42348  1.0000 0.5809706035
C   C195      1.0  0.60780  0.17120  0.57652  1.0000 0.5809706035
C   C196      1.0  0.10780  0.82880  0.92348  1.0000 0.5809706035
C   C197      1.0  0.60780  0.67120  0.92348  1.0000 0.5809706035
C   C198      1.0  0.10780  0.32880  0.57652  1.0000 0.5809706035
C   C199      1.0  0.39220  0.82880  0.42348  1.0000 0.5809706035
C   C200      1.0  0.89220  0.17120  0.07652  1.0000 0.5809706035
C   C201      1.0  0.49140  0.29730  0.04174  1.0000 0.0301408701
C   C202      1.0  0.99140  0.70270  0.45826  1.0000 0.0301408701
C   C203      1.0  0.50860  0.20270  0.54174  1.0000 0.0301408701
C   C204      1.0  0.00860  0.79730  0.95826  1.0000 0.0301408701
C   C205      1.0  0.50860  0.70270  0.95826  1.0000 0.0301408701
C   C206      1.0  0.00860  0.29730  0.54174  1.0000 0.0301408701
C   C207      1.0  0.49140  0.79730  0.45826  1.0000 0.0301408701
C   C208      1.0  0.99140  0.20270  0.04174  1.0000 0.0301408701
C   C209      1.0  0.43390  0.34100  0.04985  1.0000 -0.0506669905
C   C210      1.0  0.93390  0.65900  0.45015  1.0000 -0.0506669905
C   C211      1.0  0.56610  0.15900  0.54985  1.0000 -0.0506669905
C   C212      1.0  0.06610  0.84100  0.95015  1.0000 -0.0506669905
C   C213      1.0  0.56610  0.65900  0.95015  1.0000 -0.0506669905
C   C214      1.0  0.06610  0.34100  0.54985  1.0000 -0.0506669905
C   C215      1.0  0.43390  0.84100  0.45015  1.0000 -0.0506669905
C   C216      1.0  0.93390  0.15900  0.04985  1.0000 -0.0506669905
C   C217      1.0  0.41310  0.39690  0.03253  1.0000 -0.0410684841
C   C218      1.0  0.91310  0.60310  0.46747  1.0000 -0.0410684841
C   C219      1.0  0.58690  0.10310  0.53253  1.0000 -0.0410684841
C   C220      1.0  0.08690  0.89690  0.96747  1.0000 -0.0410684841
C   C221      1.0  0.58690  0.60310  0.96747  1.0000 -0.0410684841
C   C222      1.0  0.08690  0.39690  0.53253  1.0000 -0.0410684841
C   C223      1.0  0.41310  0.89690  0.46747  1.0000 -0.0410684841
C   C224      1.0  0.91310  0.10310  0.03253  1.0000 -0.0410684841
C   C225      1.0  0.45130  0.40990  0.00857  1.0000 -0.1708454409
C   C226      1.0  0.95130  0.59010  0.49143  1.0000 -0.1708454409
C   C227      1.0  0.54870  0.09010  0.50857  1.0000 -0.1770527881
C   C228      1.0  0.04870  0.90990  0.99143  1.0000 -0.1708454409
C   C229      1.0  0.54870  0.59010  0.99143  1.0000 -0.1770527881
C   C230      1.0  0.04870  0.40990  0.50857  1.0000 -0.1708454409
C   C231      1.0  0.45130  0.90990  0.49143  1.0000 -0.1708454409
C   C232      1.0  0.95130  0.09010  0.00857  1.0000 -0.1708454409
C   C233      1.0  0.51010  0.36740  0.00233  1.0000 0.1527473367
C   C234      1.0  0.01010  0.63260  0.49767  1.0000 0.1527473367
C   C235      1.0  0.48990  0.13260  0.50233  1.0000 0.1527473367
C   C236      1.0  0.98990  0.86740  0.99767  1.0000 0.1633314387
C   C237      1.0  0.48990  0.63260  0.99767  1.0000 0.1527473367
C   C238      1.0  0.98990  0.36740  0.50233  1.0000 0.1633314387
C   C239      1.0  0.51010  0.86740  0.49767  1.0000 0.1527473367
C   C240      1.0  0.01010  0.13260  0.00233  1.0000 0.1527473367
C   C241      1.0  0.55720  0.37970  0.97878  1.0000 0.1527473367
C   C242      1.0  0.05720  0.62030  0.52122  1.0000 0.1527473367
C   C243      1.0  0.44280  0.12030  0.47878  1.0000 0.1527473367
C   C244      1.0  0.94280  0.87970  0.02122  1.0000 0.1527473367
C   C245      1.0  0.44280  0.62030  0.02122  1.0000 0.1527473367
C   C246      1.0  0.94280  0.37970  0.47878  1.0000 0.1527473367
C   C247      1.0  0.55720  0.87970  0.52122  1.0000 0.1527473367
C   C248      1.0  0.05720  0.12030  0.97878  1.0000 0.1527473367
C   C249      1.0  0.54500  0.43120  0.95879  1.0000 -0.1708454409
C   C250      1.0  0.04500  0.56880  0.54121  1.0000 -0.1708454409
C   C251      1.0  0.45500  0.06880  0.45879  1.0000 -0.1708454409
C   C252      1.0  0.95500  0.93120  0.04121  1.0000 -0.1708454409
C   C253      1.0  0.45500  0.56880  0.04121  1.0000 -0.1708454409
C   C254      1.0  0.95500  0.43120  0.45879  1.0000 -0.1708454409
C   C255      1.0  0.54500  0.93120  0.54121  1.0000 -0.1708454409
C   C256      1.0  0.04500  0.06880  0.95879  1.0000 -0.1708454409
C   C257      1.0  0.59450  0.44030  0.93797  1.0000 -0.0506669905
C   C258      1.0  0.09450  0.55970  0.56203  1.0000 -0.0506669905
C   C259      1.0  0.40550  0.05970  0.43797  1.0000 -0.0506669905
C   C260      1.0  0.90550  0.94030  0.06203  1.0000 -0.0506669905
C   C261      1.0  0.40550  0.55970  0.06203  1.0000 -0.0506669905
C   C262      1.0  0.90550  0.44030  0.43797  1.0000 -0.0506669905
C   C263      1.0  0.59450  0.94030  0.56203  1.0000 -0.0506669905
C   C264      1.0  0.09450  0.05970  0.93797  1.0000 -0.0506669905
C   C265      1.0  0.65710  0.39820  0.93686  1.0000 -0.0410684841
C   C266      1.0  0.15710  0.60180  0.56314  1.0000 -0.0410684841
C   C267      1.0  0.34290  0.10180  0.43686  1.0000 -0.0410684841
C   C268      1.0  0.84290  0.89820  0.06314  1.0000 -0.0410684841
C   C269      1.0  0.34290  0.60180  0.06314  1.0000 -0.0410684841
C   C270      1.0  0.84290  0.39820  0.43686  1.0000 -0.0410684841
C   C271      1.0  0.65710  0.89820  0.56314  1.0000 -0.0410684841
C   C272      1.0  0.15710  0.10180  0.93686  1.0000 -0.0410684841
C   C273      1.0  0.66590  0.34520  0.95720  1.0000 0.0780475796
C   C274      1.0  0.16590  0.65480  0.54280  1.0000 0.0780475796
C   C275      1.0  0.33410  0.15480  0.45720  1.0000 0.0780475796
C   C276      1.0  0.83410  0.84520  0.04280  1.0000 0.0780475796
C   C277      1.0  0.33410  0.65480  0.04280  1.0000 0.0780475796
C   C278      1.0  0.83410  0.34520  0.45720  1.0000 0.0780475796
C   C279      1.0  0.66590  0.84520  0.54280  1.0000 0.0780475796
C   C280      1.0  0.16590  0.15480  0.95720  1.0000 0.0780475796
C   C281      1.0  0.71400  0.41390  0.91499  1.0000 0.6205270298
C   C282      1.0  0.21400  0.58610  0.58501  1.0000 0.6205270298
C   C283      1.0  0.28600  0.08610  0.41499  1.0000 0.6205270298
C   C284      1.0  0.78600  0.91390  0.08501  1.0000 0.6205270298
C   C285      1.0  0.28600  0.58610  0.08501  1.0000 0.6205270298
C   C286      1.0  0.78600  0.41390  0.41499  1.0000 0.6205270298
C   C287      1.0  0.71400  0.91390  0.58501  1.0000 0.6205270298
C   C288      1.0  0.21400  0.08610  0.91499  1.0000 0.6205270298
C   C289      1.0  0.79640  0.51590  0.16150  1.0000 0.5600560462
C   C290      1.0  0.29640  0.48410  0.33850  1.0000 0.5600560462
C   C291      1.0  0.20360  0.98410  0.66150  1.0000 0.5600560462
C   C292      1.0  0.70360  0.01590  0.83850  1.0000 0.5600560462
C   C293      1.0  0.20360  0.48410  0.83850  1.0000 0.5600560462
C   C294      1.0  0.70360  0.51590  0.66150  1.0000 0.5600560462
C   C295      1.0  0.79640  0.01590  0.33850  1.0000 0.5600560462
C   C296      1.0  0.29640  0.98410  0.16150  1.0000 0.5600560462
C   C297      1.0  0.86850  0.46540  0.20118  1.0000 0.0688579253
C   C298      1.0  0.36850  0.53460  0.29882  1.0000 0.0688579253
C   C299      1.0  0.13150  0.03460  0.70118  1.0000 0.0688579253
C   C300      1.0  0.63150  0.96540  0.79882  1.0000 0.0688579253
C   C301      1.0  0.13150  0.53460  0.79882  1.0000 0.0688579253
C   C302      1.0  0.63150  0.46540  0.70118  1.0000 0.0688579253
C   C303      1.0  0.86850  0.96540  0.29882  1.0000 0.0688579253
C   C304      1.0  0.36850  0.03460  0.20118  1.0000 0.0688579253
C   C305      1.0  0.84710  0.52480  0.18555  1.0000 -0.0410684841
C   C306      1.0  0.34710  0.47520  0.31445  1.0000 -0.0410684841
C   C307      1.0  0.15290  0.97520  0.68555  1.0000 -0.0410684841
C   C308      1.0  0.65290  0.02480  0.81445  1.0000 -0.0410684841
C   C309      1.0  0.15290  0.47520  0.81445  1.0000 -0.0410684841
C   C310      1.0  0.65290  0.52480  0.68555  1.0000 -0.0410684841
C   C311      1.0  0.84710  0.02480  0.31445  1.0000 -0.0410684841
C   C312      1.0  0.34710  0.97520  0.18555  1.0000 -0.0410684841
C   C313      1.0  0.87180  0.59200  0.19315  1.0000 -0.0506669905
C   C314      1.0  0.37180  0.40800  0.30685  1.0000 -0.0506669905
C   C315      1.0  0.12820  0.90800  0.69315  1.0000 -0.0506669905
C   C316      1.0  0.62820  0.09200  0.80685  1.0000 -0.0506669905
C   C317      1.0  0.12820  0.40800  0.80685  1.0000 -0.0506669905
C   C318      1.0  0.62820  0.59200  0.69315  1.0000 -0.0506669905
C   C319      1.0  0.87180  0.09200  0.30685  1.0000 -0.0506669905
C   C320      1.0  0.37180  0.90800  0.19315  1.0000 -0.0506669905
C   C321      1.0  0.91320  0.59910  0.21707  1.0000 -0.1770527881
C   C322      1.0  0.41320  0.40090  0.28293  1.0000 -0.1770527881
C   C323      1.0  0.08680  0.90090  0.71707  1.0000 -0.1770527881
C   C324      1.0  0.58680  0.09910  0.78293  1.0000 -0.1770527881
C   C325      1.0  0.08680  0.40090  0.78293  1.0000 -0.1770527881
C   C326      1.0  0.58680  0.59910  0.71707  1.0000 -0.1770527881
C   C327      1.0  0.91320  0.09910  0.28293  1.0000 -0.1770527881
C   C328      1.0  0.41320  0.90090  0.21707  1.0000 -0.1770527881
C   C329      1.0  0.93150  0.53780  0.23200  1.0000 0.1633314387
C   C330      1.0  0.43150  0.46220  0.26800  1.0000 0.1633314387
C   C331      1.0  0.06850  0.96220  0.73200  1.0000 0.1633314387
C   C332      1.0  0.56850  0.03780  0.76800  1.0000 0.1633314387
C   C333      1.0  0.06850  0.46220  0.76800  1.0000 0.1633314387
C   C334      1.0  0.56850  0.53780  0.73200  1.0000 0.1633314387
C   C335      1.0  0.93150  0.03780  0.26800  1.0000 0.1633314387
C   C336      1.0  0.43150  0.96220  0.23200  1.0000 0.1633314387
C   C337      1.0  0.97500  0.53900  0.25770  1.0000 0.1633314387
C   C338      1.0  0.47500  0.46100  0.24230  1.0000 0.1633314387
C   C339      1.0  0.02500  0.96100  0.75770  1.0000 0.1633314387
C   C340      1.0  0.52500  0.03900  0.74230  1.0000 0.1633314387
C   C341      1.0  0.02500  0.46100  0.74230  1.0000 0.1633314387
C   C342      1.0  0.52500  0.53900  0.75770  1.0000 0.1633314387
C   C343      1.0  0.97500  0.03900  0.24230  1.0000 0.1633314387
C   C344      1.0  0.47500  0.96100  0.25770  1.0000 0.1633314387
C   C345      1.0  0.99170  0.60120  0.27217  1.0000 -0.1708454409
C   C346      1.0  0.49170  0.39880  0.22783  1.0000 -0.1708454409
C   C347      1.0  0.00830  0.89880  0.77217  1.0000 -0.1708454409
C   C348      1.0  0.50830  0.10120  0.72783  1.0000 -0.1708454409
C   C349      1.0  0.00830  0.39880  0.72783  1.0000 -0.1708454409
C   C350      1.0  0.50830  0.60120  0.77217  1.0000 -0.1708454409
C   C351      1.0  0.99170  0.10120  0.22783  1.0000 -0.1708454409
C   C352      1.0  0.49170  0.89880  0.27217  1.0000 -0.1708454409
C   C353      1.0  0.03040  0.59590  0.29648  1.0000 -0.0506669905
C   C354      1.0  0.53040  0.40410  0.20352  1.0000 -0.0506669905
C   C355      1.0  0.96960  0.90410  0.79648  1.0000 -0.0506669905
C   C356      1.0  0.46960  0.09590  0.70352  1.0000 -0.0506669905
C   C357      1.0  0.96960  0.40410  0.70352  1.0000 -0.0506669905
C   C358      1.0  0.46960  0.59590  0.79648  1.0000 -0.0506669905
C   C359      1.0  0.03040  0.09590  0.20352  1.0000 -0.0506669905
C   C360      1.0  0.53040  0.90410  0.29648  1.0000 -0.0506669905
C   C361      1.0  0.05370  0.52880  0.30519  1.0000 -0.0410684841
C   C362      1.0  0.55370  0.47120  0.19481  1.0000 -0.0410684841
C   C363      1.0  0.94630  0.97120  0.80519  1.0000 -0.0410684841
C   C364      1.0  0.44630  0.02880  0.69481  1.0000 -0.0410684841
C   C365      1.0  0.94630  0.47120  0.69481  1.0000 -0.0410684841
C   C366      1.0  0.44630  0.52880  0.80519  1.0000 -0.0410684841
C   C367      1.0  0.05370  0.02880  0.19481  1.0000 -0.0410684841
C   C368      1.0  0.55370  0.97120  0.30519  1.0000 -0.0410684841
C   C369      1.0  0.03460  0.46880  0.28952  1.0000 0.0688579253
C   C370      1.0  0.53460  0.53120  0.21048  1.0000 0.0688579253
C   C371      1.0  0.96540  0.03120  0.78952  1.0000 0.0688579253
C   C372      1.0  0.46540  0.96880  0.71048  1.0000 0.0688579253
C   C373      1.0  0.96540  0.53120  0.71048  1.0000 0.0688579253
C   C374      1.0  0.46540  0.46880  0.78952  1.0000 0.0688579253
C   C375      1.0  0.03460  0.96880  0.21048  1.0000 0.0688579253
C   C376      1.0  0.53460  0.03120  0.28952  1.0000 0.0688579253
C   C377      1.0  0.09580  0.51590  0.33141  1.0000 0.5600560462
C   C378      1.0  0.59580  0.48410  0.16859  1.0000 0.5536545966
C   C379      1.0  0.90420  0.98410  0.83141  1.0000 0.5600560462
C   C380      1.0  0.40420  0.01590  0.66859  1.0000 0.5536545966
C   C381      1.0  0.90420  0.48410  0.66859  1.0000 0.5600560462
C   C382      1.0  0.40420  0.51590  0.83141  1.0000 0.5536545966
C   C383      1.0  0.09580  0.01590  0.16859  1.0000 0.5536545966
C   C384      1.0  0.59580  0.98410  0.33141  1.0000 0.5536545966
C   C385      1.0  0.13570  0.44990  0.15566  1.0000 0.6251740265
C   C386      1.0  0.63570  0.55010  0.34434  1.0000 0.6251740265
C   C387      1.0  0.86430  0.05010  0.65566  1.0000 0.6251740265
C   C388      1.0  0.36430  0.94990  0.84434  1.0000 0.6251740265
C   C389      1.0  0.86430  0.55010  0.84434  1.0000 0.6251740265
C   C390      1.0  0.36430  0.44990  0.65566  1.0000 0.6251740265
C   C391      1.0  0.13570  0.94990  0.34434  1.0000 0.6251740265
C   C392      1.0  0.63570  0.05010  0.15566  1.0000 0.6251740265
C   C393      1.0  0.05800  0.41400  0.19607  1.0000 0.0688579253
C   C394      1.0  0.55800  0.58600  0.30393  1.0000 0.0688579253
C   C395      1.0  0.94200  0.08600  0.69607  1.0000 0.0688579253
C   C396      1.0  0.44200  0.91400  0.80393  1.0000 0.0688579253
C   C397      1.0  0.94200  0.58600  0.80393  1.0000 0.0688579253
C   C398      1.0  0.44200  0.41400  0.69607  1.0000 0.0688579253
C   C399      1.0  0.05800  0.91400  0.30393  1.0000 0.0688579253
C   C400      1.0  0.55800  0.08600  0.19607  1.0000 0.0688579253
C   C401      1.0  0.11240  0.39640  0.17711  1.0000 -0.0614229871
C   C402      1.0  0.61240  0.60360  0.32289  1.0000 -0.0614229871
C   C403      1.0  0.88760  0.10360  0.67711  1.0000 -0.0614229871
C   C404      1.0  0.38760  0.89640  0.82289  1.0000 -0.0614229871
C   C405      1.0  0.88760  0.60360  0.82289  1.0000 -0.0614229871
C   C406      1.0  0.38760  0.39640  0.67711  1.0000 -0.0614229871
C   C407      1.0  0.11240  0.89640  0.32289  1.0000 -0.0614229871
C   C408      1.0  0.61240  0.10360  0.17711  1.0000 -0.0614229871
C   C409      1.0  0.14890  0.33170  0.18033  1.0000 -0.0410684841
C   C410      1.0  0.64890  0.66830  0.31967  1.0000 -0.0410684841
C   C411      1.0  0.85110  0.16830  0.68033  1.0000 -0.0410684841
C   C412      1.0  0.35110  0.83170  0.81967  1.0000 -0.0410684841
C   C413      1.0  0.85110  0.66830  0.81967  1.0000 -0.0410684841
C   C414      1.0  0.35110  0.33170  0.68033  1.0000 -0.0410684841
C   C415      1.0  0.14890  0.83170  0.31967  1.0000 -0.0410684841
C   C416      1.0  0.64890  0.16830  0.18033  1.0000 -0.0410684841
C   C417      1.0  0.13440  0.28860  0.20299  1.0000 -0.1889450089
C   C418      1.0  0.63440  0.71140  0.29701  1.0000 -0.1889450089
C   C419      1.0  0.86560  0.21140  0.70299  1.0000 -0.1889450089
C   C420      1.0  0.36560  0.78860  0.79701  1.0000 -0.1889450089
C   C421      1.0  0.86560  0.71140  0.79701  1.0000 -0.1889450089
C   C422      1.0  0.36560  0.28860  0.70299  1.0000 -0.1889450089
C   C423      1.0  0.13440  0.78860  0.29701  1.0000 -0.1889450089
C   C424      1.0  0.63440  0.21140  0.20299  1.0000 -0.1889450089
C   C425      1.0  0.08330  0.31150  0.22216  1.0000 0.1705610593
C   C426      1.0  0.58330  0.68850  0.27784  1.0000 0.1705610593
C   C427      1.0  0.91670  0.18850  0.72216  1.0000 0.1705610593
C   C428      1.0  0.41670  0.81150  0.77784  1.0000 0.1705610593
C   C429      1.0  0.91670  0.68850  0.77784  1.0000 0.1705610593
C   C430      1.0  0.41670  0.31150  0.72216  1.0000 0.1705610593
C   C431      1.0  0.08330  0.81150  0.27784  1.0000 0.1705610593
C   C432      1.0  0.58330  0.18850  0.22216  1.0000 0.1705610593
C   C433      1.0  0.07210  0.27440  0.24909  1.0000 0.1527473367
C   C434      1.0  0.57210  0.72560  0.25091  1.0000 0.1527473367
C   C435      1.0  0.92790  0.22560  0.74909  1.0000 0.1527473367
C   C436      1.0  0.42790  0.77440  0.75091  1.0000 0.1527473367
C   C437      1.0  0.92790  0.72560  0.75091  1.0000 0.1527473367
C   C438      1.0  0.42790  0.27440  0.74909  1.0000 0.1527473367
C   C439      1.0  0.07210  0.77440  0.25091  1.0000 0.1527473367
C   C440      1.0  0.57210  0.22560  0.24909  1.0000 0.1527473367
C   C441      1.0  0.11460  0.21660  0.25748  1.0000 -0.1889450089
C   C442      1.0  0.61460  0.78340  0.24252  1.0000 -0.1889450089
C   C443      1.0  0.88540  0.28340  0.75748  1.0000 -0.1889450089
C   C444      1.0  0.38540  0.71660  0.74252  1.0000 -0.1889450089
C   C445      1.0  0.88540  0.78340  0.74252  1.0000 -0.1889450089
C   C446      1.0  0.38540  0.21660  0.75748  1.0000 -0.1889450089
C   C447      1.0  0.11460  0.71660  0.24252  1.0000 -0.1889450089
C   C448      1.0  0.61460  0.28340  0.25748  1.0000 -0.1889450089
C   C449      1.0  0.10610  0.18900  0.28391  1.0000 -0.0614229871
C   C450      1.0  0.60610  0.81100  0.21609  1.0000 -0.0614229871
C   C451      1.0  0.89390  0.31100  0.78391  1.0000 -0.0614229871
C   C452      1.0  0.39390  0.68900  0.71609  1.0000 -0.0614229871
C   C453      1.0  0.89390  0.81100  0.71609  1.0000 -0.0614229871
C   C454      1.0  0.39390  0.18900  0.78391  1.0000 -0.0614229871
C   C455      1.0  0.10610  0.68900  0.21609  1.0000 -0.0614229871
C   C456      1.0  0.60610  0.31100  0.28391  1.0000 -0.0614229871
C   C457      1.0  0.05500  0.22030  0.30127  1.0000 -0.0506669905
C   C458      1.0  0.55500  0.77970  0.19873  1.0000 -0.0506669905
C   C459      1.0  0.94500  0.27970  0.80127  1.0000 -0.0506669905
C   C460      1.0  0.44500  0.72030  0.69873  1.0000 -0.0506669905
C   C461      1.0  0.94500  0.77970  0.69873  1.0000 -0.0506669905
C   C462      1.0  0.44500  0.22030  0.80127  1.0000 -0.0506669905
C   C463      1.0  0.05500  0.72030  0.19873  1.0000 -0.0506669905
C   C464      1.0  0.55500  0.27970  0.30127  1.0000 -0.0506669905
C   C465      1.0  0.01170  0.27620  0.29093  1.0000 0.0392863681
C   C466      1.0  0.51170  0.72380  0.20907  1.0000 0.0392863681
C   C467      1.0  0.98830  0.22380  0.79093  1.0000 0.0392863681
C   C468      1.0  0.48830  0.77620  0.70907  1.0000 0.0392863681
C   C469      1.0  0.98830  0.72380  0.70907  1.0000 0.0392863681
C   C470      1.0  0.48830  0.27620  0.79093  1.0000 0.0392863681
C   C471      1.0  0.01170  0.77620  0.20907  1.0000 0.0392863681
C   C472      1.0  0.51170  0.22380  0.29093  1.0000 0.0392863681
C   C473      1.0  0.04310  0.19330  0.33040  1.0000 0.5731047201
C   C474      1.0  0.54310  0.80670  0.16960  1.0000 0.5731047201
C   C475      1.0  0.95690  0.30670  0.83040  1.0000 0.5731047201
C   C476      1.0  0.45690  0.69330  0.66960  1.0000 0.5731047201
C   C477      1.0  0.95690  0.80670  0.66960  1.0000 0.5731047201
C   C478      1.0  0.45690  0.19330  0.83040  1.0000 0.5731047201
C   C479      1.0  0.04310  0.69330  0.16960  1.0000 0.5731047201
C   C480      1.0  0.54310  0.30670  0.33040  1.0000 0.5731047201
C   C481      1.0  0.28770  0.57290  0.15961  1.0000 0.6205270298
C   C482      1.0  0.78770  0.42710  0.34039  1.0000 0.6205270298
C   C483      1.0  0.71230  0.92710  0.65961  1.0000 0.6205270298
C   C484      1.0  0.21230  0.07290  0.84039  1.0000 0.6205270298
C   C485      1.0  0.71230  0.42710  0.84039  1.0000 0.6205270298
C   C486      1.0  0.21230  0.57290  0.65961  1.0000 0.6205270298
C   C487      1.0  0.28770  0.07290  0.34039  1.0000 0.6205270298
C   C488      1.0  0.78770  0.92710  0.15961  1.0000 0.6205270298
C   C489      1.0  0.35620  0.59730  0.20372  1.0000 0.0688579253
C   C490      1.0  0.85620  0.40270  0.29628  1.0000 0.0688579253
C   C491      1.0  0.64380  0.90270  0.70372  1.0000 0.0688579253
C   C492      1.0  0.14380  0.09730  0.79628  1.0000 0.0688579253
C   C493      1.0  0.64380  0.40270  0.79628  1.0000 0.0688579253
C   C494      1.0  0.14380  0.59730  0.70372  1.0000 0.0688579253
C   C495      1.0  0.35620  0.09730  0.29628  1.0000 0.0688579253
C   C496      1.0  0.85620  0.90270  0.20372  1.0000 0.0688579253
C   C497      1.0  0.30670  0.61970  0.18362  1.0000 -0.0614229871
C   C498      1.0  0.80670  0.38030  0.31638  1.0000 -0.0614229871
C   C499      1.0  0.69330  0.88030  0.68362  1.0000 -0.0614229871
C   C500      1.0  0.19330  0.11970  0.81638  1.0000 -0.0614229871
C   C501      1.0  0.69330  0.38030  0.81638  1.0000 -0.0614229871
C   C502      1.0  0.19330  0.61970  0.68362  1.0000 -0.0614229871
C   C503      1.0  0.30670  0.11970  0.31638  1.0000 -0.0614229871
C   C504      1.0  0.80670  0.88030  0.18362  1.0000 -0.0614229871
C   C505      1.0  0.27460  0.68740  0.18669  1.0000 -0.0410684841
C   C506      1.0  0.77460  0.31260  0.31331  1.0000 -0.0410684841
C   C507      1.0  0.72540  0.81260  0.68669  1.0000 -0.0410684841
C   C508      1.0  0.22540  0.18740  0.81331  1.0000 -0.0410684841
C   C509      1.0  0.72540  0.31260  0.81331  1.0000 -0.0410684841
C   C510      1.0  0.22540  0.68740  0.68669  1.0000 -0.0410684841
C   C511      1.0  0.27460  0.18740  0.31331  1.0000 -0.0410684841
C   C512      1.0  0.77460  0.81260  0.18669  1.0000 -0.0410684841
C   C513      1.0  0.28860  0.72720  0.21064  1.0000 -0.1889450089
C   C514      1.0  0.78860  0.27280  0.28936  1.0000 -0.1889450089
C   C515      1.0  0.71140  0.77280  0.71064  1.0000 -0.1889450089
C   C516      1.0  0.21140  0.22720  0.78936  1.0000 -0.1889450089
C   C517      1.0  0.71140  0.27280  0.78936  1.0000 -0.1889450089
C   C518      1.0  0.21140  0.72720  0.71064  1.0000 -0.1889450089
C   C519      1.0  0.28860  0.22720  0.28936  1.0000 -0.1889450089
C   C520      1.0  0.78860  0.77280  0.21064  1.0000 -0.1889450089
C   C521      1.0  0.33510  0.69900  0.23036  1.0000 0.1705610593
C   C522      1.0  0.83510  0.30100  0.26964  1.0000 0.1705610593
C   C523      1.0  0.66490  0.80100  0.73036  1.0000 0.1705610593
C   C524      1.0  0.16490  0.19900  0.76964  1.0000 0.1705610593
C   C525      1.0  0.66490  0.30100  0.76964  1.0000 0.1705610593
C   C526      1.0  0.16490  0.69900  0.73036  1.0000 0.1705610593
C   C527      1.0  0.33510  0.19900  0.26964  1.0000 0.1705610593
C   C528      1.0  0.83510  0.80100  0.23036  1.0000 0.1705610593
C   C529      1.0  0.34840  0.73470  0.25736  1.0000 0.1633314387
C   C530      1.0  0.84840  0.26530  0.24264  1.0000 0.1633314387
C   C531      1.0  0.65160  0.76530  0.75736  1.0000 0.1633314387
C   C532      1.0  0.15160  0.23470  0.74264  1.0000 0.1633314387
C   C533      1.0  0.65160  0.26530  0.74264  1.0000 0.1633314387
C   C534      1.0  0.15160  0.73470  0.75736  1.0000 0.1633314387
C   C535      1.0  0.34840  0.23470  0.24264  1.0000 0.1633314387
C   C536      1.0  0.84840  0.76530  0.25736  1.0000 0.1633314387
C   C537      1.0  0.31160  0.79680  0.26542  1.0000 -0.1995624085
C   C538      1.0  0.81160  0.20320  0.23458  1.0000 -0.1995624085
C   C539      1.0  0.68840  0.70320  0.76542  1.0000 -0.1995624085
C   C540      1.0  0.18840  0.29680  0.73458  1.0000 -0.1995624085
C   C541      1.0  0.68840  0.20320  0.73458  1.0000 -0.1995624085
C   C542      1.0  0.18840  0.79680  0.76542  1.0000 -0.1995624085
C   C543      1.0  0.31160  0.29680  0.23458  1.0000 -0.1995624085
C   C544      1.0  0.81160  0.70320  0.26542  1.0000 -0.1995624085
C   C545      1.0  0.32450  0.82430  0.29187  1.0000 -0.0614229871
C   C546      1.0  0.82450  0.17570  0.20813  1.0000 -0.0614229871
C   C547      1.0  0.67550  0.67570  0.79187  1.0000 -0.0614229871
C   C548      1.0  0.17550  0.32430  0.70813  1.0000 -0.0614229871
C   C549      1.0  0.67550  0.17570  0.70813  1.0000 -0.0614229871
C   C550      1.0  0.17550  0.82430  0.79187  1.0000 -0.0614229871
C   C551      1.0  0.32450  0.32430  0.20813  1.0000 -0.0614229871
C   C552      1.0  0.82450  0.67570  0.29187  1.0000 -0.0614229871
C   C553      1.0  0.37230  0.78890  0.30847  1.0000 -0.0614229871
C   C554      1.0  0.87230  0.21110  0.19153  1.0000 -0.0614229871
C   C555      1.0  0.62770  0.71110  0.80847  1.0000 -0.0614229871
C   C556      1.0  0.12770  0.28890  0.69153  1.0000 -0.0614229871
C   C557      1.0  0.62770  0.21110  0.69153  1.0000 -0.0614229871
C   C558      1.0  0.12770  0.78890  0.80847  1.0000 -0.0614229871
C   C559      1.0  0.37230  0.28890  0.19153  1.0000 -0.0614229871
C   C560      1.0  0.87230  0.71110  0.30847  1.0000 -0.0614229871
C   C561      1.0  0.40790  0.72800  0.29890  1.0000 0.0301408701
C   C562      1.0  0.90790  0.27200  0.20110  1.0000 0.0301408701
C   C563      1.0  0.59210  0.77200  0.79890  1.0000 0.0301408701
C   C564      1.0  0.09210  0.22800  0.70110  1.0000 0.0301408701
C   C565      1.0  0.59210  0.27200  0.70110  1.0000 0.0301408701
C   C566      1.0  0.09210  0.72800  0.79890  1.0000 0.0301408701
C   C567      1.0  0.40790  0.22800  0.20110  1.0000 0.0301408701
C   C568      1.0  0.90790  0.77200  0.29890  1.0000 0.0301408701
C   C569      1.0  0.39030  0.81500  0.33757  1.0000 0.5731047201
C   C570      1.0  0.89030  0.18500  0.16243  1.0000 0.5731047201
C   C571      1.0  0.60970  0.68500  0.83757  1.0000 0.5731047201
C   C572      1.0  0.10970  0.31500  0.66243  1.0000 0.5731047201
C   C573      1.0  0.60970  0.18500  0.66243  1.0000 0.5731047201
C   C574      1.0  0.10970  0.81500  0.83757  1.0000 0.5731047201
C   C575      1.0  0.39030  0.31500  0.16243  1.0000 0.5731047201
C   C576      1.0  0.89030  0.68500  0.33757  1.0000 0.5731047201
N   N1        1.0  0.03220  0.28780  0.97787  1.0000 -0.2342664194
N   N2        1.0  0.53220  0.71220  0.52213  1.0000 -0.2342664194
N   N3        1.0  0.96780  0.21220  0.47787  1.0000 -0.2342664194
N   N4        1.0  0.46780  0.78780  0.02213  1.0000 -0.2342664194
N   N5        1.0  0.96780  0.71220  0.02213  1.0000 -0.2342664194
N   N6        1.0  0.46780  0.28780  0.47787  1.0000 -0.2342664194
N   N7        1.0  0.03220  0.78780  0.52213  1.0000 -0.2342664194
N   N8        1.0  0.53220  0.21220  0.97787  1.0000 -0.2342664194
N   N9        1.0  0.08590  0.33350  0.02369  1.0000 -0.2176450669
N   N10       1.0  0.58590  0.66650  0.47631  1.0000 -0.2176450669
N   N11       1.0  0.91410  0.16650  0.52369  1.0000 -0.2176450669
N   N12       1.0  0.41410  0.83350  0.97631  1.0000 -0.2176450669
N   N13       1.0  0.91410  0.66650  0.97631  1.0000 -0.2176450669
N   N14       1.0  0.41410  0.33350  0.52369  1.0000 -0.2176450669
N   N15       1.0  0.08590  0.83350  0.47631  1.0000 -0.2176450669
N   N16       1.0  0.58590  0.16650  0.02369  1.0000 -0.2176450669
N   N17       1.0  0.81220  0.70360  0.01461  1.0000 -0.1995624085
N   N18       1.0  0.31220  0.29640  0.48539  1.0000 -0.1995624085
N   N19       1.0  0.18780  0.79640  0.51461  1.0000 -0.1995624085
N   N20       1.0  0.68780  0.20360  0.98539  1.0000 -0.1995624085
N   N21       1.0  0.18780  0.29640  0.98539  1.0000 -0.1995624085
N   N22       1.0  0.68780  0.70360  0.51461  1.0000 -0.1995624085
N   N23       1.0  0.81220  0.20360  0.48539  1.0000 -0.1995624085
N   N24       1.0  0.31220  0.79640  0.01461  1.0000 -0.1995624085
N   N25       1.0  0.81700  0.78890  0.97356  1.0000 -0.2138492153
N   N26       1.0  0.31700  0.21110  0.52644  1.0000 -0.2138492153
N   N27       1.0  0.18300  0.71110  0.47356  1.0000 -0.2138492153
N   N28       1.0  0.68300  0.28890  0.02644  1.0000 -0.2138492153
N   N29       1.0  0.18300  0.21110  0.02644  1.0000 -0.2138492153
N   N30       1.0  0.68300  0.78890  0.47356  1.0000 -0.2138492153
N   N31       1.0  0.81700  0.28890  0.52644  1.0000 -0.2138492153
N   N32       1.0  0.31700  0.71110  0.97356  1.0000 -0.2138492153
N   N33       1.0  0.52990  0.31020  0.01844  1.0000 -0.2176450669
N   N34       1.0  0.02990  0.68980  0.48156  1.0000 -0.2176450669
N   N35       1.0  0.47010  0.18980  0.51844  1.0000 -0.2176450669
N   N36       1.0  0.97010  0.81020  0.98156  1.0000 -0.2176450669
N   N37       1.0  0.47010  0.68980  0.98156  1.0000 -0.2176450669
N   N38       1.0  0.97010  0.31020  0.51844  1.0000 -0.2176450669
N   N39       1.0  0.52990  0.81020  0.48156  1.0000 -0.2176450669
N   N40       1.0  0.02990  0.18980  0.01844  1.0000 -0.2176450669
N   N41       1.0  0.61770  0.33540  0.97730  1.0000 -0.2176450669
N   N42       1.0  0.11770  0.66460  0.52270  1.0000 -0.2176450669
N   N43       1.0  0.38230  0.16460  0.47730  1.0000 -0.2176450669
N   N44       1.0  0.88230  0.83540  0.02270  1.0000 -0.2176450669
N   N45       1.0  0.38230  0.66460  0.02270  1.0000 -0.2176450669
N   N46       1.0  0.88230  0.33540  0.47730  1.0000 -0.2176450669
N   N47       1.0  0.61770  0.83540  0.52270  1.0000 -0.2176450669
N   N48       1.0  0.11770  0.16460  0.97730  1.0000 -0.2176450669
N   N49       1.0  0.91030  0.47070  0.22337  1.0000 -0.2523361655
N   N50       1.0  0.41030  0.52930  0.27663  1.0000 -0.2523361655
N   N51       1.0  0.08970  0.02930  0.72337  1.0000 -0.2523361655
N   N52       1.0  0.58970  0.97070  0.77663  1.0000 -0.2523361655
N   N53       1.0  0.08970  0.52930  0.77663  1.0000 -0.2523361655
N   N54       1.0  0.58970  0.47070  0.72337  1.0000 -0.2523361655
N   N55       1.0  0.91030  0.97070  0.27663  1.0000 -0.2523361655
N   N56       1.0  0.41030  0.02930  0.22337  1.0000 -0.2523361655
N   N57       1.0  0.99580  0.47270  0.26679  1.0000 -0.2416732986
N   N58       1.0  0.49580  0.52730  0.23321  1.0000 -0.2416732986
N   N59       1.0  0.00420  0.02730  0.76679  1.0000 -0.2416732986
N   N60       1.0  0.50420  0.97270  0.73321  1.0000 -0.2416732986
N   N61       1.0  0.00420  0.52730  0.73321  1.0000 -0.2416732986
N   N62       1.0  0.50420  0.47270  0.76679  1.0000 -0.2416732986
N   N63       1.0  0.99580  0.97270  0.23321  1.0000 -0.2416732986
N   N64       1.0  0.49580  0.02730  0.26679  1.0000 -0.2416732986
N   N65       1.0  0.04300  0.37230  0.21821  1.0000 -0.260592371
N   N66       1.0  0.54300  0.62770  0.28179  1.0000 -0.260592371
N   N67       1.0  0.95700  0.12770  0.71821  1.0000 -0.260592371
N   N68       1.0  0.45700  0.87230  0.78179  1.0000 -0.260592371
N   N69       1.0  0.95700  0.62770  0.78179  1.0000 -0.260592371
N   N70       1.0  0.45700  0.37230  0.71821  1.0000 -0.260592371
N   N71       1.0  0.04300  0.87230  0.28179  1.0000 -0.260592371
N   N72       1.0  0.54300  0.12770  0.21821  1.0000 -0.260592371
N   N73       1.0  0.02000  0.30340  0.26549  1.0000 -0.2670377982
N   N74       1.0  0.52000  0.69660  0.23451  1.0000 -0.2670377982
N   N75       1.0  0.98000  0.19660  0.76549  1.0000 -0.2670377982
N   N76       1.0  0.48000  0.80340  0.73451  1.0000 -0.2670377982
N   N77       1.0  0.98000  0.69660  0.73451  1.0000 -0.2670377982
N   N78       1.0  0.48000  0.30340  0.76549  1.0000 -0.2670377982
N   N79       1.0  0.02000  0.80340  0.23451  1.0000 -0.2670377982
N   N80       1.0  0.52000  0.19660  0.26549  1.0000 -0.2670377982
N   N81       1.0  0.37000  0.63530  0.22657  1.0000 -0.260592371
N   N82       1.0  0.87000  0.36470  0.27343  1.0000 -0.2523361655
N   N83       1.0  0.63000  0.86470  0.72657  1.0000 -0.2523361655
N   N84       1.0  0.13000  0.13530  0.77343  1.0000 -0.2523361655
N   N85       1.0  0.63000  0.36470  0.77343  1.0000 -0.2523361655
N   N86       1.0  0.13000  0.63530  0.72657  1.0000 -0.2523361655
N   N87       1.0  0.37000  0.13530  0.27343  1.0000 -0.2523361655
N   N88       1.0  0.87000  0.86470  0.22657  1.0000 -0.2523361655
N   N89       1.0  0.39760  0.70090  0.27348  1.0000 -0.260592371
N   N90       1.0  0.89760  0.29910  0.22652  1.0000 -0.260592371
N   N91       1.0  0.60240  0.79910  0.77348  1.0000 -0.260592371
N   N92       1.0  0.10240  0.20090  0.72652  1.0000 -0.260592371
N   N93       1.0  0.60240  0.29910  0.72652  1.0000 -0.260592371
N   N94       1.0  0.10240  0.70090  0.77348  1.0000 -0.260592371
N   N95       1.0  0.39760  0.20090  0.22652  1.0000 -0.260592371
N   N96       1.0  0.89760  0.79910  0.27348  1.0000 -0.260592371
Cl  Cl1       1.0  0.22578  0.50371  0.00812  1.0000 1.2774412441
Cl  Cl2       1.0  0.72578  0.49629  0.49188  1.0000 1.2774412441
Cl  Cl3       1.0  0.77422  0.99629  0.50812  1.0000 1.2774412441
Cl  Cl4       1.0  0.27422  0.00371  0.99188  1.0000 1.2774412441
Cl  Cl5       1.0  0.77422  0.49629  0.99188  1.0000 1.2774412441
Cl  Cl6       1.0  0.27422  0.50371  0.50812  1.0000 1.2774412441
Cl  Cl7       1.0  0.22578  0.00371  0.49188  1.0000 1.2774412441
Cl  Cl8       1.0  0.72578  0.99629  0.00812  1.0000 1.2774412441
O   O1        1.0  0.88630  0.29300  0.89694  1.0000 -0.61069774
O   O2        1.0  0.38630  0.70700  0.60306  1.0000 -0.61069774
O   O3        1.0  0.11370  0.20700  0.39694  1.0000 -0.61069774
O   O4        1.0  0.61370  0.79300  0.10306  1.0000 -0.61069774
O   O5        1.0  0.11370  0.70700  0.10306  1.0000 -0.61069774
O   O6        1.0  0.61370  0.29300  0.39694  1.0000 -0.61069774
O   O7        1.0  0.88630  0.79300  0.60306  1.0000 -0.61069774
O   O8        1.0  0.38630  0.20700  0.89694  1.0000 -0.61069774
O   O9        1.0  0.94740  0.19260  0.90852  1.0000 -0.5673319623
O   O10       1.0  0.44740  0.80740  0.59148  1.0000 -0.5673319623
O   O11       1.0  0.05260  0.30740  0.40852  1.0000 -0.5673319623
O   O12       1.0  0.55260  0.69260  0.09148  1.0000 -0.5673319623
O   O13       1.0  0.05260  0.80740  0.09148  1.0000 -0.5673319623
O   O14       1.0  0.55260  0.19260  0.40852  1.0000 -0.5673319623
O   O15       1.0  0.94740  0.69260  0.59148  1.0000 -0.5673319623
O   O16       1.0  0.44740  0.30740  0.90852  1.0000 -0.5673319623
O   O17       1.0  0.13410  0.50910  0.09195  1.0000 -0.6175180268
O   O18       1.0  0.63410  0.49090  0.40805  1.0000 -0.6175180268
O   O19       1.0  0.86590  0.99090  0.59195  1.0000 -0.6175180268
O   O20       1.0  0.36590  0.00910  0.90805  1.0000 -0.6175180268
O   O21       1.0  0.86590  0.49090  0.90805  1.0000 -0.6175180268
O   O22       1.0  0.36590  0.50910  0.59195  1.0000 -0.6175180268
O   O23       1.0  0.13410  0.00910  0.40805  1.0000 -0.6175180268
O   O24       1.0  0.63410  0.99090  0.09195  1.0000 -0.6175180268
O   O25       1.0  0.20940  0.41410  0.08690  1.0000 -0.5598729617
O   O26       1.0  0.70940  0.58590  0.41310  1.0000 -0.5598729617
O   O27       1.0  0.79060  0.08590  0.58690  1.0000 -0.5598729617
O   O28       1.0  0.29060  0.91410  0.91310  1.0000 -0.5598729617
O   O29       1.0  0.79060  0.58590  0.91310  1.0000 -0.5598729617
O   O30       1.0  0.29060  0.41410  0.58690  1.0000 -0.5598729617
O   O31       1.0  0.20940  0.91410  0.41310  1.0000 -0.5598729617
O   O32       1.0  0.70940  0.08590  0.08690  1.0000 -0.5598729617
O   O33       1.0  0.83740  0.55180  0.07445  1.0000 -0.5492588826
O   O34       1.0  0.33740  0.44820  0.42555  1.0000 -0.5492588826
O   O35       1.0  0.16260  0.94820  0.57445  1.0000 -0.5492588826
O   O36       1.0  0.66260  0.05180  0.92555  1.0000 -0.5492588826
O   O37       1.0  0.16260  0.44820  0.92555  1.0000 -0.5492588826
O   O38       1.0  0.66260  0.55180  0.57445  1.0000 -0.5492588826
O   O39       1.0  0.83740  0.05180  0.42555  1.0000 -0.5492588826
O   O40       1.0  0.33740  0.94820  0.07445  1.0000 -0.5492588826
O   O41       1.0  0.71640  0.55400  0.08344  1.0000 -0.5959775788
O   O42       1.0  0.21640  0.44600  0.41656  1.0000 -0.5959775788
O   O43       1.0  0.28360  0.94600  0.58344  1.0000 -0.5959775788
O   O44       1.0  0.78360  0.05400  0.91656  1.0000 -0.5959775788
O   O45       1.0  0.28360  0.44600  0.91656  1.0000 -0.5959775788
O   O46       1.0  0.78360  0.55400  0.58344  1.0000 -0.5959775788
O   O47       1.0  0.71640  0.05400  0.41656  1.0000 -0.5959775788
O   O48       1.0  0.21640  0.94600  0.08344  1.0000 -0.5959775788
O   O49       1.0  0.84840  0.92090  0.90616  1.0000 -0.5598729617
O   O50       1.0  0.34840  0.07910  0.59384  1.0000 -0.5598729617
O   O51       1.0  0.15160  0.57910  0.40616  1.0000 -0.5598729617
O   O52       1.0  0.65160  0.42090  0.09384  1.0000 -0.5598729617
O   O53       1.0  0.15160  0.07910  0.09384  1.0000 -0.5598729617
O   O54       1.0  0.65160  0.92090  0.40616  1.0000 -0.5598729617
O   O55       1.0  0.84840  0.42090  0.59384  1.0000 -0.5598729617
O   O56       1.0  0.34840  0.57910  0.90616  1.0000 -0.5598729617
O   O57       1.0  0.73350  0.91630  0.89401  1.0000 -0.542364566
O   O58       1.0  0.23350  0.08370  0.60599  1.0000 -0.542364566
O   O59       1.0  0.26650  0.58370  0.39401  1.0000 -0.542364566
O   O60       1.0  0.76650  0.41630  0.10599  1.0000 -0.542364566
O   O61       1.0  0.26650  0.08370  0.10599  1.0000 -0.542364566
O   O62       1.0  0.76650  0.91630  0.39401  1.0000 -0.542364566
O   O63       1.0  0.73350  0.41630  0.60599  1.0000 -0.542364566
O   O64       1.0  0.23350  0.58370  0.89401  1.0000 -0.542364566
O   O65       1.0  0.38610  0.26640  0.08578  1.0000 -0.532139226
O   O66       1.0  0.88610  0.73360  0.41422  1.0000 -0.532139226
O   O67       1.0  0.61390  0.23360  0.58578  1.0000 -0.532139226
O   O68       1.0  0.11390  0.76640  0.91422  1.0000 -0.532139226
O   O69       1.0  0.61390  0.73360  0.91422  1.0000 -0.532139226
O   O70       1.0  0.11390  0.26640  0.58578  1.0000 -0.532139226
O   O71       1.0  0.38610  0.76640  0.41422  1.0000 -0.532139226
O   O72       1.0  0.88610  0.23360  0.08578  1.0000 -0.532139226
O   O73       1.0  0.36510  0.38560  0.08657  1.0000 -0.6175180268
O   O74       1.0  0.86510  0.61440  0.41343  1.0000 -0.6175180268
O   O75       1.0  0.63490  0.11440  0.58657  1.0000 -0.6175180268
O   O76       1.0  0.13490  0.88560  0.91343  1.0000 -0.6175180268
O   O77       1.0  0.63490  0.61440  0.91343  1.0000 -0.6175180268
O   O78       1.0  0.13490  0.38560  0.58657  1.0000 -0.6175180268
O   O79       1.0  0.36510  0.88560  0.41343  1.0000 -0.6175180268
O   O80       1.0  0.86510  0.11440  0.08657  1.0000 -0.6175180268
O   O81       1.0  0.76660  0.37160  0.91160  1.0000 -0.5812257421
O   O82       1.0  0.26660  0.62840  0.58840  1.0000 -0.5812257421
O   O83       1.0  0.23340  0.12840  0.41160  1.0000 -0.5812257421
O   O84       1.0  0.73340  0.87160  0.08840  1.0000 -0.5812257421
O   O85       1.0  0.23340  0.62840  0.08840  1.0000 -0.5812257421
O   O86       1.0  0.73340  0.37160  0.41160  1.0000 -0.5812257421
O   O87       1.0  0.76660  0.87160  0.58840  1.0000 -0.5812257421
O   O88       1.0  0.26660  0.12840  0.91160  1.0000 -0.5812257421
O   O89       1.0  0.70180  0.47040  0.90159  1.0000 -0.5959775788
O   O90       1.0  0.20180  0.52960  0.59841  1.0000 -0.5897288414
O   O91       1.0  0.29820  0.02960  0.40159  1.0000 -0.5897288414
O   O92       1.0  0.79820  0.97040  0.09841  1.0000 -0.5959775788
O   O93       1.0  0.29820  0.52960  0.09841  1.0000 -0.5897288414
O   O94       1.0  0.79820  0.47040  0.40159  1.0000 -0.5959775788
O   O95       1.0  0.70180  0.97040  0.59841  1.0000 -0.5959775788
O   O96       1.0  0.20180  0.02960  0.90159  1.0000 -0.5897288414
O   O97       1.0  0.79530  0.56040  0.14244  1.0000 -0.5492588826
O   O98       1.0  0.29530  0.43960  0.35756  1.0000 -0.5492588826
O   O99       1.0  0.20470  0.93960  0.64244  1.0000 -0.5492588826
O   O100      1.0  0.70470  0.06040  0.85756  1.0000 -0.5492588826
O   O101      1.0  0.20470  0.43960  0.85756  1.0000 -0.5492588826
O   O102      1.0  0.70470  0.56040  0.64244  1.0000 -0.5492588826
O   O103      1.0  0.79530  0.06040  0.35756  1.0000 -0.5492588826
O   O104      1.0  0.29530  0.93960  0.14244  1.0000 -0.5492588826
O   O105      1.0  0.75300  0.46330  0.16188  1.0000 -0.5492588826
O   O106      1.0  0.25300  0.53670  0.33812  1.0000 -0.542364566
O   O107      1.0  0.24700  0.03670  0.66188  1.0000 -0.542364566
O   O108      1.0  0.74700  0.96330  0.83812  1.0000 -0.542364566
O   O109      1.0  0.24700  0.53670  0.83812  1.0000 -0.542364566
O   O110      1.0  0.74700  0.46330  0.66188  1.0000 -0.5492588826
O   O111      1.0  0.75300  0.96330  0.33812  1.0000 -0.5492588826
O   O112      1.0  0.25300  0.03670  0.16188  1.0000 -0.542364566
O   O113      1.0  0.10380  0.56550  0.34859  1.0000 -0.532139226
O   O114      1.0  0.60380  0.43450  0.15141  1.0000 -0.532139226
O   O115      1.0  0.89620  0.93450  0.84859  1.0000 -0.532139226
O   O116      1.0  0.39620  0.06550  0.65141  1.0000 -0.532139226
O   O117      1.0  0.89620  0.43450  0.65141  1.0000 -0.532139226
O   O118      1.0  0.39620  0.56550  0.84859  1.0000 -0.532139226
O   O119      1.0  0.10380  0.06550  0.15141  1.0000 -0.532139226
O   O120      1.0  0.60380  0.93450  0.34859  1.0000 -0.532139226
O   O121      1.0  0.12310  0.45430  0.33492  1.0000 -0.5598729617
O   O122      1.0  0.62310  0.54570  0.16508  1.0000 -0.5598729617
O   O123      1.0  0.87690  0.04570  0.83492  1.0000 -0.5598729617
O   O124      1.0  0.37690  0.95430  0.66508  1.0000 -0.5598729617
O   O125      1.0  0.87690  0.54570  0.66508  1.0000 -0.5598729617
O   O126      1.0  0.37690  0.45430  0.83492  1.0000 -0.5598729617
O   O127      1.0  0.12310  0.95430  0.16508  1.0000 -0.5598729617
O   O128      1.0  0.62310  0.04570  0.33492  1.0000 -0.5598729617
O   O129      1.0  0.09820  0.50470  0.15113  1.0000 -0.5897288414
O   O130      1.0  0.59820  0.49530  0.34887  1.0000 -0.5897288414
O   O131      1.0  0.90180  0.99530  0.65113  1.0000 -0.5897288414
O   O132      1.0  0.40180  0.00470  0.84887  1.0000 -0.5897288414
O   O133      1.0  0.90180  0.49530  0.84887  1.0000 -0.5897288414
O   O134      1.0  0.40180  0.50470  0.65113  1.0000 -0.5897288414
O   O135      1.0  0.09820  0.00470  0.34887  1.0000 -0.5897288414
O   O136      1.0  0.59820  0.99530  0.15113  1.0000 -0.5897288414
O   O137      1.0  0.19500  0.43370  0.14369  1.0000 -0.61069774
O   O138      1.0  0.69500  0.56630  0.35631  1.0000 -0.61069774
O   O139      1.0  0.80500  0.06630  0.64369  1.0000 -0.61069774
O   O140      1.0  0.30500  0.93370  0.85631  1.0000 -0.61069774
O   O141      1.0  0.80500  0.56630  0.85631  1.0000 -0.61069774
O   O142      1.0  0.30500  0.43370  0.64369  1.0000 -0.61069774
O   O143      1.0  0.19500  0.93370  0.35631  1.0000 -0.61069774
O   O144      1.0  0.69500  0.06630  0.14369  1.0000 -0.61069774
O   O145      1.0  0.98430  0.20750  0.34123  1.0000 -0.5492588826
O   O146      1.0  0.48430  0.79250  0.15877  1.0000 -0.5492588826
O   O147      1.0  0.01570  0.29250  0.84123  1.0000 -0.5492588826
O   O148      1.0  0.51570  0.70750  0.65877  1.0000 -0.5492588826
O   O149      1.0  0.01570  0.79250  0.65877  1.0000 -0.5492588826
O   O150      1.0  0.51570  0.20750  0.84123  1.0000 -0.5492588826
O   O151      1.0  0.98430  0.70750  0.15877  1.0000 -0.5492588826
O   O152      1.0  0.48430  0.29250  0.34123  1.0000 -0.5492588826
O   O153      1.0  0.09460  0.15910  0.34063  1.0000 -0.61069774
O   O154      1.0  0.59460  0.84090  0.15937  1.0000 -0.61069774
O   O155      1.0  0.90540  0.34090  0.84063  1.0000 -0.61069774
O   O156      1.0  0.40540  0.65910  0.65937  1.0000 -0.61069774
O   O157      1.0  0.90540  0.84090  0.65937  1.0000 -0.61069774
O   O158      1.0  0.40540  0.15910  0.84063  1.0000 -0.61069774
O   O159      1.0  0.09460  0.65910  0.15937  1.0000 -0.61069774
O   O160      1.0  0.59460  0.34090  0.34063  1.0000 -0.61069774
O   O161      1.0  0.23360  0.59460  0.14592  1.0000 -0.61069774
O   O162      1.0  0.73360  0.40540  0.35408  1.0000 -0.61069774
O   O163      1.0  0.76640  0.90540  0.64592  1.0000 -0.61069774
O   O164      1.0  0.26640  0.09460  0.85408  1.0000 -0.61069774
O   O165      1.0  0.76640  0.40540  0.85408  1.0000 -0.61069774
O   O166      1.0  0.26640  0.59460  0.64592  1.0000 -0.61069774
O   O167      1.0  0.23360  0.09460  0.35408  1.0000 -0.61069774
O   O168      1.0  0.73360  0.90540  0.14592  1.0000 -0.61069774
O   O169      1.0  0.32290  0.51620  0.15561  1.0000 -0.5598729617
O   O170      1.0  0.82290  0.48380  0.34439  1.0000 -0.5598729617
O   O171      1.0  0.67710  0.98380  0.65561  1.0000 -0.5673319623
O   O172      1.0  0.17710  0.01620  0.84439  1.0000 -0.5598729617
O   O173      1.0  0.67710  0.48380  0.84439  1.0000 -0.5598729617
O   O174      1.0  0.17710  0.51620  0.65561  1.0000 -0.5598729617
O   O175      1.0  0.32290  0.01620  0.34439  1.0000 -0.5598729617
O   O176      1.0  0.82290  0.98380  0.15561  1.0000 -0.5598729617
O   O177      1.0  0.36040  0.87180  0.34530  1.0000 -0.61069774
O   O178      1.0  0.86040  0.12820  0.15470  1.0000 -0.61069774
O   O179      1.0  0.63960  0.62820  0.84530  1.0000 -0.61069774
O   O180      1.0  0.13960  0.37180  0.65470  1.0000 -0.61069774
O   O181      1.0  0.63960  0.12820  0.65470  1.0000 -0.61069774
O   O182      1.0  0.13960  0.87180  0.84530  1.0000 -0.61069774
O   O183      1.0  0.36040  0.37180  0.15470  1.0000 -0.61069774
O   O184      1.0  0.86040  0.62820  0.34530  1.0000 -0.61069774
O   O185      1.0  0.43170  0.77620  0.35153  1.0000 -0.532139226
O   O186      1.0  0.93170  0.22380  0.14847  1.0000 -0.532139226
O   O187      1.0  0.56830  0.72380  0.85153  1.0000 -0.532139226
O   O188      1.0  0.06830  0.27620  0.64847  1.0000 -0.532139226
O   O189      1.0  0.56830  0.22380  0.64847  1.0000 -0.532139226
O   O190      1.0  0.06830  0.77620  0.85153  1.0000 -0.532139226
O   O191      1.0  0.43170  0.27620  0.14847  1.0000 -0.532139226
O   O192      1.0  0.93170  0.72380  0.35153  1.0000 -0.532139226
O   O193      1.0  0.43740  0.47740  0.12294  1.0000 -0.6557715726
O   O194      1.0  0.93740  0.52260  0.37706  1.0000 -0.6557715726
O   O195      1.0  0.56260  0.02260  0.62294  1.0000 -0.6557715726
O   O196      1.0  0.06260  0.97740  0.87706  1.0000 -0.6528376174
O   O197      1.0  0.56260  0.52260  0.87706  1.0000 -0.6557715726
O   O198      1.0  0.06260  0.47740  0.62294  1.0000 -0.6528376174
O   O199      1.0  0.43740  0.97740  0.37706  1.0000 -0.6557715726
O   O200      1.0  0.93740  0.02260  0.12294  1.0000 -0.6557715726
O   O201      1.0  0.26250  0.30280  0.12019  1.0000 -0.6688139108
O   O202      1.0  0.76250  0.69720  0.37981  1.0000 -0.6688139108
O   O203      1.0  0.73750  0.19720  0.62019  1.0000 -0.6688139108
O   O204      1.0  0.23750  0.80280  0.87981  1.0000 -0.6688139108
O   O205      1.0  0.73750  0.69720  0.87981  1.0000 -0.6688139108
O   O206      1.0  0.23750  0.30280  0.62019  1.0000 -0.6688139108
O   O207      1.0  0.26250  0.80280  0.37981  1.0000 -0.6688139108
O   O208      1.0  0.76250  0.19720  0.12019  1.0000 -0.6688139108
O   O209      1.0  0.98590  0.40840  0.88883  1.0000 -0.6688139108
O   O210      1.0  0.48590  0.59160  0.61117  1.0000 -0.6688139108
O   O211      1.0  0.01410  0.09160  0.38883  1.0000 -0.6688139108
O   O212      1.0  0.51410  0.90840  0.11117  1.0000 -0.6688139108
O   O213      1.0  0.01410  0.59160  0.11117  1.0000 -0.6688139108
O   O214      1.0  0.51410  0.40840  0.38883  1.0000 -0.6688139108
O   O215      1.0  0.98590  0.90840  0.61117  1.0000 -0.6688139108
O   O216      1.0  0.48590  0.09160  0.88883  1.0000 -0.6688139108
O   O217      1.0  0.67680  0.64230  0.12802  1.0000 -0.6528376174
O   O218      1.0  0.17680  0.35770  0.37198  1.0000 -0.6528376174
O   O219      1.0  0.32320  0.85770  0.62802  1.0000 -0.6528376174
O   O220      1.0  0.82320  0.14230  0.87198  1.0000 -0.6528376174
O   O221      1.0  0.32320  0.35770  0.87198  1.0000 -0.6528376174
O   O222      1.0  0.82320  0.64230  0.62802  1.0000 -0.6528376174
O   O223      1.0  0.67680  0.14230  0.37198  1.0000 -0.6528376174
O   O224      1.0  0.17680  0.85770  0.12802  1.0000 -0.6528376174
O   O225      1.0  0.56790  0.54710  0.10663  1.0000 -0.627152231
O   O226      1.0  0.06790  0.45290  0.39337  1.0000 -0.627152231
O   O227      1.0  0.43210  0.95290  0.60663  1.0000 -0.627152231
O   O228      1.0  0.93210  0.04710  0.89337  1.0000 -0.627152231
O   O229      1.0  0.43210  0.45290  0.89337  1.0000 -0.627152231
O   O230      1.0  0.93210  0.54710  0.60663  1.0000 -0.627152231
O   O231      1.0  0.56790  0.04710  0.39337  1.0000 -0.627152231
O   O232      1.0  0.06790  0.95290  0.10663  1.0000 -0.627152231
O   O233      1.0  0.27920  0.54270  0.99300  1.0000 -0.465619002
O   O234      1.0  0.21030  0.54380  0.03286  1.0000 -0.5051578325
O   O235      1.0  0.25320  0.43380  0.01521  1.0000 -0.4823368293
O   O236      1.0  0.16030  0.49600  0.99263  1.0000 -0.4856336308
O   O237      1.0  0.77920  0.45730  0.50700  1.0000 -0.465619002
O   O238      1.0  0.71030  0.45620  0.46714  1.0000 -0.5051578325
O   O239      1.0  0.75320  0.56620  0.48479  1.0000 -0.4823368293
O   O240      1.0  0.66030  0.50400  0.50737  1.0000 -0.4856336308
O   O241      1.0  0.72080  0.95730  0.49300  1.0000 -0.465619002
O   O242      1.0  0.78970  0.95620  0.53286  1.0000 -0.5051578325
O   O243      1.0  0.74680  0.06620  0.51521  1.0000 -0.4823368293
O   O244      1.0  0.83970  0.00400  0.49263  1.0000 -0.4823368293
O   O245      1.0  0.22080  0.04270  0.00700  1.0000 -0.465619002
O   O246      1.0  0.28970  0.04380  0.96714  1.0000 -0.5051578325
O   O247      1.0  0.24680  0.93380  0.98479  1.0000 -0.4823368293
O   O248      1.0  0.33970  0.99600  0.00737  1.0000 -0.4856336308
O   O249      1.0  0.72080  0.45730  0.00700  1.0000 -0.465619002
O   O250      1.0  0.78970  0.45620  0.96714  1.0000 -0.5051578325
O   O251      1.0  0.74680  0.56620  0.98479  1.0000 -0.4823368293
O   O252      1.0  0.83970  0.50400  0.00737  1.0000 -0.4823368293
O   O253      1.0  0.22080  0.54270  0.49300  1.0000 -0.465619002
O   O254      1.0  0.28970  0.54380  0.53286  1.0000 -0.5051578325
O   O255      1.0  0.24680  0.43380  0.51521  1.0000 -0.4823368293
O   O256      1.0  0.33970  0.49600  0.49263  1.0000 -0.4856336308
O   O257      1.0  0.27920  0.04270  0.50700  1.0000 -0.465619002
O   O258      1.0  0.21030  0.04380  0.46714  1.0000 -0.5051578325
O   O259      1.0  0.25320  0.93380  0.48479  1.0000 -0.4823368293
O   O260      1.0  0.16030  0.99600  0.50737  1.0000 -0.4856336308
O   O261      1.0  0.77920  0.95730  0.99300  1.0000 -0.465619002
O   O262      1.0  0.71030  0.95620  0.03286  1.0000 -0.5051578325
O   O263      1.0  0.75320  0.06620  0.01521  1.0000 -0.4823368293
O   O264      1.0  0.66030  0.00400  0.99263  1.0000 -0.4856336308
