# DDEC6 charges by PACMAN v1.1 (https://github.com/mtap-research/PACMAN-charge/)
data_2012[Be][nan]3[ION]1
_chemical_formula_sum              "Be12 H240 C192 N24 O96"
_cell_length_a       19.305
_cell_length_b       19.305
_cell_length_c       19.305
_cell_angle_alpha    90
_cell_angle_beta     90
_cell_angle_gamma    90

_symmetry_space_group_name_H-M    "P 1"
_symmetry_Int_Tables_number       1

loop_
  _symmetry_equiv_pos_as_xyz
  'x, y, z'

loop_
  _atom_site_type_symbol
  _atom_site_label
  _atom_site_symmetry_multiplicity
  _atom_site_fract_x
  _atom_site_fract_y
  _atom_site_fract_z
  _atom_site_occupancy
  _atom_site_charge
Be  Be1       1.0  0.00008  0.73871  0.63817  1.0000 0.9351952029
Be  Be2       1.0  0.50010  0.24804  0.11656  1.0000 0.988147254
Be  Be3       1.0  0.00042  0.24828  0.87787  1.0000 0.9784668636
Be  Be4       1.0  0.50854  0.74341  0.37051  1.0000 1.0018221689
Be  Be5       1.0  0.62178  0.99848  0.74428  1.0000 0.9615296078
Be  Be6       1.0  0.12198  0.50068  0.25054  1.0000 0.9784668636
Be  Be7       1.0  0.87446  0.00457  0.24301  1.0000 0.9495496703
Be  Be8       1.0  0.40434  0.53684  0.74182  1.0000 0.8735768152
Be  Be9       1.0  0.74562  0.62366  0.99579  1.0000 0.9705764604
Be  Be10      1.0  0.29668  0.15116  0.50144  1.0000 0.831910069
Be  Be11      1.0  0.24783  0.87696  0.99204  1.0000 0.919199462
Be  Be12      1.0  0.75105  0.36792  0.49987  1.0000 1.0018221689
H   H1        1.0  0.03651  0.82831  0.34558  1.0000 0.0910582558
H   H2        1.0  0.44672  0.40357  0.90269  1.0000 0.0910582558
H   H3        1.0  0.79580  0.06026  0.44739  1.0000 0.2581920074
H   H4        1.0  0.80808  0.03462  0.36608  1.0000 0.2581920074
H   H5        1.0  0.88797  0.12738  0.42408  1.0000 0.1290119572
H   H6        1.0  0.92795  0.05119  0.45835  1.0000 0.1004104878
H   H7        1.0  0.03766  0.94675  0.29470  1.0000 0.1004104878
H   H8        1.0  0.78305  0.93645  0.43143  1.0000 0.1290119572
H   H9        1.0  0.87088  0.93406  0.40238  1.0000 0.1379306811
H   H10       1.0  0.85263  0.95709  0.49038  1.0000 0.1004104878
H   H11       1.0  0.50793  0.16533  0.85661  1.0000 0.0910582558
H   H12       1.0  0.18687  0.43365  0.45390  1.0000 0.2692010772
H   H13       1.0  0.17578  0.46525  0.37431  1.0000 0.2502590553
H   H14       1.0  0.09392  0.37142  0.42298  1.0000 0.1290119572
H   H15       1.0  0.05388  0.44404  0.46352  1.0000 0.1203698883
H   H16       1.0  0.94868  0.55270  0.32275  1.0000 0.1096423319
H   H17       1.0  0.20536  0.55603  0.44986  1.0000 0.1290119572
H   H18       1.0  0.12024  0.56631  0.41553  1.0000 0.1290119572
H   H19       1.0  0.13066  0.53600  0.50295  1.0000 0.1096423319
H   H20       1.0  0.00446  0.65087  0.38557  1.0000 0.1096423319
H   H21       1.0  0.69554  0.93283  0.95199  1.0000 0.2502590553
H   H22       1.0  0.68664  0.95567  0.86957  1.0000 0.2581920074
H   H23       1.0  0.59910  0.87392  0.92704  1.0000 0.1096423319
H   H24       1.0  0.56519  0.95295  0.96174  1.0000 0.1004104878
H   H25       1.0  0.46142  0.07017  0.78320  1.0000 0.1004104878
H   H26       1.0  0.71935  0.05510  0.93211  1.0000 0.1203698883
H   H27       1.0  0.63330  0.06290  0.89915  1.0000 0.1379306811
H   H28       1.0  0.64579  0.04343  0.98869  1.0000 0.1004104878
H   H29       1.0  0.99880  0.33036  0.13814  1.0000 0.0910582558
H   H30       1.0  0.68665  0.06935  0.54745  1.0000 0.2581920074
H   H31       1.0  0.67448  0.04246  0.62851  1.0000 0.2416754206
H   H32       1.0  0.59143  0.13006  0.57299  1.0000 0.1290119572
H   H33       1.0  0.55475  0.05399  0.53507  1.0000 0.1203698883
H   H34       1.0  0.44656  0.93900  0.68082  1.0000 0.1096423319
H   H35       1.0  0.70876  0.94709  0.56001  1.0000 0.1096423319
H   H36       1.0  0.62246  0.93679  0.59060  1.0000 0.1290119572
H   H37       1.0  0.63611  0.96241  0.50257  1.0000 0.1096423319
H   H38       1.0  0.51052  0.84670  0.61726  1.0000 0.1203698883
H   H39       1.0  0.19599  0.56150  0.04674  1.0000 0.2692010772
H   H40       1.0  0.18447  0.53870  0.12912  1.0000 0.2581920074
H   H41       1.0  0.10150  0.62499  0.07204  1.0000 0.1203698883
H   H42       1.0  0.06518  0.54879  0.03439  1.0000 0.1004104878
H   H43       1.0  0.96138  0.43217  0.20724  1.0000 0.0910582558
H   H44       1.0  0.21444  0.43932  0.06346  1.0000 0.1379306811
H   H45       1.0  0.12875  0.43359  0.09806  1.0000 0.1379306811
H   H46       1.0  0.14017  0.45456  0.00865  1.0000 0.0910582558
H   H47       1.0  0.43932  0.58856  0.58840  1.0000 0.1203698883
H   H48       1.0  0.80543  0.92949  0.05196  1.0000 0.2581920074
H   H49       1.0  0.81765  0.95387  0.13380  1.0000 0.2502590553
H   H50       1.0  0.90312  0.87187  0.07729  1.0000 0.1096423319
H   H51       1.0  0.93369  0.94788  0.03435  1.0000 0.1004104878
H   H52       1.0  0.03052  0.07752  0.20617  1.0000 0.0910582558
H   H53       1.0  0.78104  0.05170  0.06703  1.0000 0.1290119572
H   H54       1.0  0.86764  0.06235  0.09775  1.0000 0.1379306811
H   H55       1.0  0.85360  0.03822  0.00965  1.0000 0.1004104878
H   H56       1.0  0.99829  0.18042  0.13602  1.0000 0.1004104878
H   H57       1.0  0.35716  0.00462  0.82228  1.0000 0.0910582558
H   H58       1.0  0.88784  0.46129  0.39007  1.0000 0.0801017423
H   H59       1.0  0.45463  0.81305  0.06001  1.0000 0.2502590553
H   H60       1.0  0.37162  0.81814  0.03682  1.0000 0.2692010772
H   H61       1.0  0.42383  0.90942  0.11636  1.0000 0.1096423319
H   H62       1.0  0.46289  0.94125  0.03896  1.0000 0.1096423319
H   H63       1.0  0.28870  0.04690  0.92284  1.0000 0.1004104878
H   H64       1.0  0.43509  0.78403  0.93877  1.0000 0.1290119572
H   H65       1.0  0.40141  0.86949  0.92749  1.0000 0.1379306811
H   H66       1.0  0.49078  0.85850  0.94888  1.0000 0.1004104878
H   H67       1.0  0.86173  0.50389  0.16698  1.0000 0.0801017423
H   H68       1.0  0.38666  0.03175  0.61517  1.0000 0.1004104878
H   H69       1.0  0.95077  0.69453  0.93825  1.0000 0.2502590553
H   H70       1.0  0.86813  0.68413  0.96055  1.0000 0.2502590553
H   H71       1.0  0.92648  0.60042  0.87513  1.0000 0.1203698883
H   H72       1.0  0.96135  0.56343  0.95267  1.0000 0.1004104878
H   H73       1.0  0.78839  0.46253  0.06926  1.0000 0.0910582558
H   H74       1.0  0.93071  0.71477  0.06020  1.0000 0.1203698883
H   H75       1.0  0.89835  0.62827  0.06620  1.0000 0.1379306811
H   H76       1.0  0.98782  0.64219  0.04663  1.0000 0.1004104878
H   H77       1.0  0.07383  0.04680  0.36257  1.0000 0.0801017423
H   H78       1.0  0.54917  0.69403  0.07096  1.0000 0.2581920074
H   H79       1.0  0.62961  0.68228  0.04280  1.0000 0.2502590553
H   H80       1.0  0.57618  0.59801  0.13010  1.0000 0.1203698883
H   H81       1.0  0.53434  0.56366  0.05491  1.0000 0.1096423319
H   H82       1.0  0.69515  0.47027  0.91467  1.0000 0.1004104878
H   H83       1.0  0.55766  0.71487  0.94746  1.0000 0.1203698883
H   H84       1.0  0.59104  0.62947  0.93810  1.0000 0.1290119572
H   H85       1.0  0.50278  0.64072  0.96480  1.0000 0.1096423319
H   H86       1.0  0.61326  0.54008  0.84366  1.0000 0.1096423319
H   H87       1.0  0.05889  0.12736  0.56397  1.0000 0.2581920074
H   H88       1.0  0.13608  0.11727  0.52971  1.0000 0.2581920074
H   H89       1.0  0.08271  0.01055  0.56498  1.0000 0.0572643624
H   H90       1.0  0.01030  0.02934  0.51120  1.0000 0.0572643624
H   H91       1.0  0.15639  0.00965  0.45539  1.0000 0.0801017423
H   H92       1.0  0.06972  0.20733  0.47304  1.0000 0.1203698883
H   H93       1.0  0.09372  0.13881  0.41561  1.0000 0.1004104878
H   H94       1.0  0.00752  0.14235  0.44802  1.0000 0.1203698883
H   H95       1.0  0.58689  0.42232  0.57467  1.0000 0.1004104878
H   H96       1.0  0.04768  0.81277  0.92117  1.0000 0.2416754206
H   H97       1.0  0.12759  0.82507  0.95265  1.0000 0.2325644446
H   H98       1.0  0.07259  0.91101  0.86739  1.0000 0.1096423319
H   H99       1.0  0.03413  0.94397  0.94521  1.0000 0.1004104878
H   H100      1.0  0.20072  0.03652  0.06722  1.0000 0.0910582558
H   H101      1.0  0.05657  0.78670  0.04500  1.0000 0.1203698883
H   H102      1.0  0.07927  0.87615  0.05721  1.0000 0.1203698883
H   H103      1.0  0.99541  0.85406  0.02564  1.0000 0.1004104878
H   H104      1.0  0.12380  0.99981  0.16543  1.0000 0.053500547
H   H105      1.0  0.82801  0.36235  0.99793  1.0000 0.0910582558
H   H106      1.0  0.43710  0.92941  0.42340  1.0000 0.1004104878
H   H107      1.0  0.06274  0.45342  0.80421  1.0000 0.2502590553
H   H108      1.0  0.04141  0.37056  0.81465  1.0000 0.2502590553
H   H109      1.0  0.12123  0.43222  0.90280  1.0000 0.0910582558
H   H110      1.0  0.04067  0.46372  0.93557  1.0000 0.1096423319
H   H111      1.0  0.92785  0.29111  0.03744  1.0000 0.1004104878
H   H112      1.0  0.94199  0.43194  0.77935  1.0000 0.1379306811
H   H113      1.0  0.93273  0.40085  0.86623  1.0000 0.1379306811
H   H114      1.0  0.95215  0.49022  0.85153  1.0000 0.1096423319
H   H115      1.0  0.12672  0.90663  0.53340  1.0000 0.0572643624
H   H116      1.0  0.42868  0.45000  0.18213  1.0000 0.2771427286
H   H117      1.0  0.44933  0.36702  0.17203  1.0000 0.2502590553
H   H118      1.0  0.37935  0.43472  0.07858  1.0000 0.1203698883
H   H119      1.0  0.46454  0.45808  0.05173  1.0000 0.1096423319
H   H120      1.0  0.53347  0.32176  0.95259  1.0000 0.1004104878
H   H121      1.0  0.54625  0.42694  0.21750  1.0000 0.1290119572
H   H122      1.0  0.56362  0.39624  0.13181  1.0000 0.1290119572
H   H123      1.0  0.54387  0.48559  0.14493  1.0000 0.1004104878
H   H124      1.0  0.65352  0.36279  0.97347  1.0000 0.1004104878
H   H125      1.0  0.91804  0.95366  0.68088  1.0000 0.2502590553
H   H126      1.0  0.94733  0.87219  0.68364  1.0000 0.2502590553
H   H127      1.0  0.87387  0.91162  0.58346  1.0000 0.1096423319
H   H128      1.0  0.95137  0.95243  0.55434  1.0000 0.1004104878
H   H129      1.0  0.07969  0.80945  0.46441  1.0000 0.1004104878
H   H130      1.0  0.04016  0.93685  0.72232  1.0000 0.1203698883
H   H131      1.0  0.05852  0.91487  0.63436  1.0000 0.1096423319
H   H132      1.0  0.02685  0.00027  0.65524  1.0000 0.1004104878
H   H133      1.0  0.33262  0.14631  0.99308  1.0000 0.0910582558
H   H134      1.0  0.92339  0.57255  0.57838  1.0000 0.1004104878
H   H135      1.0  0.57366  0.04354  0.19792  1.0000 0.2771427286
H   H136      1.0  0.55068  0.12565  0.18707  1.0000 0.2581920074
H   H137      1.0  0.62827  0.06662  0.09877  1.0000 0.1203698883
H   H138      1.0  0.54905  0.02910  0.06908  1.0000 0.1004104878
H   H139      1.0  0.43865  0.20886  0.95654  1.0000 0.0910582558
H   H140      1.0  0.45273  0.06558  0.22697  1.0000 0.1290119572
H   H141      1.0  0.44012  0.09217  0.13905  1.0000 0.1379306811
H   H142      1.0  0.46167  0.00383  0.15747  1.0000 0.1004104878
H   H143      1.0  0.59387  0.58967  0.42705  1.0000 0.1290119572
H   H144      1.0  0.92900  0.05107  0.80630  1.0000 0.2581920074
H   H145      1.0  0.95059  0.13364  0.81808  1.0000 0.2416754206
H   H146      1.0  0.87312  0.07372  0.90547  1.0000 0.1096423319
H   H147      1.0  0.95198  0.03561  0.93504  1.0000 0.1004104878
H   H148      1.0  0.07364  0.21722  0.03747  1.0000 0.1004104878
H   H149      1.0  0.05011  0.07294  0.77889  1.0000 0.1203698883
H   H150      1.0  0.06144  0.10098  0.86637  1.0000 0.1379306811
H   H151      1.0  0.04048  0.01257  0.84967  1.0000 0.1004104878
H   H152      1.0  0.16969  0.14075  0.99860  1.0000 0.1004104878
H   H153      1.0  0.16543  0.16965  0.66675  1.0000 0.1004104878
H   H154      1.0  0.67288  0.67161  0.17050  1.0000 0.1004104878
H   H155      1.0  0.41802  0.70996  0.10891  1.0000 0.0572643624
H   H156      1.0  0.67256  0.43805  0.70166  1.0000 0.2771427286
H   H157      1.0  0.70334  0.42778  0.62206  1.0000 0.2581920074
H   H158      1.0  0.61664  0.34082  0.67404  1.0000 0.1290119572
H   H159      1.0  0.69230  0.30689  0.71427  1.0000 0.1203698883
H   H160      1.0  0.80204  0.20191  0.56835  1.0000 0.1004104878
H   H161      1.0  0.79621  0.46193  0.69474  1.0000 0.1203698883
H   H162      1.0  0.80797  0.37671  0.66127  1.0000 0.1290119572
H   H163      1.0  0.78001  0.38746  0.74934  1.0000 0.1096423319
H   H164      1.0  0.90098  0.25745  0.63073  1.0000 0.1096423319
H   H165      1.0  0.17379  0.91957  0.21157  1.0000 0.2581920074
H   H166      1.0  0.19741  0.92266  0.12818  1.0000 0.2581920074
H   H167      1.0  0.12374  0.82217  0.17049  1.0000 0.1290119572
H   H168      1.0  0.20326  0.79188  0.20624  1.0000 0.1203698883
H   H169      1.0  0.29720  0.69409  0.06808  1.0000 0.1004104878
H   H170      1.0  0.29473  0.95718  0.19239  1.0000 0.1096423319
H   H171      1.0  0.30975  0.87133  0.16010  1.0000 0.1203698883
H   H172      1.0  0.28434  0.88311  0.24782  1.0000 0.1004104878
H   H173      1.0  0.59792  0.25671  0.36871  1.0000 0.1203698883
H   H174      1.0  0.13276  0.75935  0.87628  1.0000 0.0801017423
H   H175      1.0  0.81561  0.43949  0.30047  1.0000 0.2692010772
H   H176      1.0  0.78593  0.42615  0.38027  1.0000 0.2502590553
H   H177      1.0  0.87892  0.34645  0.32631  1.0000 0.1290119572
H   H178      1.0  0.80577  0.30790  0.28547  1.0000 0.1203698883
H   H179      1.0  0.69816  0.20047  0.42747  1.0000 0.1004104878
H   H180      1.0  0.69393  0.45829  0.30692  1.0000 0.1290119572
H   H181      1.0  0.68354  0.37248  0.33956  1.0000 0.1203698883
H   H182      1.0  0.71242  0.38476  0.25183  1.0000 0.1203698883
H   H183      1.0  0.85377  0.70911  0.85937  1.0000 0.0801017423
H   H184      1.0  0.19180  0.07749  0.29133  1.0000 0.2502590553
H   H185      1.0  0.22254  0.07922  0.37190  1.0000 0.2581920074
H   H186      1.0  0.13754  0.17476  0.32768  1.0000 0.1203698883
H   H187      1.0  0.21517  0.20890  0.29219  1.0000 0.1290119572
H   H188      1.0  0.31389  0.31332  0.43026  1.0000 0.1004104878
H   H189      1.0  0.31375  0.04910  0.29937  1.0000 0.1203698883
H   H190      1.0  0.32797  0.13208  0.33675  1.0000 0.1290119572
H   H191      1.0  0.29953  0.12678  0.24845  1.0000 0.1203698883
H   H192      1.0  0.40943  0.25391  0.36639  1.0000 0.1203698883
H   H193      1.0  0.20824  0.64830  0.15060  1.0000 0.0910582558
H   H194      1.0  0.71178  0.14051  0.63648  1.0000 0.0801017423
H   H195      1.0  0.78754  0.14067  0.35622  1.0000 0.0801017423
H   H196      1.0  0.33548  0.68112  0.82714  1.0000 0.1203698883
H   H197      1.0  0.28875  0.35095  0.62991  1.0000 0.1096423319
H   H198      1.0  0.82273  0.83552  0.15890  1.0000 0.0910582558
H   H199      1.0  0.40885  0.31733  0.81304  1.0000 0.2692010772
H   H200      1.0  0.38072  0.39224  0.78399  1.0000 0.2502590553
H   H201      1.0  0.29265  0.32268  0.84174  1.0000 0.1004104878
H   H202      1.0  0.30976  0.25431  0.78220  1.0000 0.1004104878
H   H203      1.0  0.25207  0.39671  0.74257  1.0000 0.0910582558
H   H204      1.0  0.46531  0.33093  0.70979  1.0000 0.1290119572
H   H205      1.0  0.38849  0.35871  0.66748  1.0000 0.1203698883
H   H206      1.0  0.39727  0.26918  0.69224  1.0000 0.1203698883
H   H207      1.0  0.67080  0.82834  0.82085  1.0000 0.1004104878
H   H208      1.0  0.21918  0.36961  0.36293  1.0000 0.0801017423
H   H209      1.0  0.66864  0.17634  0.17284  1.0000 0.1004104878
H   H210      1.0  0.20125  0.81573  0.57292  1.0000 0.2416754206
H   H211      1.0  0.12011  0.78822  0.58195  1.0000 0.2502590553
H   H212      1.0  0.18010  0.86413  0.67637  1.0000 0.1096423319
H   H213      1.0  0.21299  0.78229  0.70239  1.0000 0.1290119572
H   H214      1.0  0.07911  0.66838  0.80392  1.0000 0.1004104878
H   H215      1.0  0.18806  0.69690  0.53689  1.0000 0.1203698883
H   H216      1.0  0.15846  0.67694  0.62206  1.0000 0.1290119572
H   H217      1.0  0.24631  0.70470  0.60979  1.0000 0.1203698883
H   H218      1.0  0.15447  0.59504  0.72880  1.0000 0.1096423319
H   H219      1.0  0.16308  0.33530  0.81443  1.0000 0.0910582558
H   H220      1.0  0.66702  0.83757  0.31938  1.0000 0.1203698883
H   H221      1.0  0.37116  0.59227  0.29271  1.0000 0.1004104878
H   H222      1.0  0.82702  0.17096  0.82285  1.0000 0.1004104878
H   H223      1.0  0.32261  0.82006  0.43945  1.0000 0.2581920074
H   H224      1.0  0.40398  0.79526  0.42358  1.0000 0.2502590553
H   H225      1.0  0.33824  0.87613  0.34050  1.0000 0.1096423319
H   H226      1.0  0.30167  0.79676  0.31016  1.0000 0.1004104878
H   H227      1.0  0.45521  0.65983  0.22197  1.0000 0.1004104878
H   H228      1.0  0.33421  0.69932  0.46510  1.0000 0.1290119572
H   H229      1.0  0.36380  0.68550  0.37881  1.0000 0.1290119572
H   H230      1.0  0.27595  0.71174  0.39244  1.0000 0.1096423319
H   H231      1.0  0.86856  0.90664  0.75690  1.0000 0.0801017423
H   H232      1.0  0.32627  0.32865  0.17311  1.0000 0.1004104878
H   H233      1.0  0.78979  0.66111  0.57075  1.0000 0.2771427286
H   H234      1.0  0.86961  0.69197  0.57675  1.0000 0.2502590553
H   H235      1.0  0.82067  0.61088  0.67021  1.0000 0.1290119572
H   H236      1.0  0.78235  0.68878  0.70141  1.0000 0.1203698883
H   H237      1.0  0.92652  0.79931  0.80365  1.0000 0.0910582558
H   H238      1.0  0.79683  0.78351  0.53939  1.0000 0.1290119572
H   H239      1.0  0.82717  0.79989  0.62564  1.0000 0.1096423319
H   H240      1.0  0.74079  0.76892  0.61293  1.0000 0.1290119572
C   C1        1.0  0.05712  0.87191  0.37524  1.0000 -0.0808871123
C   C2        1.0  0.08207  0.86159  0.44283  1.0000 -0.116944024
C   C3        1.0  0.95651  0.84025  0.55596  1.0000 0.5499971501
C   C4        1.0  0.50198  0.41554  0.90070  1.0000 -0.116944024
C   C5        1.0  0.54997  0.37186  0.93251  1.0000 -0.0879599283
C   C6        1.0  0.44353  0.34830  0.04325  1.0000 0.5424543146
C   C7        1.0  0.89742  0.07211  0.41515  1.0000 -0.2010627138
C   C8        1.0  0.83427  0.95993  0.43695  1.0000 -0.2598298582
C   C9        1.0  0.45839  0.14121  0.86950  1.0000 -0.1010114151
C   C10       1.0  0.42077  0.16428  0.92680  1.0000 -0.1094779522
C   C11       1.0  0.55379  0.14051  0.05480  1.0000 0.5499971501
C   C12       1.0  0.08525  0.42746  0.41898  1.0000 -0.1899894707
C   C13       1.0  0.15246  0.53573  0.45058  1.0000 -0.2520021422
C   C14       1.0  0.97491  0.61182  0.41384  1.0000 -0.0879599283
C   C15       1.0  0.97234  0.61376  0.48612  1.0000 -0.0381094131
C   C16       1.0  0.01569  0.66487  0.52592  1.0000 0.5209558218
C   C17       1.0  0.59397  0.92984  0.91826  1.0000 -0.1899894707
C   C18       1.0  0.66624  0.03607  0.93648  1.0000 -0.2676294829
C   C19       1.0  0.95208  0.35871  0.12351  1.0000 -0.1010114151
C   C20       1.0  0.91350  0.33783  0.06591  1.0000 -0.1010114151
C   C21       1.0  0.05247  0.35237  0.94487  1.0000 0.5499971501
C   C22       1.0  0.58432  0.07409  0.57933  1.0000 -0.1899894707
C   C23       1.0  0.65563  0.96641  0.55567  1.0000 -0.2520021422
C   C24       1.0  0.48056  0.88553  0.58893  1.0000 -0.0808871123
C   C25       1.0  0.48086  0.88525  0.51666  1.0000 -0.0381094131
C   C26       1.0  0.52384  0.83255  0.47770  1.0000 0.5424543146
C   C27       1.0  0.09402  0.56912  0.07920  1.0000 -0.1899894707
C   C28       1.0  0.16187  0.45999  0.06057  1.0000 -0.2598298582
C   C29       1.0  0.48445  0.56482  0.56366  1.0000 -0.0879599283
C   C30       1.0  0.51239  0.59429  0.50386  1.0000 -0.0203235533
C   C31       1.0  0.47971  0.65909  0.47420  1.0000 0.5209558218
C   C32       1.0  0.90827  0.92833  0.08147  1.0000 -0.1899894707
C   C33       1.0  0.83430  0.03312  0.06260  1.0000 -0.2676294829
C   C34       1.0  0.04450  0.15062  0.12272  1.0000 -0.0879599283
C   C35       1.0  0.08513  0.16972  0.06596  1.0000 -0.0879599283
C   C36       1.0  0.94805  0.14687  0.95017  1.0000 0.5499971501
C   C37       1.0  0.37399  0.05064  0.85058  1.0000 -0.1010114151
C   C38       1.0  0.43383  0.08570  0.83011  1.0000 -0.1010114151
C   C39       1.0  0.55627  0.94607  0.85000  1.0000 0.5499971501
C   C40       1.0  0.90395  0.50902  0.41569  1.0000 -0.0879599283
C   C41       1.0  0.94195  0.55811  0.37873  1.0000 -0.0808871123
C   C42       1.0  0.04841  0.44555  0.35082  1.0000 0.5499971501
C   C43       1.0  0.41798  0.91320  0.05994  1.0000 -0.1899894707
C   C44       1.0  0.43863  0.83784  0.95599  1.0000 -0.2676294829
C   C45       1.0  0.87465  0.45574  0.14024  1.0000 -0.1094779522
C   C46       1.0  0.93205  0.41700  0.16135  1.0000 -0.1094779522
C   C47       1.0  0.05343  0.55334  0.14597  1.0000 0.5499971501
C   C48       1.0  0.40810  0.98731  0.58752  1.0000 -0.1010114151
C   C49       1.0  0.44350  0.93648  0.62433  1.0000 -0.0683111373
C   C50       1.0  0.54671  0.05778  0.64754  1.0000 0.5499971501
C   C51       1.0  0.91767  0.59274  0.93072  1.0000 -0.1899894707
C   C52       1.0  0.93533  0.66209  0.03999  1.0000 -0.2676294829
C   C53       1.0  0.07699  0.99527  0.38511  1.0000 -0.2188231396
C   C54       1.0  0.05714  0.93913  0.34700  1.0000 -0.1094779522
C   C55       1.0  0.93579  0.05990  0.34691  1.0000 0.5499971501
C   C56       1.0  0.58031  0.59160  0.07372  1.0000 -0.1899894707
C   C57       1.0  0.55534  0.66201  0.96750  1.0000 -0.2598298582
C   C58       1.0  0.59504  0.49392  0.87087  1.0000 -0.1010114151
C   C59       1.0  0.52469  0.47615  0.86816  1.0000 -0.0318357303
C   C60       1.0  0.47593  0.51911  0.82602  1.0000 0.4867047918
C   C61       1.0  0.06695  0.03281  0.51525  1.0000 -0.0808871123
C   C62       1.0  0.06183  0.15271  0.46013  1.0000 -0.2598298582
C   C63       1.0  0.56897  0.47311  0.55718  1.0000 -0.116944024
C   C64       1.0  0.51431  0.50494  0.59170  1.0000 -0.0318357303
C   C65       1.0  0.48938  0.47482  0.65903  1.0000 0.503501947
C   C66       1.0  0.07849  0.91545  0.92369  1.0000 -0.1899894707
C   C67       1.0  0.05006  0.83947  0.02549  1.0000 -0.2676294829
C   C68       1.0  0.11571  0.04926  0.13944  1.0000 -0.13205839
C   C69       1.0  0.06108  0.09154  0.16075  1.0000 -0.1010114151
C   C70       1.0  0.95161  0.94958  0.14495  1.0000 0.5499971501
C   C71       1.0  0.85602  0.37649  0.04502  1.0000 -0.1010114151
C   C72       1.0  0.83535  0.43427  0.08336  1.0000 -0.1010114151
C   C73       1.0  0.84963  0.55396  0.94467  1.0000 0.5499971501
C   C74       1.0  0.43845  0.93131  0.47997  1.0000 -0.1409161362
C   C75       1.0  0.40182  0.98283  0.51554  1.0000 -0.0318357303
C   C76       1.0  0.35467  0.03328  0.47818  1.0000 0.5101005686
C   C77       1.0  0.06565  0.42122  0.90695  1.0000 -0.1899894707
C   C78       1.0  0.95990  0.43744  0.83274  1.0000 -0.2676294829
C   C79       1.0  0.10596  0.91562  0.48156  1.0000 -0.18151136
C   C80       1.0  0.10306  0.98909  0.45729  1.0000 0.0079381242
C   C81       1.0  0.24148  0.99926  0.60423  1.0000 0.6815230203
C   C82       1.0  0.43376  0.41873  0.07909  1.0000 -0.18151136
C   C83       1.0  0.53348  0.43289  0.16268  1.0000 -0.2598298582
C   C84       1.0  0.61852  0.39289  0.94074  1.0000 -0.0683111373
C   C85       1.0  0.64143  0.45351  0.90872  1.0000 -0.0879599283
C   C86       1.0  0.64601  0.55143  0.05308  1.0000 0.5499971501
C   C87       1.0  0.93067  0.90919  0.58500  1.0000 -0.1899894707
C   C88       1.0  0.02480  0.94509  0.66842  1.0000 -0.2598298582
C   C89       1.0  0.36026  0.13000  0.94649  1.0000 -0.1010114151
C   C90       1.0  0.33650  0.07344  0.90811  1.0000 -0.1010114151
C   C91       1.0  0.35120  0.95084  0.03982  1.0000 0.5499971501
C   C92       1.0  0.92685  0.56966  0.52192  1.0000 -0.13205839
C   C93       1.0  0.88927  0.51932  0.48594  1.0000 -0.0318357303
C   C94       1.0  0.83299  0.47743  0.52170  1.0000 0.5303298664
C   C95       1.0  0.57208  0.07425  0.09520  1.0000 -0.1899894707
C   C96       1.0  0.46906  0.05769  0.17333  1.0000 -0.2598298582
C   C97       1.0  0.57098  0.56513  0.47260  1.0000 -0.0808871123
C   C98       1.0  0.60018  0.50480  0.50010  1.0000 -0.0203235533
C   C99       1.0  0.66521  0.47180  0.47120  1.0000 0.5303298664
C   C100      1.0  0.92931  0.08106  0.90919  1.0000 -0.18151136
C   C101      1.0  0.03297  0.06588  0.83235  1.0000 -0.2676294829
C   C102      1.0  0.14031  0.12789  0.04520  1.0000 -0.0879599283
C   C103      1.0  0.15650  0.06817  0.08264  1.0000 -0.1094779522
C   C104      1.0  0.14638  0.95222  0.94345  1.0000 0.5499971501
C   C105      1.0  0.18340  0.22081  0.68248  1.0000 -0.1094779522
C   C106      1.0  0.15231  0.25518  0.73878  1.0000 -0.0203235533
C   C107      1.0  0.08540  0.22733  0.76926  1.0000 0.5424543146
C   C108      1.0  0.69168  0.72203  0.18817  1.0000 -0.1010114151
C   C109      1.0  0.66277  0.75221  0.24689  1.0000 -0.0203235533
C   C110      1.0  0.60014  0.71867  0.28003  1.0000 0.5101005686
C   C111      1.0  0.38102  0.68148  0.14087  1.0000 -0.1010114151
C   C112      1.0  0.40195  0.65292  0.20387  1.0000 -0.1010114151
C   C113      1.0  0.41137  0.80610  0.28989  1.0000 0.5678594661
C   C114      1.0  0.67295  0.33579  0.66916  1.0000 -0.1899894707
C   C115      1.0  0.77742  0.40856  0.69674  1.0000 -0.2598298582
C   C116      1.0  0.86291  0.22623  0.65860  1.0000 -0.0808871123
C   C117      1.0  0.86647  0.22153  0.73062  1.0000 -0.0381094131
C   C118      1.0  0.91908  0.26339  0.76989  1.0000 0.5303298664
C   C119      1.0  0.18031  0.82337  0.16474  1.0000 -0.18151136
C   C120      1.0  0.27868  0.90289  0.19522  1.0000 -0.2676294829
C   C121      1.0  0.63554  0.22673  0.33892  1.0000 -0.0808871123
C   C122      1.0  0.63062  0.22406  0.26677  1.0000 -0.0318357303
C   C123      1.0  0.57802  0.26715  0.22857  1.0000 0.5209558218
C   C124      1.0  0.16544  0.71999  0.85241  1.0000 -0.1010114151
C   C125      1.0  0.13536  0.67125  0.80851  1.0000 -0.0879599283
C   C126      1.0  0.10132  0.79179  0.71196  1.0000 0.5424543146
C   C127      1.0  0.82307  0.33709  0.33117  1.0000 -0.1899894707
C   C128      1.0  0.71373  0.40527  0.30467  1.0000 -0.2520021422
C   C129      1.0  0.83083  0.75861  0.84473  1.0000 -0.1094779522
C   C130      1.0  0.87092  0.80736  0.80985  1.0000 -0.1010114151
C   C131      1.0  0.89465  0.68791  0.70671  1.0000 0.5424543146
C   C132      1.0  0.19406  0.17656  0.33388  1.0000 -0.18151136
C   C133      1.0  0.29650  0.10304  0.29982  1.0000 -0.2520021422
C   C134      1.0  0.36950  0.28256  0.33840  1.0000 -0.0808871123
C   C135      1.0  0.36947  0.28267  0.26613  1.0000 -0.0381094131
C   C136      1.0  0.42010  0.23820  0.22698  1.0000 0.5209558218
C   C137      1.0  0.26334  0.64560  0.16352  1.0000 -0.13205839
C   C138      1.0  0.31216  0.67540  0.11938  1.0000 -0.1094779522
C   C139      1.0  0.20252  0.79721  0.09352  1.0000 0.5424543146
C   C140      1.0  0.76064  0.15475  0.66097  1.0000 -0.1010114151
C   C141      1.0  0.80892  0.19347  0.62381  1.0000 -0.0808871123
C   C142      1.0  0.69323  0.29810  0.60207  1.0000 0.5424543146
C   C143      1.0  0.73821  0.15559  0.33292  1.0000 -0.1010114151
C   C144      1.0  0.69044  0.19343  0.37188  1.0000 -0.0879599283
C   C145      1.0  0.80757  0.29608  0.39751  1.0000 0.5499971501
C   C146      1.0  0.27920  0.68012  0.82089  1.0000 -0.116944024
C   C147      1.0  0.23705  0.72069  0.86339  1.0000 -0.0203235533
C   C148      1.0  0.26706  0.76643  0.91961  1.0000 0.5209558218
C   C149      1.0  0.25907  0.31865  0.66578  1.0000 -0.116944024
C   C150      1.0  0.23722  0.25402  0.64595  1.0000 -0.0203235533
C   C151      1.0  0.27046  0.21891  0.58529  1.0000 0.4446555925
C   C152      1.0  0.77537  0.81464  0.18172  1.0000 -0.116944024
C   C153      1.0  0.74536  0.75561  0.15277  1.0000 -0.0381094131
C   C154      1.0  0.77025  0.72816  0.08407  1.0000 0.5303298664
C   C155      1.0  0.30568  0.31099  0.78755  1.0000 -0.0617467399
C   C156      1.0  0.40936  0.32287  0.70609  1.0000 -0.2598298582
C   C157      1.0  0.72715  0.82349  0.81932  1.0000 -0.13205839
C   C158      1.0  0.76073  0.77206  0.85780  1.0000 -0.0318357303
C   C159      1.0  0.72352  0.73131  0.91333  1.0000 0.5303298664
C   C160      1.0  0.26641  0.35283  0.33678  1.0000 -0.1010114151
C   C161      1.0  0.31708  0.31709  0.37383  1.0000 -0.0808871123
C   C162      1.0  0.21522  0.20507  0.40448  1.0000 0.5303298664
C   C163      1.0  0.67307  0.17887  0.22926  1.0000 -0.13205839
C   C164      1.0  0.72467  0.14129  0.26313  1.0000 -0.0318357303
C   C165      1.0  0.76354  0.08494  0.22481  1.0000 0.5303298664
C   C166      1.0  0.16993  0.80825  0.67581  1.0000 -0.1899894707
C   C167      1.0  0.19281  0.71017  0.59179  1.0000 -0.2520021422
C   C168      1.0  0.17734  0.63132  0.76572  1.0000 -0.1010114151
C   C169      1.0  0.24901  0.64087  0.76790  1.0000 -0.0318357303
C   C170      1.0  0.29422  0.60557  0.71516  1.0000 0.503501947
C   C171      1.0  0.18258  0.31327  0.76621  1.0000 -0.1503895988
C   C172      1.0  0.24822  0.34045  0.73763  1.0000 -0.0203235533
C   C173      1.0  0.25181  0.50637  0.84983  1.0000 0.6734276963
C   C174      1.0  0.68989  0.81410  0.27325  1.0000 -0.0879599283
C   C175      1.0  0.74601  0.84575  0.24045  1.0000 -0.0318357303
C   C176      1.0  0.77488  0.91359  0.26640  1.0000 0.5303298664
C   C177      1.0  0.35421  0.61743  0.24495  1.0000 -0.1010114151
C   C178      1.0  0.28427  0.61458  0.22577  1.0000 -0.0318357303
C   C179      1.0  0.23264  0.57614  0.27064  1.0000 0.5209558218
C   C180      1.0  0.82351  0.17507  0.76648  1.0000 -0.13205839
C   C181      1.0  0.77282  0.13794  0.73044  1.0000 -0.0318357303
C   C182      1.0  0.73243  0.08003  0.76452  1.0000 0.5303298664
C   C183      1.0  0.34703  0.82023  0.33551  1.0000 -0.1899894707
C   C184      1.0  0.32928  0.71638  0.41134  1.0000 -0.2598298582
C   C185      1.0  0.83862  0.86379  0.77846  1.0000 -0.116944024
C   C186      1.0  0.76626  0.86630  0.77555  1.0000 -0.0318357303
C   C187      1.0  0.73130  0.91707  0.72791  1.0000 0.5209558218
C   C188      1.0  0.32460  0.32682  0.22970  1.0000 -0.13205839
C   C189      1.0  0.27452  0.36476  0.26581  1.0000 -0.0318357303
C   C190      1.0  0.23095  0.41939  0.23004  1.0000 0.5303298664
C   C191      1.0  0.82616  0.66740  0.67191  1.0000 -0.18151136
C   C192      1.0  0.79415  0.76688  0.59357  1.0000 -0.2520021422
N   N1        1.0  0.82954  0.03421  0.41532  1.0000 -0.1503895988
N   N2        1.0  0.15424  0.46309  0.42354  1.0000 -0.1503895988
N   N3        1.0  0.66503  0.96076  0.91835  1.0000 -0.1503895988
N   N4        1.0  0.65443  0.04043  0.57853  1.0000 -0.1660582272
N   N5        1.0  0.16356  0.53505  0.07978  1.0000 -0.1503895988
N   N6        1.0  0.83699  0.95863  0.08353  1.0000 -0.1503895988
N   N7        1.0  0.41977  0.84126  0.03112  1.0000 -0.1584765015
N   N8        1.0  0.91716  0.66267  0.96474  1.0000 -0.1503895988
N   N9        1.0  0.57971  0.66204  0.04120  1.0000 -0.1584765015
N   N10       1.0  0.08386  0.10913  0.52017  1.0000 -0.18151136
N   N11       1.0  0.07707  0.84368  0.95322  1.0000 -0.1584765015
N   N12       1.0  0.03540  0.41981  0.83541  1.0000 -0.1409161362
N   N13       1.0  0.45826  0.41655  0.15288  1.0000 -0.1503895988
N   N14       1.0  0.95238  0.91932  0.65868  1.0000 -0.1660582272
N   N15       1.0  0.54415  0.07618  0.16758  1.0000 -0.1409161362
N   N16       1.0  0.95771  0.08379  0.83713  1.0000 -0.1503895988
N   N17       1.0  0.70395  0.40700  0.67156  1.0000 -0.1503895988
N   N18       1.0  0.20440  0.89655  0.17442  1.0000 -0.1584765015
N   N19       1.0  0.78690  0.40595  0.33041  1.0000 -0.1503895988
N   N20       1.0  0.22305  0.10489  0.32487  1.0000 -0.1660582272
N   N21       1.0  0.37777  0.33904  0.77532  1.0000 -0.1899894707
N   N22       1.0  0.16978  0.78362  0.60180  1.0000 -0.1584765015
N   N23       1.0  0.35203  0.79029  0.40659  1.0000 -0.1584765015
N   N24       1.0  0.82091  0.69419  0.59906  1.0000 -0.1409161362
O   O1        1.0  0.00634  0.81138  0.59175  1.0000 -0.5297201749
O   O2        1.0  0.92907  0.81769  0.50284  1.0000 -0.5005582519
O   O3        1.0  0.49755  0.31387  0.06449  1.0000 -0.4785227417
O   O4        1.0  0.40317  0.33151  0.99634  1.0000 -0.5120880353
O   O5        1.0  0.49960  0.17330  0.07826  1.0000 -0.4785227417
O   O6        1.0  0.58922  0.15527  0.00373  1.0000 -0.4915742259
O   O7        1.0  0.99675  0.67085  0.59036  1.0000 -0.5208987668
O   O8        1.0  0.06438  0.69547  0.49703  1.0000 -0.5208987668
O   O9        1.0  0.99828  0.31914  0.92244  1.0000 -0.4707263372
O   O10       1.0  0.09141  0.33533  0.99265  1.0000 -0.4915742259
O   O11       1.0  0.49210  0.81019  0.42195  1.0000 -0.5208987668
O   O12       1.0  0.58164  0.81673  0.49941  1.0000 -0.5120880353
O   O13       1.0  0.49657  0.67113  0.41037  1.0000 -0.4606596756
O   O14       1.0  0.43946  0.69319  0.51110  1.0000 -0.5208987668
O   O15       1.0  0.00212  0.17979  0.92670  1.0000 -0.4785227417
O   O16       1.0  0.91291  0.16191  0.00142  1.0000 -0.4915742259
O   O17       1.0  0.58118  0.00000  0.81770  1.0000 -0.4707263372
O   O18       1.0  0.50659  0.90980  0.83304  1.0000 -0.4915742259
O   O19       1.0  0.07400  0.49947  0.31927  1.0000 -0.4785227417
O   O20       1.0  0.99800  0.41040  0.33258  1.0000 -0.5005582519
O   O21       1.0  0.07610  0.49982  0.18036  1.0000 -0.4785227417
O   O22       1.0  0.00269  0.58971  0.15948  1.0000 -0.4915742259
O   O23       1.0  0.57045  0.00298  0.67923  1.0000 -0.4707263372
O   O24       1.0  0.49770  0.09448  0.66563  1.0000 -0.5005582519
O   O25       1.0  0.91752  0.00347  0.31494  1.0000 -0.4785227417
O   O26       1.0  0.98054  0.10204  0.32811  1.0000 -0.4915742259
O   O27       1.0  0.41302  0.49418  0.81399  1.0000 -0.4915742259
O   O28       1.0  0.49555  0.57376  0.79787  1.0000 -0.4606596756
O   O29       1.0  0.42758  0.49529  0.67733  1.0000 -0.4707263372
O   O30       1.0  0.52696  0.43382  0.69126  1.0000 -0.5208987668
O   O31       1.0  0.92892  0.00331  0.17841  1.0000 -0.4785227417
O   O32       1.0  0.00525  0.91651  0.15759  1.0000 -0.5208987668
O   O33       1.0  0.81549  0.57748  0.99795  1.0000 -0.4707263372
O   O34       1.0  0.83412  0.50427  0.90751  1.0000 -0.5005582519
O   O35       1.0  0.35387  0.09499  0.50611  1.0000 -0.4606596756
O   O36       1.0  0.31912  0.01388  0.42811  1.0000 -0.5416520524
O   O37       1.0  0.21934  0.02008  0.55155  1.0000 -0.4255875396
O   O38       1.0  0.26169  0.97692  0.65715  1.0000 -0.3480122733
O   O39       1.0  0.67707  0.57546  0.99819  1.0000 -0.4785227417
O   O40       1.0  0.66234  0.50010  0.08754  1.0000 -0.5005582519
O   O41       1.0  0.31713  0.92321  0.98858  1.0000 -0.4707263372
O   O42       1.0  0.33510  0.00347  0.07287  1.0000 -0.5005582519
O   O43       1.0  0.81922  0.41901  0.49123  1.0000 -0.5297201749
O   O44       1.0  0.80477  0.50117  0.57458  1.0000 -0.5588940231
O   O45       1.0  0.68039  0.41377  0.50193  1.0000 -0.5208987668
O   O46       1.0  0.69790  0.49986  0.42357  1.0000 -0.5297201749
O   O47       1.0  0.17780  0.92505  0.99723  1.0000 -0.5120880353
O   O48       1.0  0.16501  0.00328  0.90996  1.0000 -0.4785227417
O   O49       1.0  0.06879  0.25597  0.82798  1.0000 -0.5208987668
O   O50       1.0  0.05294  0.18157  0.73777  1.0000 -0.5416520524
O   O51       1.0  0.58418  0.74630  0.33895  1.0000 -0.4606596756
O   O52       1.0  0.57068  0.67035  0.24919  1.0000 -0.5297201749
O   O53       1.0  0.45042  0.75558  0.30883  1.0000 -0.4785227417
O   O54       1.0  0.41715  0.84174  0.23660  1.0000 -0.5416520524
O   O55       1.0  0.93045  0.23903  0.83195  1.0000 -0.5120880353
O   O56       1.0  0.94627  0.31486  0.74292  1.0000 -0.5120880353
O   O57       1.0  0.57000  0.24852  0.16424  1.0000 -0.5208987668
O   O58       1.0  0.54847  0.31525  0.25928  1.0000 -0.5208987668
O   O59       1.0  0.06776  0.73940  0.68655  1.0000 -0.4915742259
O   O60       1.0  0.08309  0.82799  0.76207  1.0000 -0.5297201749
O   O61       1.0  0.92566  0.74136  0.67889  1.0000 -0.5297201749
O   O62       1.0  0.91420  0.65476  0.75797  1.0000 -0.5208987668
O   O63       1.0  0.43067  0.25985  0.16396  1.0000 -0.5208987668
O   O64       1.0  0.44625  0.18679  0.25524  1.0000 -0.5208987668
O   O65       1.0  0.25315  0.83214  0.06554  1.0000 -0.5120880353
O   O66       1.0  0.17173  0.74719  0.06746  1.0000 -0.5208987668
O   O67       1.0  0.74766  0.32387  0.57147  1.0000 -0.5005582519
O   O68       1.0  0.65934  0.24674  0.58423  1.0000 -0.5208987668
O   O69       1.0  0.75483  0.31864  0.43267  1.0000 -0.4915742259
O   O70       1.0  0.84353  0.24459  0.41050  1.0000 -0.5208987668
O   O71       1.0  0.23323  0.82454  0.92812  1.0000 -0.5005582519
O   O72       1.0  0.31882  0.74740  0.95275  1.0000 -0.5208987668
O   O73       1.0  0.24425  0.15899  0.56571  1.0000 -0.4707263372
O   O74       1.0  0.32192  0.24345  0.55446  1.0000 -0.4523389983
O   O75       1.0  0.73796  0.67234  0.06487  1.0000 -0.5208987668
O   O76       1.0  0.81665  0.75921  0.05188  1.0000 -0.5506077456
O   O77       1.0  0.75253  0.67206  0.92688  1.0000 -0.5120880353
O   O78       1.0  0.67132  0.75627  0.94171  1.0000 -0.5506077456
O   O79       1.0  0.27001  0.17480  0.42969  1.0000 -0.4785227417
O   O80       1.0  0.18134  0.25205  0.43162  1.0000 -0.5120880353
O   O81       1.0  0.82494  0.07269  0.24913  1.0000 -0.5120880353
O   O82       1.0  0.73479  0.05525  0.17529  1.0000 -0.5506077456
O   O83       1.0  0.35912  0.60118  0.73476  1.0000 -0.4606596756
O   O84       1.0  0.26843  0.58273  0.66135  1.0000 -0.5005582519
O   O85       1.0  0.26169  0.48853  0.79257  1.0000 -0.3895265805
O   O86       1.0  0.24075  0.52309  0.90732  1.0000 -0.3597706008
O   O87       1.0  0.82854  0.93453  0.23085  1.0000 -0.5208987668
O   O88       1.0  0.74831  0.94403  0.31633  1.0000 -0.5208987668
O   O89       1.0  0.17152  0.56961  0.24278  1.0000 -0.5208987668
O   O90       1.0  0.25137  0.55337  0.32787  1.0000 -0.5416520524
O   O91       1.0  0.67432  0.06582  0.73349  1.0000 -0.5208987668
O   O92       1.0  0.75664  0.05037  0.81640  1.0000 -0.5588940231
O   O93       1.0  0.66655  0.92709  0.74282  1.0000 -0.5120880353
O   O94       1.0  0.76489  0.94328  0.67941  1.0000 -0.5588940231
O   O95       1.0  0.17210  0.43158  0.26042  1.0000 -0.5297201749
O   O96       1.0  0.25389  0.44857  0.17730  1.0000 -0.5416520524
