# DDEC6 charges by PACMAN v1.1 (https://github.com/mtap-research/PACMAN-charge/)
data_2012[MnNaCu][nan]3[ION]1
_chemical_formula_sum              "Na32 Mn16 Cu24 H96 C240 N48 O144"
_cell_length_a       36.351
_cell_length_b       36.351
_cell_length_c       14.943
_cell_angle_alpha    90
_cell_angle_beta     90
_cell_angle_gamma    90

_symmetry_space_group_name_H-M    "P 1"
_symmetry_Int_Tables_number       1

loop_
  _symmetry_equiv_pos_as_xyz
  'x, y, z'

loop_
  _atom_site_type_symbol
  _atom_site_label
  _atom_site_symmetry_multiplicity
  _atom_site_fract_x
  _atom_site_fract_y
  _atom_site_fract_z
  _atom_site_occupancy
  _atom_site_charge
Na  Na1       1.0  0.46720  0.12480  0.93770  1.0000 0.2712772645
Na  Na2       1.0  0.53280  0.87520  0.93770  1.0000 0.2712772645
Na  Na3       1.0  0.37520  0.96720  0.43770  1.0000 0.2518247762
Na  Na4       1.0  0.62480  0.03280  0.43770  1.0000 0.2518247762
Na  Na5       1.0  0.03280  0.62480  0.56230  1.0000 0.2518247762
Na  Na6       1.0  0.96720  0.37520  0.56230  1.0000 0.2518247762
Na  Na7       1.0  0.12480  0.46720  0.06230  1.0000 0.2570122056
Na  Na8       1.0  0.87520  0.53280  0.06230  1.0000 0.2570122056
Na  Na9       1.0  0.53280  0.87520  0.06230  1.0000 0.2570122056
Na  Na10      1.0  0.46720  0.12480  0.06230  1.0000 0.2570122056
Na  Na11      1.0  0.62480  0.03280  0.56230  1.0000 0.2518247762
Na  Na12      1.0  0.37520  0.96720  0.56230  1.0000 0.2518247762
Na  Na13      1.0  0.96720  0.37520  0.43770  1.0000 0.2518247762
Na  Na14      1.0  0.03280  0.62480  0.43770  1.0000 0.2570122056
Na  Na15      1.0  0.87520  0.53280  0.93770  1.0000 0.2712772645
Na  Na16      1.0  0.12480  0.46720  0.93770  1.0000 0.2712772645
Na  Na17      1.0  0.29973  0.16348  0.00000  1.0000 0.8601122133
Na  Na18      1.0  0.70027  0.83652  0.00000  1.0000 0.8601122133
Na  Na19      1.0  0.33652  0.79973  0.50000  1.0000 0.8601122133
Na  Na20      1.0  0.66348  0.20027  0.50000  1.0000 0.8601122133
Na  Na21      1.0  0.20027  0.66348  0.50000  1.0000 0.8601122133
Na  Na22      1.0  0.79973  0.33652  0.50000  1.0000 0.8601122133
Na  Na23      1.0  0.16348  0.29973  0.00000  1.0000 0.8601122133
Na  Na24      1.0  0.83652  0.70027  0.00000  1.0000 0.8601122133
Na  Na25      1.0  0.24174  0.24174  0.07140  1.0000 0.2518247762
Na  Na26      1.0  0.75826  0.75826  0.07140  1.0000 0.2518247762
Na  Na27      1.0  0.25826  0.74174  0.57140  1.0000 0.2793119334
Na  Na28      1.0  0.74174  0.25826  0.57140  1.0000 0.2793119334
Na  Na29      1.0  0.25826  0.74174  0.42860  1.0000 0.1971267693
Na  Na30      1.0  0.74174  0.25826  0.42860  1.0000 0.1941695593
Na  Na31      1.0  0.24174  0.24174  0.92860  1.0000 0.2334117166
Na  Na32      1.0  0.75826  0.75826  0.92860  1.0000 0.2334117166
Mn  Mn1       1.0  0.32614  0.11688  0.25393  1.0000 0.9838481777
Mn  Mn2       1.0  0.67386  0.88312  0.25393  1.0000 0.9838481777
Mn  Mn3       1.0  0.38312  0.82614  0.75393  1.0000 0.9838481777
Mn  Mn4       1.0  0.61688  0.17386  0.75393  1.0000 0.9838481777
Mn  Mn5       1.0  0.17386  0.61688  0.24607  1.0000 0.9838481777
Mn  Mn6       1.0  0.82614  0.38312  0.24607  1.0000 0.9838481777
Mn  Mn7       1.0  0.11688  0.32614  0.74607  1.0000 0.9838481777
Mn  Mn8       1.0  0.88312  0.67386  0.74607  1.0000 0.9838481777
Mn  Mn9       1.0  0.67386  0.88312  0.74607  1.0000 0.9838481777
Mn  Mn10      1.0  0.32614  0.11688  0.74607  1.0000 0.9838481777
Mn  Mn11      1.0  0.61688  0.17386  0.24607  1.0000 0.9838481777
Mn  Mn12      1.0  0.38312  0.82614  0.24607  1.0000 0.9838481777
Mn  Mn13      1.0  0.82614  0.38312  0.75393  1.0000 0.9838481777
Mn  Mn14      1.0  0.17386  0.61688  0.75393  1.0000 0.9838481777
Mn  Mn15      1.0  0.88312  0.67386  0.25393  1.0000 0.9838481777
Mn  Mn16      1.0  0.11688  0.32614  0.25393  1.0000 0.9838481777
Cu  Cu1       1.0  0.33538  0.96779  0.23322  1.0000 0.6823672138
Cu  Cu2       1.0  0.66462  0.03221  0.23322  1.0000 0.6823672138
Cu  Cu3       1.0  0.53221  0.83538  0.73322  1.0000 0.6823672138
Cu  Cu4       1.0  0.46779  0.16462  0.73322  1.0000 0.6823672138
Cu  Cu5       1.0  0.16462  0.46779  0.26678  1.0000 0.6823672138
Cu  Cu6       1.0  0.83538  0.53221  0.26678  1.0000 0.6823672138
Cu  Cu7       1.0  0.96779  0.33538  0.76678  1.0000 0.6823672138
Cu  Cu8       1.0  0.03221  0.66462  0.76678  1.0000 0.6823672138
Cu  Cu9       1.0  0.66462  0.03221  0.76678  1.0000 0.6823672138
Cu  Cu10      1.0  0.33538  0.96779  0.76678  1.0000 0.6823672138
Cu  Cu11      1.0  0.46779  0.16462  0.26678  1.0000 0.6823672138
Cu  Cu12      1.0  0.53221  0.83538  0.26678  1.0000 0.6823672138
Cu  Cu13      1.0  0.83538  0.53221  0.73322  1.0000 0.6823672138
Cu  Cu14      1.0  0.16462  0.46779  0.73322  1.0000 0.6823672138
Cu  Cu15      1.0  0.03221  0.66462  0.23322  1.0000 0.6823672138
Cu  Cu16      1.0  0.96779  0.33538  0.23322  1.0000 0.6823672138
Cu  Cu17      1.0  0.20803  0.20803  0.26671  1.0000 0.6426329446
Cu  Cu18      1.0  0.79197  0.79197  0.26671  1.0000 0.6450388961
Cu  Cu19      1.0  0.29197  0.70803  0.76671  1.0000 0.6426329446
Cu  Cu20      1.0  0.70803  0.29197  0.76671  1.0000 0.6426329446
Cu  Cu21      1.0  0.29197  0.70803  0.23329  1.0000 0.6426329446
Cu  Cu22      1.0  0.70803  0.29197  0.23329  1.0000 0.6426329446
Cu  Cu23      1.0  0.20803  0.20803  0.73329  1.0000 0.6426329446
Cu  Cu24      1.0  0.79197  0.79197  0.73329  1.0000 0.6450388961
H   H1        1.0  0.24010  0.00890  0.13540  1.0000 0.1319557688
H   H2        1.0  0.18380  0.11190  0.36580  1.0000 0.1319557688
H   H3        1.0  0.41170  0.24190  0.36480  1.0000 0.1319557688
H   H4        1.0  0.75990  0.99110  0.13540  1.0000 0.1319557688
H   H5        1.0  0.81620  0.88810  0.36580  1.0000 0.1319557688
H   H6        1.0  0.58830  0.75810  0.36480  1.0000 0.1319557688
H   H7        1.0  0.49110  0.74010  0.63540  1.0000 0.1319557688
H   H8        1.0  0.38810  0.68380  0.86580  1.0000 0.1319557688
H   H9        1.0  0.25810  0.91170  0.86480  1.0000 0.1319557688
H   H10       1.0  0.50890  0.25990  0.63540  1.0000 0.1319557688
H   H11       1.0  0.61190  0.31620  0.86580  1.0000 0.1319557688
H   H12       1.0  0.74190  0.08830  0.86480  1.0000 0.1319557688
H   H13       1.0  0.25990  0.50890  0.36460  1.0000 0.1319557688
H   H14       1.0  0.31620  0.61190  0.13420  1.0000 0.1319557688
H   H15       1.0  0.08830  0.74190  0.13520  1.0000 0.1319557688
H   H16       1.0  0.74010  0.49110  0.36460  1.0000 0.1319557688
H   H17       1.0  0.68380  0.38810  0.13420  1.0000 0.1319557688
H   H18       1.0  0.91170  0.25810  0.13520  1.0000 0.1319557688
H   H19       1.0  0.00890  0.24010  0.86460  1.0000 0.1319557688
H   H20       1.0  0.11190  0.18380  0.63420  1.0000 0.1319557688
H   H21       1.0  0.24190  0.41170  0.63520  1.0000 0.1319557688
H   H22       1.0  0.99110  0.75990  0.86460  1.0000 0.1319557688
H   H23       1.0  0.88810  0.81620  0.63420  1.0000 0.1319557688
H   H24       1.0  0.75810  0.58830  0.63520  1.0000 0.1319557688
H   H25       1.0  0.75990  0.99110  0.86460  1.0000 0.1319557688
H   H26       1.0  0.81620  0.88810  0.63420  1.0000 0.1319557688
H   H27       1.0  0.58830  0.75810  0.63520  1.0000 0.1319557688
H   H28       1.0  0.24010  0.00890  0.86460  1.0000 0.1319557688
H   H29       1.0  0.18380  0.11190  0.63420  1.0000 0.1319557688
H   H30       1.0  0.41170  0.24190  0.63520  1.0000 0.1319557688
H   H31       1.0  0.50890  0.25990  0.36460  1.0000 0.1319557688
H   H32       1.0  0.61190  0.31620  0.13420  1.0000 0.1319557688
H   H33       1.0  0.74190  0.08830  0.13520  1.0000 0.1319557688
H   H34       1.0  0.49110  0.74010  0.36460  1.0000 0.1319557688
H   H35       1.0  0.38810  0.68380  0.13420  1.0000 0.1319557688
H   H36       1.0  0.25810  0.91170  0.13520  1.0000 0.1319557688
H   H37       1.0  0.74010  0.49110  0.63540  1.0000 0.1319557688
H   H38       1.0  0.68380  0.38810  0.86580  1.0000 0.1319557688
H   H39       1.0  0.91170  0.25810  0.86480  1.0000 0.1319557688
H   H40       1.0  0.25990  0.50890  0.63540  1.0000 0.1319557688
H   H41       1.0  0.31620  0.61190  0.86580  1.0000 0.1319557688
H   H42       1.0  0.08830  0.74190  0.86480  1.0000 0.1319557688
H   H43       1.0  0.99110  0.75990  0.13540  1.0000 0.1319557688
H   H44       1.0  0.88810  0.81620  0.36580  1.0000 0.1319557688
H   H45       1.0  0.75810  0.58830  0.36480  1.0000 0.1319557688
H   H46       1.0  0.00890  0.24010  0.13540  1.0000 0.1319557688
H   H47       1.0  0.11190  0.18380  0.36580  1.0000 0.1319557688
H   H48       1.0  0.24190  0.41170  0.36480  1.0000 0.1319557688
H   H49       1.0  0.20870  0.00980  0.00000  1.0000 0.103950916
H   H50       1.0  0.33550  0.00690  0.00000  1.0000 0.1437861554
H   H51       1.0  0.79130  0.99020  0.00000  1.0000 0.103950916
H   H52       1.0  0.66450  0.99310  0.00000  1.0000 0.1437861554
H   H53       1.0  0.49020  0.70870  0.50000  1.0000 0.103950916
H   H54       1.0  0.49310  0.83550  0.50000  1.0000 0.1437861554
H   H55       1.0  0.50980  0.29130  0.50000  1.0000 0.103950916
H   H56       1.0  0.50690  0.16450  0.50000  1.0000 0.1437861554
H   H57       1.0  0.29130  0.50980  0.50000  1.0000 0.103950916
H   H58       1.0  0.16450  0.50690  0.50000  1.0000 0.1437861554
H   H59       1.0  0.70870  0.49020  0.50000  1.0000 0.103950916
H   H60       1.0  0.83550  0.49310  0.50000  1.0000 0.1437861554
H   H61       1.0  0.00980  0.20870  0.00000  1.0000 0.103950916
H   H62       1.0  0.00690  0.33550  0.00000  1.0000 0.1437861554
H   H63       1.0  0.99020  0.79130  0.00000  1.0000 0.103950916
H   H64       1.0  0.99310  0.66450  0.00000  1.0000 0.1437861554
H   H65       1.0  0.16630  0.08580  0.50000  1.0000 0.103950916
H   H66       1.0  0.24490  0.18540  0.50000  1.0000 0.1468743168
H   H67       1.0  0.41050  0.27240  0.50000  1.0000 0.103950916
H   H68       1.0  0.42160  0.14710  0.50000  1.0000 0.1468743168
H   H69       1.0  0.83370  0.91420  0.50000  1.0000 0.103950916
H   H70       1.0  0.75510  0.81460  0.50000  1.0000 0.1468743168
H   H71       1.0  0.58950  0.72760  0.50000  1.0000 0.103950916
H   H72       1.0  0.57840  0.85290  0.50000  1.0000 0.1468743168
H   H73       1.0  0.41420  0.66630  0.00000  1.0000 0.103950916
H   H74       1.0  0.31460  0.74490  0.00000  1.0000 0.1468743168
H   H75       1.0  0.22760  0.91050  0.00000  1.0000 0.103950916
H   H76       1.0  0.35290  0.92160  0.00000  1.0000 0.1468743168
H   H77       1.0  0.58580  0.33370  0.00000  1.0000 0.103950916
H   H78       1.0  0.68540  0.25510  0.00000  1.0000 0.1468743168
H   H79       1.0  0.77240  0.08950  0.00000  1.0000 0.103950916
H   H80       1.0  0.64710  0.07840  0.00000  1.0000 0.1468743168
H   H81       1.0  0.33370  0.58580  0.00000  1.0000 0.103950916
H   H82       1.0  0.25510  0.68540  0.00000  1.0000 0.1468743168
H   H83       1.0  0.08950  0.77240  0.00000  1.0000 0.103950916
H   H84       1.0  0.07840  0.64710  0.00000  1.0000 0.1468743168
H   H85       1.0  0.66630  0.41420  0.00000  1.0000 0.103950916
H   H86       1.0  0.74490  0.31460  0.00000  1.0000 0.1468743168
H   H87       1.0  0.91050  0.22760  0.00000  1.0000 0.103950916
H   H88       1.0  0.92160  0.35290  0.00000  1.0000 0.1468743168
H   H89       1.0  0.08580  0.16630  0.50000  1.0000 0.103950916
H   H90       1.0  0.18540  0.24490  0.50000  1.0000 0.1468743168
H   H91       1.0  0.27240  0.41050  0.50000  1.0000 0.103950916
H   H92       1.0  0.14710  0.42160  0.50000  1.0000 0.1468743168
H   H93       1.0  0.91420  0.83370  0.50000  1.0000 0.103950916
H   H94       1.0  0.81460  0.75510  0.50000  1.0000 0.1468743168
H   H95       1.0  0.72760  0.58950  0.50000  1.0000 0.103950916
H   H96       1.0  0.85290  0.57840  0.50000  1.0000 0.1468743168
C   C1        1.0  0.33725  0.03848  0.28940  1.0000 0.4839155719
C   C2        1.0  0.31588  0.03992  0.20060  1.0000 0.3875877438
C   C3        1.0  0.29072  0.00775  0.08000  1.0000 0.2380566807
C   C4        1.0  0.25290  0.00862  0.08150  1.0000 -0.1923855675
C   C5        1.0  0.26896  0.17037  0.21260  1.0000 0.4973196358
C   C6        1.0  0.25802  0.15298  0.30230  1.0000 0.3875877438
C   C7        1.0  0.21607  0.15085  0.41980  1.0000 0.2334117166
C   C8        1.0  0.19236  0.12150  0.41950  1.0000 -0.1923855675
C   C9        1.0  0.40266  0.13430  0.21490  1.0000 0.4973196358
C   C10       1.0  0.39408  0.15451  0.30280  1.0000 0.3875877438
C   C11       1.0  0.41731  0.19127  0.41870  1.0000 0.2380566807
C   C12       1.0  0.41344  0.22891  0.41830  1.0000 -0.1991898931
C   C13       1.0  0.66275  0.96152  0.28940  1.0000 0.4839155719
C   C14       1.0  0.68412  0.96008  0.20060  1.0000 0.3875877438
C   C15       1.0  0.70928  0.99225  0.08000  1.0000 0.2380566807
C   C16       1.0  0.74710  0.99138  0.08150  1.0000 -0.1923855675
C   C17       1.0  0.73104  0.82963  0.21260  1.0000 0.4973196358
C   C18       1.0  0.74198  0.84702  0.30230  1.0000 0.3875877438
C   C19       1.0  0.78393  0.84915  0.41980  1.0000 0.2334117166
C   C20       1.0  0.80764  0.87850  0.41950  1.0000 -0.1923855675
C   C21       1.0  0.59734  0.86570  0.21490  1.0000 0.4973196358
C   C22       1.0  0.60592  0.84549  0.30280  1.0000 0.3875877438
C   C23       1.0  0.58269  0.80873  0.41870  1.0000 0.2380566807
C   C24       1.0  0.58656  0.77109  0.41830  1.0000 -0.1991898931
C   C25       1.0  0.46152  0.83725  0.78940  1.0000 0.4839155719
C   C26       1.0  0.46008  0.81588  0.70060  1.0000 0.3875877438
C   C27       1.0  0.49225  0.79072  0.58000  1.0000 0.2380566807
C   C28       1.0  0.49138  0.75290  0.58150  1.0000 -0.1923855675
C   C29       1.0  0.32963  0.76896  0.71260  1.0000 0.4973196358
C   C30       1.0  0.34702  0.75802  0.80230  1.0000 0.3875877438
C   C31       1.0  0.34915  0.71607  0.91980  1.0000 0.2334117166
C   C32       1.0  0.37850  0.69236  0.91950  1.0000 -0.1923855675
C   C33       1.0  0.36570  0.90266  0.71490  1.0000 0.4973196358
C   C34       1.0  0.34549  0.89408  0.80280  1.0000 0.3848593168
C   C35       1.0  0.30873  0.91731  0.91870  1.0000 0.2380566807
C   C36       1.0  0.27109  0.91344  0.91830  1.0000 -0.1991898931
C   C37       1.0  0.53848  0.16275  0.78940  1.0000 0.4839155719
C   C38       1.0  0.53992  0.18412  0.70060  1.0000 0.3875877438
C   C39       1.0  0.50775  0.20928  0.58000  1.0000 0.2380566807
C   C40       1.0  0.50862  0.24710  0.58150  1.0000 -0.1923855675
C   C41       1.0  0.67037  0.23104  0.71260  1.0000 0.4973196358
C   C42       1.0  0.65298  0.24198  0.80230  1.0000 0.3875877438
C   C43       1.0  0.65085  0.28393  0.91980  1.0000 0.2334117166
C   C44       1.0  0.62150  0.30764  0.91950  1.0000 -0.1923855675
C   C45       1.0  0.63430  0.09734  0.71490  1.0000 0.4973196358
C   C46       1.0  0.65451  0.10592  0.80280  1.0000 0.3848593168
C   C47       1.0  0.69127  0.08269  0.91870  1.0000 0.2380566807
C   C48       1.0  0.72891  0.08656  0.91830  1.0000 -0.1991898931
C   C49       1.0  0.16275  0.53848  0.21060  1.0000 0.4839155719
C   C50       1.0  0.18412  0.53992  0.29940  1.0000 0.3875877438
C   C51       1.0  0.20928  0.50775  0.42000  1.0000 0.2334117166
C   C52       1.0  0.24710  0.50862  0.41850  1.0000 -0.1923855675
C   C53       1.0  0.23104  0.67037  0.28740  1.0000 0.4973196358
C   C54       1.0  0.24198  0.65298  0.19770  1.0000 0.3875877438
C   C55       1.0  0.28393  0.65085  0.08020  1.0000 0.2334117166
C   C56       1.0  0.30764  0.62150  0.08050  1.0000 -0.1923855675
C   C57       1.0  0.09734  0.63430  0.28510  1.0000 0.4973196358
C   C58       1.0  0.10592  0.65451  0.19720  1.0000 0.3875877438
C   C59       1.0  0.08269  0.69127  0.08130  1.0000 0.2380566807
C   C60       1.0  0.08656  0.72891  0.08170  1.0000 -0.1991898931
C   C61       1.0  0.83725  0.46152  0.21060  1.0000 0.4839155719
C   C62       1.0  0.81588  0.46008  0.29940  1.0000 0.3875877438
C   C63       1.0  0.79072  0.49225  0.42000  1.0000 0.2334117166
C   C64       1.0  0.75290  0.49138  0.41850  1.0000 -0.1923855675
C   C65       1.0  0.76896  0.32963  0.28740  1.0000 0.4973196358
C   C66       1.0  0.75802  0.34702  0.19770  1.0000 0.3875877438
C   C67       1.0  0.71607  0.34915  0.08020  1.0000 0.2334117166
C   C68       1.0  0.69236  0.37850  0.08050  1.0000 -0.1923855675
C   C69       1.0  0.90266  0.36570  0.28510  1.0000 0.4973196358
C   C70       1.0  0.89408  0.34549  0.19720  1.0000 0.3875877438
C   C71       1.0  0.91731  0.30873  0.08130  1.0000 0.2380566807
C   C72       1.0  0.91344  0.27109  0.08170  1.0000 -0.1991898931
C   C73       1.0  0.03848  0.33725  0.71060  1.0000 0.4839155719
C   C74       1.0  0.03992  0.31588  0.79940  1.0000 0.3875877438
C   C75       1.0  0.00775  0.29072  0.92000  1.0000 0.2380566807
C   C76       1.0  0.00862  0.25290  0.91850  1.0000 -0.1923855675
C   C77       1.0  0.17037  0.26896  0.78740  1.0000 0.4973196358
C   C78       1.0  0.15298  0.25802  0.69770  1.0000 0.3875877438
C   C79       1.0  0.15085  0.21607  0.58020  1.0000 0.2334117166
C   C80       1.0  0.12150  0.19236  0.58050  1.0000 -0.1923855675
C   C81       1.0  0.13430  0.40266  0.78510  1.0000 0.4973196358
C   C82       1.0  0.15451  0.39408  0.69720  1.0000 0.3875877438
C   C83       1.0  0.19127  0.41731  0.58130  1.0000 0.2380566807
C   C84       1.0  0.22891  0.41344  0.58170  1.0000 -0.1991898931
C   C85       1.0  0.96152  0.66275  0.71060  1.0000 0.4839155719
C   C86       1.0  0.96008  0.68412  0.79940  1.0000 0.3875877438
C   C87       1.0  0.99225  0.70928  0.92000  1.0000 0.2380566807
C   C88       1.0  0.99138  0.74710  0.91850  1.0000 -0.1923855675
C   C89       1.0  0.82963  0.73104  0.78740  1.0000 0.4973196358
C   C90       1.0  0.84702  0.74198  0.69770  1.0000 0.3875877438
C   C91       1.0  0.84915  0.78393  0.58020  1.0000 0.2334117166
C   C92       1.0  0.87850  0.80764  0.58050  1.0000 -0.1923855675
C   C93       1.0  0.86570  0.59734  0.78510  1.0000 0.4973196358
C   C94       1.0  0.84549  0.60592  0.69720  1.0000 0.3875877438
C   C95       1.0  0.80873  0.58269  0.58130  1.0000 0.2380566807
C   C96       1.0  0.77109  0.58656  0.58170  1.0000 -0.1991898931
C   C97       1.0  0.66275  0.96152  0.71060  1.0000 0.4839155719
C   C98       1.0  0.68412  0.96008  0.79940  1.0000 0.3875877438
C   C99       1.0  0.70928  0.99225  0.92000  1.0000 0.2380566807
C   C100      1.0  0.74710  0.99138  0.91850  1.0000 -0.1923855675
C   C101      1.0  0.73104  0.82963  0.78740  1.0000 0.4973196358
C   C102      1.0  0.74198  0.84702  0.69770  1.0000 0.3875877438
C   C103      1.0  0.78393  0.84915  0.58020  1.0000 0.2334117166
C   C104      1.0  0.80764  0.87850  0.58050  1.0000 -0.1923855675
C   C105      1.0  0.59734  0.86570  0.78510  1.0000 0.4973196358
C   C106      1.0  0.60592  0.84549  0.69720  1.0000 0.3875877438
C   C107      1.0  0.58269  0.80873  0.58130  1.0000 0.2380566807
C   C108      1.0  0.58656  0.77109  0.58170  1.0000 -0.1991898931
C   C109      1.0  0.33725  0.03848  0.71060  1.0000 0.4839155719
C   C110      1.0  0.31588  0.03992  0.79940  1.0000 0.3875877438
C   C111      1.0  0.29072  0.00775  0.92000  1.0000 0.2380566807
C   C112      1.0  0.25290  0.00862  0.91850  1.0000 -0.1923855675
C   C113      1.0  0.26896  0.17037  0.78740  1.0000 0.4973196358
C   C114      1.0  0.25802  0.15298  0.69770  1.0000 0.3875877438
C   C115      1.0  0.21607  0.15085  0.58020  1.0000 0.2334117166
C   C116      1.0  0.19236  0.12150  0.58050  1.0000 -0.1923855675
C   C117      1.0  0.40266  0.13430  0.78510  1.0000 0.4973196358
C   C118      1.0  0.39408  0.15451  0.69720  1.0000 0.3875877438
C   C119      1.0  0.41731  0.19127  0.58130  1.0000 0.2380566807
C   C120      1.0  0.41344  0.22891  0.58170  1.0000 -0.1991898931
C   C121      1.0  0.53848  0.16275  0.21060  1.0000 0.4839155719
C   C122      1.0  0.53992  0.18412  0.29940  1.0000 0.3875877438
C   C123      1.0  0.50775  0.20928  0.42000  1.0000 0.2334117166
C   C124      1.0  0.50862  0.24710  0.41850  1.0000 -0.1923855675
C   C125      1.0  0.67037  0.23104  0.28740  1.0000 0.4973196358
C   C126      1.0  0.65298  0.24198  0.19770  1.0000 0.3875877438
C   C127      1.0  0.65085  0.28393  0.08020  1.0000 0.2334117166
C   C128      1.0  0.62150  0.30764  0.08050  1.0000 -0.1923855675
C   C129      1.0  0.63430  0.09734  0.28510  1.0000 0.4973196358
C   C130      1.0  0.65451  0.10592  0.19720  1.0000 0.3875877438
C   C131      1.0  0.69127  0.08269  0.08130  1.0000 0.2380566807
C   C132      1.0  0.72891  0.08656  0.08170  1.0000 -0.1991898931
C   C133      1.0  0.46152  0.83725  0.21060  1.0000 0.4839155719
C   C134      1.0  0.46008  0.81588  0.29940  1.0000 0.3875877438
C   C135      1.0  0.49225  0.79072  0.42000  1.0000 0.2334117166
C   C136      1.0  0.49138  0.75290  0.41850  1.0000 -0.1923855675
C   C137      1.0  0.32963  0.76896  0.28740  1.0000 0.4973196358
C   C138      1.0  0.34702  0.75802  0.19770  1.0000 0.3875877438
C   C139      1.0  0.34915  0.71607  0.08020  1.0000 0.2334117166
C   C140      1.0  0.37850  0.69236  0.08050  1.0000 -0.1923855675
C   C141      1.0  0.36570  0.90266  0.28510  1.0000 0.4973196358
C   C142      1.0  0.34549  0.89408  0.19720  1.0000 0.3875877438
C   C143      1.0  0.30873  0.91731  0.08130  1.0000 0.2380566807
C   C144      1.0  0.27109  0.91344  0.08170  1.0000 -0.1991898931
C   C145      1.0  0.83725  0.46152  0.78940  1.0000 0.4839155719
C   C146      1.0  0.81588  0.46008  0.70060  1.0000 0.3875877438
C   C147      1.0  0.79072  0.49225  0.58000  1.0000 0.2380566807
C   C148      1.0  0.75290  0.49138  0.58150  1.0000 -0.1923855675
C   C149      1.0  0.76896  0.32963  0.71260  1.0000 0.4973196358
C   C150      1.0  0.75802  0.34702  0.80230  1.0000 0.3875877438
C   C151      1.0  0.71607  0.34915  0.91980  1.0000 0.2334117166
C   C152      1.0  0.69236  0.37850  0.91950  1.0000 -0.1923855675
C   C153      1.0  0.90266  0.36570  0.71490  1.0000 0.4973196358
C   C154      1.0  0.89408  0.34549  0.80280  1.0000 0.3848593168
C   C155      1.0  0.91731  0.30873  0.91870  1.0000 0.2380566807
C   C156      1.0  0.91344  0.27109  0.91830  1.0000 -0.1991898931
C   C157      1.0  0.16275  0.53848  0.78940  1.0000 0.4839155719
C   C158      1.0  0.18412  0.53992  0.70060  1.0000 0.3875877438
C   C159      1.0  0.20928  0.50775  0.58000  1.0000 0.2380566807
C   C160      1.0  0.24710  0.50862  0.58150  1.0000 -0.1923855675
C   C161      1.0  0.23104  0.67037  0.71260  1.0000 0.4973196358
C   C162      1.0  0.24198  0.65298  0.80230  1.0000 0.3875877438
C   C163      1.0  0.28393  0.65085  0.91980  1.0000 0.2334117166
C   C164      1.0  0.30764  0.62150  0.91950  1.0000 -0.1923855675
C   C165      1.0  0.09734  0.63430  0.71490  1.0000 0.4973196358
C   C166      1.0  0.10592  0.65451  0.80280  1.0000 0.3848593168
C   C167      1.0  0.08269  0.69127  0.91870  1.0000 0.2380566807
C   C168      1.0  0.08656  0.72891  0.91830  1.0000 -0.1991898931
C   C169      1.0  0.96152  0.66275  0.28940  1.0000 0.4839155719
C   C170      1.0  0.96008  0.68412  0.20060  1.0000 0.3875877438
C   C171      1.0  0.99225  0.70928  0.08000  1.0000 0.2380566807
C   C172      1.0  0.99138  0.74710  0.08150  1.0000 -0.1923855675
C   C173      1.0  0.82963  0.73104  0.21260  1.0000 0.4973196358
C   C174      1.0  0.84702  0.74198  0.30230  1.0000 0.3875877438
C   C175      1.0  0.84915  0.78393  0.41980  1.0000 0.2334117166
C   C176      1.0  0.87850  0.80764  0.41950  1.0000 -0.1923855675
C   C177      1.0  0.86570  0.59734  0.21490  1.0000 0.4973196358
C   C178      1.0  0.84549  0.60592  0.30280  1.0000 0.3875877438
C   C179      1.0  0.80873  0.58269  0.41870  1.0000 0.2380566807
C   C180      1.0  0.77109  0.58656  0.41830  1.0000 -0.1991898931
C   C181      1.0  0.03848  0.33725  0.28940  1.0000 0.4839155719
C   C182      1.0  0.03992  0.31588  0.20060  1.0000 0.3875877438
C   C183      1.0  0.00775  0.29072  0.08000  1.0000 0.2380566807
C   C184      1.0  0.00862  0.25290  0.08150  1.0000 -0.1923855675
C   C185      1.0  0.17037  0.26896  0.21260  1.0000 0.4973196358
C   C186      1.0  0.15298  0.25802  0.30230  1.0000 0.3875877438
C   C187      1.0  0.15085  0.21607  0.41980  1.0000 0.2334117166
C   C188      1.0  0.12150  0.19236  0.41950  1.0000 -0.1923855675
C   C189      1.0  0.13430  0.40266  0.21490  1.0000 0.4973196358
C   C190      1.0  0.15451  0.39408  0.30280  1.0000 0.3875877438
C   C191      1.0  0.19127  0.41731  0.41870  1.0000 0.2380566807
C   C192      1.0  0.22891  0.41344  0.41830  1.0000 -0.1991898931
C   C193      1.0  0.23429  0.00910  0.00000  1.0000 -0.0712540326
C   C194      1.0  0.30995  0.00736  0.00000  1.0000 -0.2269988711
C   C195      1.0  0.76571  0.99090  0.00000  1.0000 -0.0712540326
C   C196      1.0  0.69005  0.99264  0.00000  1.0000 -0.2269988711
C   C197      1.0  0.49090  0.73429  0.50000  1.0000 -0.0712540326
C   C198      1.0  0.49264  0.80995  0.50000  1.0000 -0.2269988711
C   C199      1.0  0.50910  0.26571  0.50000  1.0000 -0.0712540326
C   C200      1.0  0.50736  0.19005  0.50000  1.0000 -0.2269988711
C   C201      1.0  0.26571  0.50910  0.50000  1.0000 -0.0712540326
C   C202      1.0  0.19005  0.50736  0.50000  1.0000 -0.2269988711
C   C203      1.0  0.73429  0.49090  0.50000  1.0000 -0.0712540326
C   C204      1.0  0.80995  0.49264  0.50000  1.0000 -0.2269988711
C   C205      1.0  0.00910  0.23429  0.00000  1.0000 -0.0712540326
C   C206      1.0  0.00736  0.30995  0.00000  1.0000 -0.2269988711
C   C207      1.0  0.99090  0.76571  0.00000  1.0000 -0.0712540326
C   C208      1.0  0.99264  0.69005  0.00000  1.0000 -0.2269988711
C   C209      1.0  0.18140  0.10650  0.50000  1.0000 -0.0760079018
C   C210      1.0  0.22854  0.16579  0.50000  1.0000 -0.2269988711
C   C211      1.0  0.41220  0.24690  0.50000  1.0000 -0.0712540326
C   C212      1.0  0.41912  0.17256  0.50000  1.0000 -0.2269988711
C   C213      1.0  0.81860  0.89350  0.50000  1.0000 -0.0760079018
C   C214      1.0  0.77146  0.83421  0.50000  1.0000 -0.2269988711
C   C215      1.0  0.58780  0.75310  0.50000  1.0000 -0.0712540326
C   C216      1.0  0.58088  0.82744  0.50000  1.0000 -0.2269988711
C   C217      1.0  0.39350  0.68140  0.00000  1.0000 -0.0760079018
C   C218      1.0  0.33421  0.72854  0.00000  1.0000 -0.2269988711
C   C219      1.0  0.25310  0.91220  0.00000  1.0000 -0.0712540326
C   C220      1.0  0.32744  0.91912  0.00000  1.0000 -0.2269988711
C   C221      1.0  0.60650  0.31860  0.00000  1.0000 -0.0760079018
C   C222      1.0  0.66579  0.27146  0.00000  1.0000 -0.2269988711
C   C223      1.0  0.74690  0.08780  0.00000  1.0000 -0.0712540326
C   C224      1.0  0.67256  0.08088  0.00000  1.0000 -0.2269988711
C   C225      1.0  0.31860  0.60650  0.00000  1.0000 -0.0760079018
C   C226      1.0  0.27146  0.66579  0.00000  1.0000 -0.2269988711
C   C227      1.0  0.08780  0.74690  0.00000  1.0000 -0.0712540326
C   C228      1.0  0.08088  0.67256  0.00000  1.0000 -0.2269988711
C   C229      1.0  0.68140  0.39350  0.00000  1.0000 -0.0760079018
C   C230      1.0  0.72854  0.33421  0.00000  1.0000 -0.2269988711
C   C231      1.0  0.91220  0.25310  0.00000  1.0000 -0.0712540326
C   C232      1.0  0.91912  0.32744  0.00000  1.0000 -0.2269988711
C   C233      1.0  0.10650  0.18140  0.50000  1.0000 -0.0760079018
C   C234      1.0  0.16579  0.22854  0.50000  1.0000 -0.2269988711
C   C235      1.0  0.24690  0.41220  0.50000  1.0000 -0.0712540326
C   C236      1.0  0.17256  0.41912  0.50000  1.0000 -0.2269988711
C   C237      1.0  0.89350  0.81860  0.50000  1.0000 -0.0760079018
C   C238      1.0  0.83421  0.77146  0.50000  1.0000 -0.2269988711
C   C239      1.0  0.75310  0.58780  0.50000  1.0000 -0.0712540326
C   C240      1.0  0.82744  0.58088  0.50000  1.0000 -0.2269988711
N   N1        1.0  0.31029  0.00807  0.16380  1.0000 -0.4792318386
N   N2        1.0  0.22811  0.16666  0.33697  1.0000 -0.4890927007
N   N3        1.0  0.42212  0.17229  0.33660  1.0000 -0.4792318386
N   N4        1.0  0.68971  0.99193  0.16380  1.0000 -0.4792318386
N   N5        1.0  0.77189  0.83334  0.33697  1.0000 -0.4890927007
N   N6        1.0  0.57788  0.82771  0.33660  1.0000 -0.4792318386
N   N7        1.0  0.49193  0.81029  0.66380  1.0000 -0.4792318386
N   N8        1.0  0.33333  0.72811  0.83697  1.0000 -0.4890927007
N   N9        1.0  0.32771  0.92212  0.83660  1.0000 -0.4792318386
N   N10       1.0  0.50807  0.18971  0.66380  1.0000 -0.4792318386
N   N11       1.0  0.66667  0.27189  0.83697  1.0000 -0.4890927007
N   N12       1.0  0.67229  0.07788  0.83660  1.0000 -0.4792318386
N   N13       1.0  0.18971  0.50807  0.33620  1.0000 -0.4792318386
N   N14       1.0  0.27189  0.66667  0.16303  1.0000 -0.4890927007
N   N15       1.0  0.07788  0.67229  0.16340  1.0000 -0.4792318386
N   N16       1.0  0.81029  0.49193  0.33620  1.0000 -0.4792318386
N   N17       1.0  0.72811  0.33333  0.16303  1.0000 -0.4890927007
N   N18       1.0  0.92212  0.32771  0.16340  1.0000 -0.4792318386
N   N19       1.0  0.00807  0.31029  0.83620  1.0000 -0.4792318386
N   N20       1.0  0.16666  0.22811  0.66303  1.0000 -0.4890927007
N   N21       1.0  0.17229  0.42212  0.66340  1.0000 -0.4792318386
N   N22       1.0  0.99193  0.68971  0.83620  1.0000 -0.4792318386
N   N23       1.0  0.83334  0.77189  0.66303  1.0000 -0.4890927007
N   N24       1.0  0.82771  0.57788  0.66340  1.0000 -0.4792318386
N   N25       1.0  0.68971  0.99193  0.83620  1.0000 -0.4792318386
N   N26       1.0  0.77189  0.83334  0.66303  1.0000 -0.4890927007
N   N27       1.0  0.57788  0.82771  0.66340  1.0000 -0.4792318386
N   N28       1.0  0.31029  0.00807  0.83620  1.0000 -0.4792318386
N   N29       1.0  0.22811  0.16666  0.66303  1.0000 -0.4890927007
N   N30       1.0  0.42212  0.17229  0.66340  1.0000 -0.4792318386
N   N31       1.0  0.50807  0.18971  0.33620  1.0000 -0.4792318386
N   N32       1.0  0.66667  0.27189  0.16303  1.0000 -0.4890927007
N   N33       1.0  0.67229  0.07788  0.16340  1.0000 -0.4792318386
N   N34       1.0  0.49193  0.81029  0.33620  1.0000 -0.4792318386
N   N35       1.0  0.33333  0.72811  0.16303  1.0000 -0.4890927007
N   N36       1.0  0.32771  0.92212  0.16340  1.0000 -0.4792318386
N   N37       1.0  0.81029  0.49193  0.66380  1.0000 -0.4792318386
N   N38       1.0  0.72811  0.33333  0.83697  1.0000 -0.4890927007
N   N39       1.0  0.92212  0.32771  0.83660  1.0000 -0.4792318386
N   N40       1.0  0.18971  0.50807  0.66380  1.0000 -0.4792318386
N   N41       1.0  0.27189  0.66667  0.83697  1.0000 -0.4890927007
N   N42       1.0  0.07788  0.67229  0.83660  1.0000 -0.4792318386
N   N43       1.0  0.99193  0.68971  0.16380  1.0000 -0.4792318386
N   N44       1.0  0.83334  0.77189  0.33697  1.0000 -0.4890927007
N   N45       1.0  0.82771  0.57788  0.33660  1.0000 -0.4792318386
N   N46       1.0  0.00807  0.31029  0.16380  1.0000 -0.4792318386
N   N47       1.0  0.16666  0.22811  0.33697  1.0000 -0.4890927007
N   N48       1.0  0.17229  0.42212  0.33660  1.0000 -0.4792318386
O   O1        1.0  0.34254  0.06814  0.32894  1.0000 -0.4792318386
O   O2        1.0  0.30650  0.07150  0.17042  1.0000 -0.4658363417
O   O3        1.0  0.34875  0.00781  0.31660  1.0000 -0.4890927007
O   O4        1.0  0.29689  0.15833  0.17459  1.0000 -0.5669240571
O   O5        1.0  0.27835  0.12761  0.33232  1.0000 -0.4445833631
O   O6        1.0  0.24911  0.19580  0.18337  1.0000 -0.5381147035
O   O7        1.0  0.37718  0.11742  0.17840  1.0000 -0.4890927007
O   O8        1.0  0.36152  0.15247  0.33329  1.0000 -0.4458507128
O   O9        1.0  0.43497  0.13661  0.18540  1.0000 -0.5170617528
O   O10       1.0  0.65746  0.93186  0.32894  1.0000 -0.4792318386
O   O11       1.0  0.69350  0.92850  0.17042  1.0000 -0.4658363417
O   O12       1.0  0.65125  0.99219  0.31660  1.0000 -0.4890927007
O   O13       1.0  0.70311  0.84167  0.17459  1.0000 -0.5669240571
O   O14       1.0  0.72165  0.87239  0.33232  1.0000 -0.4445833631
O   O15       1.0  0.75089  0.80420  0.18337  1.0000 -0.5381147035
O   O16       1.0  0.62282  0.88258  0.17840  1.0000 -0.4890927007
O   O17       1.0  0.63848  0.84753  0.33329  1.0000 -0.4458507128
O   O18       1.0  0.56503  0.86339  0.18540  1.0000 -0.5170617528
O   O19       1.0  0.43186  0.84254  0.82894  1.0000 -0.4792318386
O   O20       1.0  0.42850  0.80650  0.67042  1.0000 -0.4658363417
O   O21       1.0  0.49219  0.84875  0.81660  1.0000 -0.4890927007
O   O22       1.0  0.34167  0.79689  0.67459  1.0000 -0.5669240571
O   O23       1.0  0.37239  0.77835  0.83232  1.0000 -0.4458507128
O   O24       1.0  0.30420  0.74911  0.68337  1.0000 -0.5381147035
O   O25       1.0  0.38258  0.87718  0.67840  1.0000 -0.4890927007
O   O26       1.0  0.34753  0.86152  0.83329  1.0000 -0.4445833631
O   O27       1.0  0.36339  0.93497  0.68540  1.0000 -0.5138630338
O   O28       1.0  0.56814  0.15746  0.82894  1.0000 -0.4792318386
O   O29       1.0  0.57150  0.19350  0.67042  1.0000 -0.4658363417
O   O30       1.0  0.50781  0.15125  0.81660  1.0000 -0.4890927007
O   O31       1.0  0.65833  0.20311  0.67459  1.0000 -0.5669240571
O   O32       1.0  0.62761  0.22165  0.83232  1.0000 -0.4458507128
O   O33       1.0  0.69580  0.25089  0.68337  1.0000 -0.5381147035
O   O34       1.0  0.61742  0.12282  0.67840  1.0000 -0.4890927007
O   O35       1.0  0.65247  0.13848  0.83329  1.0000 -0.4445833631
O   O36       1.0  0.63661  0.06503  0.68540  1.0000 -0.5138630338
O   O37       1.0  0.15746  0.56814  0.17106  1.0000 -0.4792318386
O   O38       1.0  0.19350  0.57150  0.32958  1.0000 -0.4658363417
O   O39       1.0  0.15125  0.50781  0.18340  1.0000 -0.4890927007
O   O40       1.0  0.20311  0.65833  0.32541  1.0000 -0.5669240571
O   O41       1.0  0.22165  0.62761  0.16768  1.0000 -0.4445833631
O   O42       1.0  0.25089  0.69580  0.31663  1.0000 -0.5381147035
O   O43       1.0  0.12282  0.61742  0.32160  1.0000 -0.4890927007
O   O44       1.0  0.13848  0.65247  0.16671  1.0000 -0.4458507128
O   O45       1.0  0.06503  0.63661  0.31460  1.0000 -0.5138630338
O   O46       1.0  0.84254  0.43186  0.17106  1.0000 -0.4792318386
O   O47       1.0  0.80650  0.42850  0.32958  1.0000 -0.4658363417
O   O48       1.0  0.84875  0.49219  0.18340  1.0000 -0.4890927007
O   O49       1.0  0.79689  0.34167  0.32541  1.0000 -0.5669240571
O   O50       1.0  0.77835  0.37239  0.16768  1.0000 -0.4445833631
O   O51       1.0  0.74911  0.30420  0.31663  1.0000 -0.5381147035
O   O52       1.0  0.87718  0.38258  0.32160  1.0000 -0.4890927007
O   O53       1.0  0.86152  0.34753  0.16671  1.0000 -0.4458507128
O   O54       1.0  0.93497  0.36339  0.31460  1.0000 -0.5170617528
O   O55       1.0  0.06814  0.34254  0.67106  1.0000 -0.4792318386
O   O56       1.0  0.07150  0.30650  0.82958  1.0000 -0.4658363417
O   O57       1.0  0.00781  0.34875  0.68340  1.0000 -0.4890927007
O   O58       1.0  0.15833  0.29689  0.82541  1.0000 -0.5669240571
O   O59       1.0  0.12761  0.27835  0.66768  1.0000 -0.4445833631
O   O60       1.0  0.19580  0.24911  0.81663  1.0000 -0.5381147035
O   O61       1.0  0.11742  0.37718  0.82160  1.0000 -0.4890927007
O   O62       1.0  0.15247  0.36152  0.66667  1.0000 -0.4458507128
O   O63       1.0  0.13661  0.43497  0.81460  1.0000 -0.5170617528
O   O64       1.0  0.93186  0.65746  0.67106  1.0000 -0.4792318386
O   O65       1.0  0.92850  0.69350  0.82958  1.0000 -0.4658363417
O   O66       1.0  0.99219  0.65125  0.68340  1.0000 -0.4890927007
O   O67       1.0  0.84167  0.70311  0.82541  1.0000 -0.5669240571
O   O68       1.0  0.87239  0.72165  0.66768  1.0000 -0.4445833631
O   O69       1.0  0.80420  0.75089  0.81663  1.0000 -0.5381147035
O   O70       1.0  0.88258  0.62282  0.82160  1.0000 -0.4890927007
O   O71       1.0  0.84753  0.63848  0.66667  1.0000 -0.4458507128
O   O72       1.0  0.86339  0.56503  0.81460  1.0000 -0.5170617528
O   O73       1.0  0.65746  0.93186  0.67106  1.0000 -0.4792318386
O   O74       1.0  0.69350  0.92850  0.82958  1.0000 -0.4658363417
O   O75       1.0  0.65125  0.99219  0.68340  1.0000 -0.4890927007
O   O76       1.0  0.70311  0.84167  0.82541  1.0000 -0.5669240571
O   O77       1.0  0.72165  0.87239  0.66768  1.0000 -0.4445833631
O   O78       1.0  0.75089  0.80420  0.81663  1.0000 -0.5381147035
O   O79       1.0  0.62282  0.88258  0.82160  1.0000 -0.4890927007
O   O80       1.0  0.63848  0.84753  0.66667  1.0000 -0.4458507128
O   O81       1.0  0.56503  0.86339  0.81460  1.0000 -0.5170617528
O   O82       1.0  0.34254  0.06814  0.67106  1.0000 -0.4792318386
O   O83       1.0  0.30650  0.07150  0.82958  1.0000 -0.4658363417
O   O84       1.0  0.34875  0.00781  0.68340  1.0000 -0.4890927007
O   O85       1.0  0.29689  0.15833  0.82541  1.0000 -0.5669240571
O   O86       1.0  0.27835  0.12761  0.66768  1.0000 -0.4445833631
O   O87       1.0  0.24911  0.19580  0.81663  1.0000 -0.5381147035
O   O88       1.0  0.37718  0.11742  0.82160  1.0000 -0.4890927007
O   O89       1.0  0.36152  0.15247  0.66667  1.0000 -0.4458507128
O   O90       1.0  0.43497  0.13661  0.81460  1.0000 -0.5170617528
O   O91       1.0  0.56814  0.15746  0.17106  1.0000 -0.4792318386
O   O92       1.0  0.57150  0.19350  0.32958  1.0000 -0.4658363417
O   O93       1.0  0.50781  0.15125  0.18340  1.0000 -0.4890927007
O   O94       1.0  0.65833  0.20311  0.32541  1.0000 -0.5669240571
O   O95       1.0  0.62761  0.22165  0.16768  1.0000 -0.4445833631
O   O96       1.0  0.69580  0.25089  0.31663  1.0000 -0.5381147035
O   O97       1.0  0.61742  0.12282  0.32160  1.0000 -0.4890927007
O   O98       1.0  0.65247  0.13848  0.16671  1.0000 -0.4458507128
O   O99       1.0  0.63661  0.06503  0.31460  1.0000 -0.5170617528
O   O100      1.0  0.43186  0.84254  0.17106  1.0000 -0.4792318386
O   O101      1.0  0.42850  0.80650  0.32958  1.0000 -0.4658363417
O   O102      1.0  0.49219  0.84875  0.18340  1.0000 -0.4890927007
O   O103      1.0  0.34167  0.79689  0.32541  1.0000 -0.5669240571
O   O104      1.0  0.37239  0.77835  0.16768  1.0000 -0.4445833631
O   O105      1.0  0.30420  0.74911  0.31663  1.0000 -0.5381147035
O   O106      1.0  0.38258  0.87718  0.32160  1.0000 -0.4890927007
O   O107      1.0  0.34753  0.86152  0.16671  1.0000 -0.4458507128
O   O108      1.0  0.36339  0.93497  0.31460  1.0000 -0.5138630338
O   O109      1.0  0.84254  0.43186  0.82894  1.0000 -0.4792318386
O   O110      1.0  0.80650  0.42850  0.67042  1.0000 -0.4658363417
O   O111      1.0  0.84875  0.49219  0.81660  1.0000 -0.4890927007
O   O112      1.0  0.79689  0.34167  0.67459  1.0000 -0.5669240571
O   O113      1.0  0.77835  0.37239  0.83232  1.0000 -0.4458507128
O   O114      1.0  0.74911  0.30420  0.68337  1.0000 -0.5381147035
O   O115      1.0  0.87718  0.38258  0.67840  1.0000 -0.4890927007
O   O116      1.0  0.86152  0.34753  0.83329  1.0000 -0.4445833631
O   O117      1.0  0.93497  0.36339  0.68540  1.0000 -0.5138630338
O   O118      1.0  0.15746  0.56814  0.82894  1.0000 -0.4792318386
O   O119      1.0  0.19350  0.57150  0.67042  1.0000 -0.4658363417
O   O120      1.0  0.15125  0.50781  0.81660  1.0000 -0.4890927007
O   O121      1.0  0.20311  0.65833  0.67459  1.0000 -0.5669240571
O   O122      1.0  0.22165  0.62761  0.83232  1.0000 -0.4445833631
O   O123      1.0  0.25089  0.69580  0.68337  1.0000 -0.5381147035
O   O124      1.0  0.12282  0.61742  0.67840  1.0000 -0.4890927007
O   O125      1.0  0.13848  0.65247  0.83329  1.0000 -0.4445833631
O   O126      1.0  0.06503  0.63661  0.68540  1.0000 -0.5138630338
O   O127      1.0  0.93186  0.65746  0.32894  1.0000 -0.4792318386
O   O128      1.0  0.92850  0.69350  0.17042  1.0000 -0.4658363417
O   O129      1.0  0.99219  0.65125  0.31660  1.0000 -0.4890927007
O   O130      1.0  0.84167  0.70311  0.17459  1.0000 -0.5669240571
O   O131      1.0  0.87239  0.72165  0.33232  1.0000 -0.4445833631
O   O132      1.0  0.80420  0.75089  0.18337  1.0000 -0.5381147035
O   O133      1.0  0.88258  0.62282  0.17840  1.0000 -0.4890927007
O   O134      1.0  0.84753  0.63848  0.33329  1.0000 -0.4458507128
O   O135      1.0  0.86339  0.56503  0.18540  1.0000 -0.5170617528
O   O136      1.0  0.06814  0.34254  0.32894  1.0000 -0.4792318386
O   O137      1.0  0.07150  0.30650  0.17042  1.0000 -0.4658363417
O   O138      1.0  0.00781  0.34875  0.31660  1.0000 -0.4890927007
O   O139      1.0  0.15833  0.29689  0.17459  1.0000 -0.5669240571
O   O140      1.0  0.12761  0.27835  0.33232  1.0000 -0.4445833631
O   O141      1.0  0.19580  0.24911  0.18337  1.0000 -0.5381147035
O   O142      1.0  0.11742  0.37718  0.17840  1.0000 -0.4890927007
O   O143      1.0  0.15247  0.36152  0.33329  1.0000 -0.4458507128
O   O144      1.0  0.13661  0.43497  0.18540  1.0000 -0.5170617528
