# DDEC6 charges by PACMAN v1.1 (https://github.com/mtap-research/PACMAN-charge/)
data_2012[Ni][dia]3[ION]1
_chemical_formula_sum              "Ni16 H316 C408 N32 O76"
_cell_length_a       25.7671
_cell_length_b       25.7671
_cell_length_c       25.7671
_cell_angle_alpha    103.739
_cell_angle_beta     103.739
_cell_angle_gamma    121.668

_symmetry_space_group_name_H-M    "P 1"
_symmetry_Int_Tables_number       1

loop_
  _symmetry_equiv_pos_as_xyz
  'x, y, z'

loop_
  _atom_site_type_symbol
  _atom_site_label
  _atom_site_symmetry_multiplicity
  _atom_site_fract_x
  _atom_site_fract_y
  _atom_site_fract_z
  _atom_site_occupancy
  _atom_site_charge
Ni  Ni1       1.0  0.38285  0.15370  0.25575  1.0000 0.6699096575
Ni  Ni2       1.0  0.89795  0.12710  0.74425  1.0000 0.6699096575
Ni  Ni3       1.0  0.37822  0.64968  0.24196  1.0000 0.6699096575
Ni  Ni4       1.0  0.40772  0.13626  0.75804  1.0000 0.6699096575
Ni  Ni5       1.0  0.88447  0.65536  0.25925  1.0000 0.6604974831
Ni  Ni6       1.0  0.39611  0.62522  0.74075  1.0000 0.6604974831
Ni  Ni7       1.0  0.90495  0.63456  0.75715  1.0000 0.6699096575
Ni  Ni8       1.0  0.87741  0.14780  0.24285  1.0000 0.6699096575
Ni  Ni9       1.0  0.15370  0.89795  0.77085  1.0000 0.6699096575
Ni  Ni10      1.0  0.12710  0.38285  0.22915  1.0000 0.6699096575
Ni  Ni11      1.0  0.64968  0.40772  0.27146  1.0000 0.6699096575
Ni  Ni12      1.0  0.13626  0.37822  0.72854  1.0000 0.6699096575
Ni  Ni13      1.0  0.65536  0.39611  0.77089  1.0000 0.6604974831
Ni  Ni14      1.0  0.62522  0.88447  0.22911  1.0000 0.6604974831
Ni  Ni15      1.0  0.63456  0.87741  0.72961  1.0000 0.6699096575
Ni  Ni16      1.0  0.14780  0.90495  0.27039  1.0000 0.6699096575
H   H1        1.0  0.38420  0.72590  0.81230  1.0000 0.1104195957
H   H2        1.0  0.91360  0.57190  0.18770  1.0000 0.1104195957
H   H3        1.0  0.30340  0.73110  0.83510  1.0000 0.1291866628
H   H4        1.0  0.89600  0.46830  0.16490  1.0000 0.1291866628
H   H5        1.0  0.16020  0.53060  0.71520  1.0000 0.1484793619
H   H6        1.0  0.81540  0.44500  0.28480  1.0000 0.1484793619
H   H7        1.0  0.24680  0.53220  0.70200  1.0000 0.1190767858
H   H8        1.0  0.83020  0.54480  0.29800  1.0000 0.1190767858
H   H9        1.0  0.21850  0.73300  0.81450  1.0000 0.1104195957
H   H10       1.0  0.91850  0.40400  0.18550  1.0000 0.1104195957
H   H11       1.0  0.12730  0.73430  0.81060  1.0000 0.1190767858
H   H12       1.0  0.92370  0.31670  0.18940  1.0000 0.1190767858
H   H13       1.0  0.00890  0.53370  0.76540  1.0000 0.1190767858
H   H14       1.0  0.76830  0.24350  0.23460  1.0000 0.1190767858
H   H15       1.0  0.09990  0.53080  0.76270  1.0000 0.1190767858
H   H16       1.0  0.76810  0.33720  0.23730  1.0000 0.1190767858
H   H17       1.0  0.52970  0.25980  0.29970  1.0000 0.1104195957
H   H18       1.0  0.96010  0.23000  0.70030  1.0000 0.1104195957
H   H19       1.0  0.62420  0.34560  0.39180  1.0000 0.1484793619
H   H20       1.0  0.95380  0.23240  0.60820  1.0000 0.1484793619
H   H21       1.0  0.52040  0.26170  0.47790  1.0000 0.1291866628
H   H22       1.0  0.78380  0.04250  0.52210  1.0000 0.1291866628
H   H23       1.0  0.42600  0.17890  0.38750  1.0000 0.1190767858
H   H24       1.0  0.79140  0.03850  0.61250  1.0000 0.1190767858
H   H25       1.0  0.71550  0.39120  0.47090  1.0000 0.1484793619
H   H26       1.0  0.92030  0.24460  0.52910  1.0000 0.1484793619
H   H27       1.0  0.80560  0.48270  0.55570  1.0000 0.1291866628
H   H28       1.0  0.92700  0.24990  0.44430  1.0000 0.1291866628
H   H29       1.0  0.68460  0.45450  0.63870  1.0000 0.1190767858
H   H30       1.0  0.81580  0.04590  0.36130  1.0000 0.1190767858
H   H31       1.0  0.59040  0.36790  0.54730  1.0000 0.1104195957
H   H32       1.0  0.82060  0.04310  0.45270  1.0000 0.1104195957
H   H33       1.0  0.98660  0.20070  0.20290  1.0000 0.1104195957
H   H34       1.0  0.99780  0.78370  0.79710  1.0000 0.1104195957
H   H35       1.0  0.09080  0.22120  0.22040  1.0000 0.1393639921
H   H36       1.0  0.00080  0.87040  0.77960  1.0000 0.1393639921
H   H37       1.0  0.06440  0.13430  0.33430  1.0000 0.1393639921
H   H38       1.0  0.80000  0.73010  0.66570  1.0000 0.1393639921
H   H39       1.0  0.96020  0.11810  0.31250  1.0000 0.1104195957
H   H40       1.0  0.80560  0.64770  0.68750  1.0000 0.1104195957
H   H41       1.0  0.19650  0.26670  0.26660  1.0000 0.1190767858
H   H42       1.0  0.00010  0.92990  0.73340  1.0000 0.1190767858
H   H43       1.0  0.28640  0.26240  0.26440  1.0000 0.1190767858
H   H44       1.0  0.99800  0.02200  0.73560  1.0000 0.1190767858
H   H45       1.0  0.21760  0.11120  0.31340  1.0000 0.1190767858
H   H46       1.0  0.79780  0.90420  0.68660  1.0000 0.1190767858
H   H47       1.0  0.12690  0.11380  0.31530  1.0000 0.1104195957
H   H48       1.0  0.79850  0.81160  0.68470  1.0000 0.1104195957
H   H49       1.0  0.99470  0.73280  0.88810  1.0000 0.1104195957
H   H50       1.0  0.84470  0.10660  0.11190  1.0000 0.1104195957
H   H51       1.0  0.99000  0.74410  0.97610  1.0000 0.1393639921
H   H52       1.0  0.76800  0.01390  0.02390  1.0000 0.1393639921
H   H53       1.0  0.79800  0.57740  0.89320  1.0000 0.1393639921
H   H54       1.0  0.68420  0.90480  0.10680  1.0000 0.1393639921
H   H55       1.0  0.80430  0.57310  0.80120  1.0000 0.1190767858
H   H56       1.0  0.77190  0.00310  0.19880  1.0000 0.1190767858
H   H57       1.0  0.78750  0.61460  0.97130  1.0000 0.1291866628
H   H58       1.0  0.64330  0.81620  0.02870  1.0000 0.1291866628
H   H59       1.0  0.78670  0.62210  0.06420  1.0000 0.1291866628
H   H60       1.0  0.55790  0.72250  0.93580  1.0000 0.1291866628
H   H61       1.0  0.98530  0.70880  0.13690  1.0000 0.1291866628
H   H62       1.0  0.57190  0.84840  0.86310  1.0000 0.1291866628
H   H63       1.0  0.98770  0.70200  0.04670  1.0000 0.1190767858
H   H64       1.0  0.65530  0.94100  0.95330  1.0000 0.1190767858
H   H65       1.0  0.45920  0.61840  0.31300  1.0000 0.1104195957
H   H66       1.0  0.30540  0.14620  0.68700  1.0000 0.1104195957
H   H67       1.0  0.55820  0.62910  0.33290  1.0000 0.1291866628
H   H68       1.0  0.29620  0.22530  0.66710  1.0000 0.1291866628
H   H69       1.0  0.59390  0.72990  0.22920  1.0000 0.1484793619
H   H70       1.0  0.50070  0.36470  0.77080  1.0000 0.1484793619
H   H71       1.0  0.49370  0.70990  0.20980  1.0000 0.1190767858
H   H72       1.0  0.50010  0.28390  0.79020  1.0000 0.1190767858
H   H73       1.0  0.70150  0.77090  0.27800  1.0000 0.1190767858
H   H74       1.0  0.49290  0.42350  0.72200  1.0000 0.1190767858
H   H75       1.0  0.79230  0.76900  0.27630  1.0000 0.1190767858
H   H76       1.0  0.49270  0.51600  0.72370  1.0000 0.1190767858
H   H77       1.0  0.71490  0.60830  0.31300  1.0000 0.1190767858
H   H78       1.0  0.29530  0.40190  0.68700  1.0000 0.1190767858
H   H79       1.0  0.62730  0.61200  0.31830  1.0000 0.1104195957
H   H80       1.0  0.29370  0.30900  0.68170  1.0000 0.1104195957
H   H81       1.0  0.28610  0.54360  0.61170  1.0000 0.1190767858
H   H82       1.0  0.93190  0.67440  0.38830  1.0000 0.1190767858
H   H83       1.0  0.27140  0.54890  0.52150  1.0000 0.1393639921
H   H84       1.0  0.02740  0.74990  0.47850  1.0000 0.1393639921
H   H85       1.0  0.45190  0.73270  0.60660  1.0000 0.1551292056
H   H86       1.0  0.12610  0.84530  0.39340  1.0000 0.1551292056
H   H87       1.0  0.46000  0.72510  0.69430  1.0000 0.1190767858
H   H88       1.0  0.03080  0.76570  0.30570  1.0000 0.1190767858
H   H89       1.0  0.31320  0.54440  0.45000  1.0000 0.1104195957
H   H90       1.0  0.09440  0.86320  0.55000  1.0000 0.1104195957
H   H91       1.0  0.32300  0.55050  0.36190  1.0000 0.1291866628
H   H92       1.0  0.18860  0.96110  0.63810  1.0000 0.1291866628
H   H93       1.0  0.40890  0.75010  0.43720  1.0000 0.1393639921
H   H94       1.0  0.31290  0.97170  0.56280  1.0000 0.1393639921
H   H95       1.0  0.40540  0.74430  0.52550  1.0000 0.1190767858
H   H96       1.0  0.21880  0.87990  0.47450  1.0000 0.1190767858
H   H97       1.0  0.32430  0.04050  0.29020  1.0000 0.1190767858
H   H98       1.0  0.75030  0.03410  0.70980  1.0000 0.1190767858
H   H99       1.0  0.30280  0.93620  0.27060  1.0000 0.1484793619
H   H100      1.0  0.66560  0.03220  0.72940  1.0000 0.1484793619
H   H101      1.0  0.40380  0.97300  0.16680  1.0000 0.1190767858
H   H102      1.0  0.80620  0.23700  0.83320  1.0000 0.1190767858
H   H103      1.0  0.41660  0.07410  0.18650  1.0000 0.1104195957
H   H104      1.0  0.88760  0.23010  0.81350  1.0000 0.1104195957
H   H105      1.0  0.26010  0.83110  0.22020  1.0000 0.1291866628
H   H106      1.0  0.61090  0.03990  0.77980  1.0000 0.1291866628
H   H107      1.0  0.25940  0.73860  0.21640  1.0000 0.1190767858
H   H108      1.0  0.52220  0.04300  0.78360  1.0000 0.1190767858
H   H109      1.0  0.42530  0.81790  0.18820  1.0000 0.1190767858
H   H110      1.0  0.62970  0.23710  0.81180  1.0000 0.1190767858
H   H111      1.0  0.42210  0.90710  0.18280  1.0000 0.1104195957
H   H112      1.0  0.72430  0.23930  0.81720  1.0000 0.1104195957
H   H113      1.0  0.30750  0.06990  0.80160  1.0000 0.1190767858
H   H114      1.0  0.26830  0.50590  0.19840  1.0000 0.1190767858
H   H115      1.0  0.30120  0.07970  0.89310  1.0000 0.1484793619
H   H116      1.0  0.18660  0.40810  0.10690  1.0000 0.1484793619
H   H117      1.0  0.48470  0.26240  0.97890  1.0000 0.1291866628
H   H118      1.0  0.28350  0.50580  0.02110  1.0000 0.1291866628
H   H119      1.0  0.48780  0.24780  0.88420  1.0000 0.1104195957
H   H120      1.0  0.36360  0.60360  0.11580  1.0000 0.1104195957
H   H121      1.0  0.28860  0.12450  0.97430  1.0000 0.1291866628
H   H122      1.0  0.15020  0.31430  0.02570  1.0000 0.1291866628
H   H123      1.0  0.28130  0.11300  0.05630  1.0000 0.1291866628
H   H124      1.0  0.05670  0.22500  0.94370  1.0000 0.1291866628
H   H125      1.0  0.48670  0.22240  0.13990  1.0000 0.1190767858
H   H126      1.0  0.08250  0.34680  0.86010  1.0000 0.1190767858
H   H127      1.0  0.49080  0.22120  0.04920  1.0000 0.1104195957
H   H128      1.0  0.17200  0.44160  0.95080  1.0000 0.1104195957
H   H129      1.0  0.72590  0.91360  0.34170  1.0000 0.1104195957
H   H130      1.0  0.57190  0.38420  0.65830  1.0000 0.1104195957
H   H131      1.0  0.73110  0.89600  0.42770  1.0000 0.1291866628
H   H132      1.0  0.46830  0.30340  0.57230  1.0000 0.1291866628
H   H133      1.0  0.53060  0.81540  0.37040  1.0000 0.1484793619
H   H134      1.0  0.44500  0.16020  0.62960  1.0000 0.1484793619
H   H135      1.0  0.53220  0.83020  0.28540  1.0000 0.1190767858
H   H136      1.0  0.54480  0.24680  0.71460  1.0000 0.1190767858
H   H137      1.0  0.73300  0.91850  0.51450  1.0000 0.1104195957
H   H138      1.0  0.40400  0.21850  0.48550  1.0000 0.1104195957
H   H139      1.0  0.73430  0.92370  0.60700  1.0000 0.1190767858
H   H140      1.0  0.31670  0.12730  0.39300  1.0000 0.1190767858
H   H141      1.0  0.53370  0.76830  0.52480  1.0000 0.1190767858
H   H142      1.0  0.24350  0.00890  0.47520  1.0000 0.1190767858
H   H143      1.0  0.53080  0.76810  0.43090  1.0000 0.1190767858
H   H144      1.0  0.33720  0.09990  0.56910  1.0000 0.1190767858
H   H145      1.0  0.25980  0.96010  0.73010  1.0000 0.1104195957
H   H146      1.0  0.23000  0.52970  0.26990  1.0000 0.1104195957
H   H147      1.0  0.34560  0.95380  0.72140  1.0000 0.1484793619
H   H148      1.0  0.23240  0.62420  0.27860  1.0000 0.1484793619
H   H149      1.0  0.26170  0.78380  0.74130  1.0000 0.1291866628
H   H150      1.0  0.04250  0.52040  0.25870  1.0000 0.1291866628
H   H151      1.0  0.17890  0.79140  0.75290  1.0000 0.1190767858
H   H152      1.0  0.03850  0.42600  0.24710  1.0000 0.1190767858
H   H153      1.0  0.39120  0.92030  0.67570  1.0000 0.1484793619
H   H154      1.0  0.24460  0.71550  0.32430  1.0000 0.1484793619
H   H155      1.0  0.48270  0.92700  0.67710  1.0000 0.1291866628
H   H156      1.0  0.24990  0.80560  0.32290  1.0000 0.1291866628
H   H157      1.0  0.45450  0.81580  0.76990  1.0000 0.1190767858
H   H158      1.0  0.04590  0.68460  0.23010  1.0000 0.1190767858
H   H159      1.0  0.36790  0.82060  0.77750  1.0000 0.1104195957
H   H160      1.0  0.04310  0.59040  0.22250  1.0000 0.1104195957
H   H161      1.0  0.20070  0.99780  0.21410  1.0000 0.1104195957
H   H162      1.0  0.78370  0.98660  0.78590  1.0000 0.1104195957
H   H163      1.0  0.22120  0.00080  0.13040  1.0000 0.1393639921
H   H164      1.0  0.87040  0.09080  0.86960  1.0000 0.1393639921
H   H165      1.0  0.13430  0.80000  0.06990  1.0000 0.1393639921
H   H166      1.0  0.73010  0.06440  0.93010  1.0000 0.1393639921
H   H167      1.0  0.11810  0.80560  0.15790  1.0000 0.1104195957
H   H168      1.0  0.64770  0.96020  0.84210  1.0000 0.1104195957
H   H169      1.0  0.26670  0.00010  0.07020  1.0000 0.1190767858
H   H170      1.0  0.92990  0.19650  0.92980  1.0000 0.1190767858
H   H171      1.0  0.26240  0.99800  0.97600  1.0000 0.1190767858
H   H172      1.0  0.02200  0.28640  0.02400  1.0000 0.1190767858
H   H173      1.0  0.11120  0.79780  0.89360  1.0000 0.1190767858
H   H174      1.0  0.90420  0.21760  0.10640  1.0000 0.1190767858
H   H175      1.0  0.11380  0.79850  0.98690  1.0000 0.1104195957
H   H176      1.0  0.81160  0.12690  0.01310  1.0000 0.1104195957
H   H177      1.0  0.73280  0.84470  0.73810  1.0000 0.1104195957
H   H178      1.0  0.10660  0.99470  0.26190  1.0000 0.1104195957
H   H179      1.0  0.74410  0.76800  0.75410  1.0000 0.1393639921
H   H180      1.0  0.01390  0.99000  0.24590  1.0000 0.1393639921
H   H181      1.0  0.57740  0.68420  0.77940  1.0000 0.1393639921
H   H182      1.0  0.90480  0.79800  0.22060  1.0000 0.1393639921
H   H183      1.0  0.57310  0.77190  0.76880  1.0000 0.1190767858
H   H184      1.0  0.00310  0.80430  0.23120  1.0000 0.1190767858
H   H185      1.0  0.61460  0.64330  0.82710  1.0000 0.1190767858
H   H186      1.0  0.81620  0.78750  0.17290  1.0000 0.1291866628
H   H187      1.0  0.62210  0.55790  0.83540  1.0000 0.1291866628
H   H188      1.0  0.72250  0.78670  0.16460  1.0000 0.1291866628
H   H189      1.0  0.70880  0.57190  0.72350  1.0000 0.1291866628
H   H190      1.0  0.84840  0.98530  0.27650  1.0000 0.1291866628
H   H191      1.0  0.70200  0.65530  0.71430  1.0000 0.1190767858
H   H192      1.0  0.94100  0.98770  0.28570  1.0000 0.1190767858
H   H193      1.0  0.61840  0.30540  0.15920  1.0000 0.1104195957
H   H194      1.0  0.14620  0.45920  0.84080  1.0000 0.1104195957
H   H195      1.0  0.62910  0.29620  0.07090  1.0000 0.1291866628
H   H196      1.0  0.22530  0.55820  0.92910  1.0000 0.1291866628
H   H197      1.0  0.72990  0.50070  0.13600  1.0000 0.1484793619
H   H198      1.0  0.36470  0.59390  0.86400  1.0000 0.1484793619
H   H199      1.0  0.70990  0.50010  0.21620  1.0000 0.1190767858
H   H200      1.0  0.28390  0.49370  0.78380  1.0000 0.1190767858
H   H201      1.0  0.77090  0.49290  0.06940  1.0000 0.1190767858
H   H202      1.0  0.42350  0.70150  0.93060  1.0000 0.1190767858
H   H203      1.0  0.76900  0.49270  0.97670  1.0000 0.1190767858
H   H204      1.0  0.51600  0.79230  0.02330  1.0000 0.1190767858
H   H205      1.0  0.60830  0.29530  0.89340  1.0000 0.1190767858
H   H206      1.0  0.40190  0.71490  0.10660  1.0000 0.1190767858
H   H207      1.0  0.61200  0.29370  0.98470  1.0000 0.1104195957
H   H208      1.0  0.30900  0.62730  0.01530  1.0000 0.1104195957
H   H209      1.0  0.54360  0.93190  0.25750  1.0000 0.1190767858
H   H210      1.0  0.67440  0.28610  0.74250  1.0000 0.1190767858
H   H211      1.0  0.54890  0.02740  0.27750  1.0000 0.1393639921
H   H212      1.0  0.74990  0.27140  0.72250  1.0000 0.1393639921
H   H213      1.0  0.73270  0.12610  0.28080  1.0000 0.1551292056
H   H214      1.0  0.84530  0.45190  0.71920  1.0000 0.1551292056
H   H215      1.0  0.72510  0.03080  0.26510  1.0000 0.1190767858
H   H216      1.0  0.76570  0.46000  0.73490  1.0000 0.1190767858
H   H217      1.0  0.54440  0.09440  0.23120  1.0000 0.1104195957
H   H218      1.0  0.86320  0.31320  0.76880  1.0000 0.1104195957
H   H219      1.0  0.55050  0.18860  0.22750  1.0000 0.1291866628
H   H220      1.0  0.96110  0.32300  0.77250  1.0000 0.1291866628
H   H221      1.0  0.75010  0.31290  0.34120  1.0000 0.1393639921
H   H222      1.0  0.97170  0.40890  0.65880  1.0000 0.1393639921
H   H223      1.0  0.74430  0.21880  0.33890  1.0000 0.1190767858
H   H224      1.0  0.87990  0.40540  0.66110  1.0000 0.1190767858
H   H225      1.0  0.04050  0.75030  0.71620  1.0000 0.1190767858
H   H226      1.0  0.03410  0.32430  0.28380  1.0000 0.1190767858
H   H227      1.0  0.93620  0.66560  0.63340  1.0000 0.1484793619
H   H228      1.0  0.03220  0.30280  0.36660  1.0000 0.1484793619
H   H229      1.0  0.97300  0.80620  0.56920  1.0000 0.1190767858
H   H230      1.0  0.23700  0.40380  0.43080  1.0000 0.1190767858
H   H231      1.0  0.07410  0.88760  0.65750  1.0000 0.1104195957
H   H232      1.0  0.23010  0.41660  0.34250  1.0000 0.1104195957
H   H233      1.0  0.83110  0.61090  0.57100  1.0000 0.1291866628
H   H234      1.0  0.03990  0.26010  0.42900  1.0000 0.1291866628
H   H235      1.0  0.73860  0.52220  0.47920  1.0000 0.1190767858
H   H236      1.0  0.04300  0.25940  0.52080  1.0000 0.1190767858
H   H237      1.0  0.81790  0.62970  0.39260  1.0000 0.1190767858
H   H238      1.0  0.23710  0.42530  0.60740  1.0000 0.1190767858
H   H239      1.0  0.90710  0.72430  0.48500  1.0000 0.1104195957
H   H240      1.0  0.23930  0.42210  0.51500  1.0000 0.1104195957
H   H241      1.0  0.06990  0.26830  0.76240  1.0000 0.1190767858
H   H242      1.0  0.50590  0.30750  0.23760  1.0000 0.1190767858
H   H243      1.0  0.07970  0.18660  0.77850  1.0000 0.1484793619
H   H244      1.0  0.40810  0.30120  0.22150  1.0000 0.1484793619
H   H245      1.0  0.26240  0.28350  0.77770  1.0000 0.1291866628
H   H246      1.0  0.50580  0.48470  0.22230  1.0000 0.1291866628
H   H247      1.0  0.24780  0.36360  0.76000  1.0000 0.1104195957
H   H248      1.0  0.60360  0.48780  0.24000  1.0000 0.1104195957
H   H249      1.0  0.12450  0.15020  0.83590  1.0000 0.1291866628
H   H250      1.0  0.31430  0.28860  0.16410  1.0000 0.1291866628
H   H251      1.0  0.11300  0.05670  0.83170  1.0000 0.1291866628
H   H252      1.0  0.22500  0.28130  0.16830  1.0000 0.1291866628
H   H253      1.0  0.22240  0.08250  0.73570  1.0000 0.1190767858
H   H254      1.0  0.34680  0.48670  0.26430  1.0000 0.1190767858
H   H255      1.0  0.22120  0.17200  0.73040  1.0000 0.1104195957
H   H256      1.0  0.44160  0.49080  0.26960  1.0000 0.1104195957
H   H257      1.0  0.51330  0.03660  0.59910  1.0000 0.0914431919
H   H258      1.0  0.47280  0.06380  0.58260  1.0000 0.1001809229
H   H259      1.0  0.59140  0.15420  0.68620  1.0000 0.1190767858
H   H260      1.0  0.59800  0.13550  0.62550  1.0000 0.1190767858
H   H261      1.0  0.55930  0.16690  0.63400  1.0000 0.1104195957
H   H262      1.0  0.03660  0.43750  0.52330  1.0000 0.0914431919
H   H263      1.0  0.06380  0.48120  0.59100  1.0000 0.1001809229
H   H264      1.0  0.15420  0.46800  0.56280  1.0000 0.1190767858
H   H265      1.0  0.13550  0.51000  0.53750  1.0000 0.1190767858
H   H266      1.0  0.16690  0.53290  0.60760  1.0000 0.1104195957
H   H267      1.0  0.43750  0.91420  0.40090  1.0000 0.0914431919
H   H268      1.0  0.48120  0.89020  0.41740  1.0000 0.1001809229
H   H269      1.0  0.46800  0.90520  0.31380  1.0000 0.1190767858
H   H270      1.0  0.51000  0.97250  0.37450  1.0000 0.1190767858
H   H271      1.0  0.53290  0.92530  0.36600  1.0000 0.1104195957
H   H272      1.0  0.91420  0.51330  0.47670  1.0000 0.0914431919
H   H273      1.0  0.89020  0.47280  0.40900  1.0000 0.1001809229
H   H274      1.0  0.90520  0.59140  0.43720  1.0000 0.1190767858
H   H275      1.0  0.97250  0.59800  0.46250  1.0000 0.1190767858
H   H276      1.0  0.92530  0.55930  0.39240  1.0000 0.1104195957
H   H277      1.0  0.09300  0.61730  0.07230  1.0000 0.1001809229
H   H278      1.0  0.09660  0.63850  0.13610  1.0000 0.0914431919
H   H279      1.0  0.97100  0.56750  0.07990  1.0000 0.1104195957
H   H280      1.0  0.98570  0.53380  0.03050  1.0000 0.1190767858
H   H281      1.0  0.00880  0.53590  0.09490  1.0000 0.0914431919
H   H282      1.0  0.61730  0.54500  0.52430  1.0000 0.1001809229
H   H283      1.0  0.63850  0.50240  0.54190  1.0000 0.0914431919
H   H284      1.0  0.56750  0.48760  0.59650  1.0000 0.1104195957
H   H285      1.0  0.53380  0.50330  0.54810  1.0000 0.1190767858
H   H286      1.0  0.53590  0.44100  0.52710  1.0000 0.0914431919
H   H287      1.0  0.54500  0.02070  0.92770  1.0000 0.1001809229
H   H288      1.0  0.50240  0.96050  0.86390  1.0000 0.0914431919
H   H289      1.0  0.48760  0.89110  0.92010  1.0000 0.1104195957
H   H290      1.0  0.50330  0.95520  0.96950  1.0000 0.1190767858
H   H291      1.0  0.44100  0.91390  0.90510  1.0000 0.0914431919
H   H292      1.0  0.02070  0.09300  0.47570  1.0000 0.1001809229
H   H293      1.0  0.96050  0.09660  0.45810  1.0000 0.0914431919
H   H294      1.0  0.89110  0.97100  0.40350  1.0000 0.1104195957
H   H295      1.0  0.95520  0.98570  0.45190  1.0000 0.1190767858
H   H296      1.0  0.91390  0.00880  0.47290  1.0000 0.0914431919
H   H297      1.0  0.54830  0.89370  0.59440  1.0000 0.0914431919
H   H298      1.0  0.54310  0.95290  0.61100  1.0000 0.0914431919
H   H299      1.0  0.44540  0.82110  0.52450  1.0000 0.1104195957
H   H300      1.0  0.43860  0.86850  0.57050  1.0000 0.1104195957
H   H301      1.0  0.44260  0.87770  0.51190  1.0000 0.1393639921
H   H302      1.0  0.89370  0.29930  0.34540  1.0000 0.0914431919
H   H303      1.0  0.95290  0.34190  0.40980  1.0000 0.0914431919
H   H304      1.0  0.82110  0.29660  0.37570  1.0000 0.1104195957
H   H305      1.0  0.86850  0.29800  0.42990  1.0000 0.1104195957
H   H306      1.0  0.87770  0.36580  0.43510  1.0000 0.1393639921
H   H307      1.0  0.29930  0.95390  0.40560  1.0000 0.0914431919
H   H308      1.0  0.34190  0.93210  0.38900  1.0000 0.0914431919
H   H309      1.0  0.29660  0.92090  0.47550  1.0000 0.1104195957
H   H310      1.0  0.29800  0.86810  0.42950  1.0000 0.1104195957
H   H311      1.0  0.36580  0.93070  0.48810  1.0000 0.1393639921
H   H312      1.0  0.95390  0.54830  0.65460  1.0000 0.0914431919
H   H313      1.0  0.93210  0.54310  0.59020  1.0000 0.0914431919
H   H314      1.0  0.92090  0.44540  0.62430  1.0000 0.1104195957
H   H315      1.0  0.86810  0.43860  0.57010  1.0000 0.1104195957
H   H316      1.0  0.93070  0.44260  0.56490  1.0000 0.1393639921
C   C1        1.0  0.33850  0.68590  0.79340  1.0000 0.0682913602
C   C2        1.0  0.89250  0.54510  0.20660  1.0000 0.0682913602
C   C3        1.0  0.29080  0.69040  0.80700  1.0000 -0.2194848487
C   C4        1.0  0.88340  0.48380  0.19300  1.0000 -0.2194848487
C   C5        1.0  0.22100  0.62870  0.77530  1.0000 0.1190767858
C   C6        1.0  0.85340  0.44570  0.22470  1.0000 0.1190767858
C   C7        1.0  0.20560  0.57120  0.73640  1.0000 -0.1811176735
C   C8        1.0  0.83480  0.46920  0.26360  1.0000 -0.1811176735
C   C9        1.0  0.25830  0.57330  0.72840  1.0000 0.0914431919
C   C10       1.0  0.84490  0.52990  0.27160  1.0000 0.0914431919
C   C11       1.0  0.16620  0.63030  0.78270  1.0000 0.0682913602
C   C12       1.0  0.84760  0.38350  0.21730  1.0000 0.0682913602
C   C13       1.0  0.17510  0.69170  0.80160  1.0000 -0.1512838286
C   C14       1.0  0.89010  0.37350  0.19840  1.0000 -0.1512838286
C   C15       1.0  0.12200  0.69330  0.80190  1.0000 -0.0914540353
C   C16       1.0  0.89140  0.32010  0.19810  1.0000 -0.0986530566
C   C17       1.0  0.06070  0.63300  0.78890  1.0000 0.0011151785
C   C18       1.0  0.84410  0.27180  0.21110  1.0000 0.0011151785
C   C19       1.0  0.05130  0.57410  0.77420  1.0000 -0.0788350327
C   C20       1.0  0.79990  0.27710  0.22580  1.0000 -0.0788350327
C   C21       1.0  0.10580  0.57200  0.77180  1.0000 -0.122357991
C   C22       1.0  0.80020  0.33400  0.22820  1.0000 -0.122357991
C   C23       1.0  0.00160  0.63400  0.78320  1.0000 0.5395968124
C   C24       1.0  0.85080  0.21840  0.21680  1.0000 0.5395968124
C   C25       1.0  0.52680  0.26090  0.33590  1.0000 0.0914431919
C   C26       1.0  0.92500  0.19090  0.66410  1.0000 0.0914431919
C   C27       1.0  0.58330  0.31130  0.39140  1.0000 -0.1703225428
C   C28       1.0  0.91990  0.19190  0.60860  1.0000 -0.1703225428
C   C29       1.0  0.58220  0.31340  0.44420  1.0000 0.1104195957
C   C30       1.0  0.86920  0.13800  0.55580  1.0000 0.1104195957
C   C31       1.0  0.52300  0.26300  0.44200  1.0000 -0.1903746263
C   C32       1.0  0.82100  0.08100  0.55800  1.0000 -0.1903746263
C   C33       1.0  0.46650  0.21360  0.38790  1.0000 0.0914431919
C   C34       1.0  0.82570  0.07860  0.61210  1.0000 0.0914431919
C   C35       1.0  0.64360  0.36670  0.49850  1.0000 0.0682913602
C   C36       1.0  0.86820  0.14510  0.50150  1.0000 0.0682913602
C   C37       1.0  0.70790  0.40400  0.50430  1.0000 -0.1078478468
C   C38       1.0  0.89970  0.20360  0.49570  1.0000 -0.1078478468
C   C39       1.0  0.76190  0.45840  0.55510  1.0000 -0.0914540353
C   C40       1.0  0.90330  0.20680  0.44490  1.0000 -0.0914540353
C   C41       1.0  0.75520  0.47960  0.60620  1.0000 -0.0214728972
C   C42       1.0  0.87340  0.14900  0.39380  1.0000 -0.0214728972
C   C43       1.0  0.69080  0.44320  0.60400  1.0000 -0.0986530566
C   C44       1.0  0.83920  0.08680  0.39600  1.0000 -0.0986530566
C   C45       1.0  0.63490  0.38960  0.54990  1.0000 -0.1512838286
C   C46       1.0  0.83970  0.08500  0.45010  1.0000 -0.1512838286
C   C47       1.0  0.81520  0.54070  0.66210  1.0000 0.5283879404
C   C48       1.0  0.87860  0.15310  0.33790  1.0000 0.5283879404
C   C49       1.0  0.00230  0.18720  0.22990  1.0000 0.0800309081
C   C50       1.0  0.95730  0.77240  0.77010  1.0000 0.0800309081
C   C51       1.0  0.06480  0.19900  0.23940  1.0000 -0.1811176735
C   C52       1.0  0.95960  0.82540  0.76060  1.0000 -0.1811176735
C   C53       1.0  0.08670  0.17790  0.27680  1.0000 0.1190767858
C   C54       1.0  0.90110  0.80990  0.72320  1.0000 0.1190767858
C   C55       1.0  0.04930  0.14780  0.30690  1.0000 -0.2004080216
C   C56       1.0  0.84090  0.74240  0.69310  1.0000 -0.2004080216
C   C57       1.0  0.98700  0.13910  0.29350  1.0000 0.1104195957
C   C58       1.0  0.84560  0.69350  0.70650  1.0000 0.1104195957
C   C59       1.0  0.14940  0.18480  0.28400  1.0000 0.0800309081
C   C60       1.0  0.90080  0.86540  0.71600  1.0000 0.0800309081
C   C61       1.0  0.19880  0.23330  0.27390  1.0000 -0.1512838286
C   C62       1.0  0.95940  0.92490  0.72610  1.0000 -0.1512838286
C   C63       1.0  0.25370  0.23200  0.27450  1.0000 -0.0914540353
C   C64       1.0  0.95750  0.97920  0.72550  1.0000 -0.0986530566
C   C65       1.0  0.25970  0.18790  0.28980  1.0000 0.0011151785
C   C66       1.0  0.89810  0.96990  0.71020  1.0000 0.0011151785
C   C67       1.0  0.21320  0.14240  0.30360  1.0000 -0.1078478468
C   C68       1.0  0.83880  0.90960  0.69640  1.0000 -0.1078478468
C   C69       1.0  0.15790  0.14260  0.30290  1.0000 -0.1512838286
C   C70       1.0  0.83970  0.85500  0.69710  1.0000 -0.1512838286
C   C71       1.0  0.31250  0.18090  0.28280  1.0000 0.5395968124
C   C72       1.0  0.89810  0.02970  0.71720  1.0000 0.5395968124
C   C73       1.0  0.95300  0.70140  0.88840  1.0000 0.0800309081
C   C74       1.0  0.81300  0.06460  0.11160  1.0000 0.0800309081
C   C75       1.0  0.95060  0.70720  0.94060  1.0000 -0.2004080216
C   C76       1.0  0.76660  0.01000  0.05940  1.0000 -0.2004080216
C   C77       1.0  0.89280  0.66140  0.94480  1.0000 0.1190767858
C   C78       1.0  0.71660  0.94800  0.05520  1.0000 0.1190767858
C   C79       1.0  0.83900  0.61120  0.89340  1.0000 -0.1703225428
C   C80       1.0  0.71780  0.94560  0.10660  1.0000 -0.1703225428
C   C81       1.0  0.84300  0.60820  0.83780  1.0000 0.1104195957
C   C82       1.0  0.77040  0.00520  0.16220  1.0000 0.1104195957
C   C83       1.0  0.88690  0.66290  0.00060  1.0000 0.0800309081
C   C84       1.0  0.66230  0.88630  0.99940  1.0000 0.0800309081
C   C85       1.0  0.82830  0.63520  0.00510  1.0000 -0.1310575267
C   C86       1.0  0.63010  0.82320  0.99490  1.0000 -0.1310575267
C   C87       1.0  0.82730  0.63660  0.06030  1.0000 -0.1078478468
C   C88       1.0  0.57630  0.76700  0.93970  1.0000 -0.1078478468
C   C89       1.0  0.88200  0.65780  0.10700  1.0000 -0.0086538689
C   C90       1.0  0.55080  0.77500  0.89300  1.0000 -0.0086538689
C   C91       1.0  0.94470  0.68790  0.10280  1.0000 -0.0914540353
C   C92       1.0  0.58510  0.84190  0.89720  1.0000 -0.0914540353
C   C93       1.0  0.94700  0.68690  0.05050  1.0000 -0.122357991
C   C94       1.0  0.63640  0.89650  0.94950  1.0000 -0.122357991
C   C95       1.0  0.87890  0.65320  0.16390  1.0000 0.5147513712
C   C96       1.0  0.48930  0.71500  0.83610  1.0000 0.5147513712
C   C97       1.0  0.48700  0.63990  0.29490  1.0000 0.0682913602
C   C98       1.0  0.34500  0.19210  0.70510  1.0000 0.0682913602
C   C99       1.0  0.54680  0.64690  0.30790  1.0000 -0.2103972619
C   C100      1.0  0.33900  0.23890  0.69210  1.0000 -0.2103972619
C   C101      1.0  0.58960  0.68070  0.28310  1.0000 0.1291866628
C   C102      1.0  0.39760  0.30650  0.71690  1.0000 0.1291866628
C   C103      1.0  0.56660  0.70520  0.24620  1.0000 -0.1903746263
C   C104      1.0  0.45900  0.32040  0.75380  1.0000 -0.1903746263
C   C105      1.0  0.50730  0.69390  0.23560  1.0000 0.0800309081
C   C106      1.0  0.45830  0.27170  0.76440  1.0000 0.0800309081
C   C107      1.0  0.65170  0.68730  0.29180  1.0000 0.0682913602
C   C108      1.0  0.39550  0.35990  0.70820  1.0000 0.0682913602
C   C109      1.0  0.70290  0.73650  0.28380  1.0000 -0.1392755394
C   C110      1.0  0.45270  0.41910  0.71620  1.0000 -0.1392755394
C   C111      1.0  0.75840  0.73630  0.28410  1.0000 -0.0914540353
C   C112      1.0  0.45220  0.47430  0.71590  1.0000 -0.0914540353
C   C113      1.0  0.76290  0.68940  0.29530  1.0000 -0.0086538689
C   C114      1.0  0.39410  0.46760  0.70470  1.0000 -0.0086538689
C   C115      1.0  0.71280  0.64190  0.30610  1.0000 -0.0986530566
C   C116      1.0  0.33580  0.40670  0.69390  1.0000 -0.0986530566
C   C117      1.0  0.65880  0.64230  0.30710  1.0000 -0.1512838286
C   C118      1.0  0.33520  0.35170  0.69290  1.0000 -0.1512838286
C   C119      1.0  0.81680  0.68520  0.28800  1.0000 0.5283879404
C   C120      1.0  0.39720  0.52880  0.71200  1.0000 0.5283879404
C   C121      1.0  0.32130  0.58280  0.61070  1.0000 0.0682913602
C   C122      1.0  0.97210  0.71060  0.38930  1.0000 0.0682913602
C   C123      1.0  0.31230  0.58470  0.55640  1.0000 -0.2004080216
C   C124      1.0  0.02830  0.75590  0.44360  1.0000 -0.2004080216
C   C125      1.0  0.36590  0.64210  0.55420  1.0000 0.1190767858
C   C126      1.0  0.08790  0.81170  0.44580  1.0000 0.1190767858
C   C127      1.0  0.41700  0.69180  0.60580  1.0000 -0.1613680793
C   C128      1.0  0.08600  0.81120  0.39420  1.0000 -0.1613680793
C   C129      1.0  0.42190  0.68710  0.65860  1.0000 0.0914431919
C   C130      1.0  0.02850  0.76330  0.34140  1.0000 0.0914431919
C   C131      1.0  0.36180  0.64490  0.49690  1.0000 0.0682913602
C   C132      1.0  0.14800  0.86490  0.50310  1.0000 0.0682913602
C   C133      1.0  0.33510  0.58680  0.44810  1.0000 -0.1512838286
C   C134      1.0  0.13870  0.88700  0.55190  1.0000 -0.1512838286
C   C135      1.0  0.34000  0.59000  0.39520  1.0000 -0.1078478468
C   C136      1.0  0.19480  0.94480  0.60480  1.0000 -0.1078478468
C   C137      1.0  0.36970  0.65090  0.39300  1.0000 -0.0086538689
C   C138      1.0  0.25790  0.97670  0.60700  1.0000 -0.0086538689
C   C139      1.0  0.39190  0.70880  0.44050  1.0000 -0.0914540353
C   C140      1.0  0.26830  0.95140  0.55950  1.0000 -0.0914540353
C   C141      1.0  0.38880  0.70490  0.49250  1.0000 -0.1310575267
C   C142      1.0  0.21240  0.89630  0.50750  1.0000 -0.1310575267
C   C143      1.0  0.37690  0.65470  0.33740  1.0000 0.5283879404
C   C144      1.0  0.31730  0.03950  0.66260  1.0000 0.5283879404
C   C145      1.0  0.34020  0.02660  0.26460  1.0000 0.1001809229
C   C146      1.0  0.76200  0.07560  0.73540  1.0000 0.1001809229
C   C147      1.0  0.32730  0.96410  0.25380  1.0000 -0.1811176735
C   C148      1.0  0.71030  0.07350  0.74620  1.0000 -0.1811176735
C   C149      1.0  0.35300  0.94420  0.21600  1.0000 0.1291866628
C   C150      1.0  0.72820  0.13700  0.78400  1.0000 0.1291866628
C   C151      1.0  0.38640  0.98520  0.19180  1.0000 -0.2103972619
C   C152      1.0  0.79340  0.19460  0.80820  1.0000 -0.2103972619
C   C153      1.0  0.39470  0.04660  0.20470  1.0000 0.0600960964
C   C154      1.0  0.84190  0.19000  0.79530  1.0000 0.0600960964
C   C155      1.0  0.34550  0.88090  0.20700  1.0000 0.0682913602
C   C156      1.0  0.67390  0.13850  0.79300  1.0000 0.0682913602
C   C157      1.0  0.29430  0.82940  0.21430  1.0000 -0.122357991
C   C158      1.0  0.61510  0.08000  0.78570  1.0000 -0.122357991
C   C159      1.0  0.29470  0.77460  0.21250  1.0000 -0.0648647507
C   C160      1.0  0.56210  0.08220  0.78750  1.0000 -0.0648647507
C   C161      1.0  0.34430  0.77110  0.20520  1.0000 -0.0086538689
C   C162      1.0  0.56590  0.13910  0.79480  1.0000 -0.0086538689
C   C163      1.0  0.39160  0.82020  0.19460  1.0000 -0.0986530566
C   C164      1.0  0.62560  0.19700  0.80540  1.0000 -0.0986530566
C   C165      1.0  0.39110  0.87500  0.19310  1.0000 -0.1613680793
C   C166      1.0  0.68190  0.19800  0.80690  1.0000 -0.1613680793
C   C167      1.0  0.34980  0.71720  0.21240  1.0000 0.5395968124
C   C168      1.0  0.50480  0.13740  0.78760  1.0000 0.5395968124
C   C169      1.0  0.34470  0.10820  0.83750  1.0000 0.0914431919
C   C170      1.0  0.27070  0.50720  0.16250  1.0000 0.0914431919
C   C171      1.0  0.34100  0.11440  0.89260  1.0000 -0.1512838286
C   C172      1.0  0.22180  0.44840  0.10740  1.0000 -0.1512838286
C   C173      1.0  0.39180  0.16740  0.94320  1.0000 0.1104195957
C   C174      1.0  0.22420  0.44860  0.05680  1.0000 0.1104195957
C   C175      1.0  0.44910  0.22210  0.94360  1.0000 -0.2194848487
C   C176      1.0  0.27850  0.50550  0.05640  1.0000 -0.2194848487
C   C177      1.0  0.44990  0.21210  0.88600  1.0000 0.1104195957
C   C178      1.0  0.32610  0.56390  0.11400  1.0000 0.1104195957
C   C179      1.0  0.38920  0.17330  0.00170  1.0000 0.0800309081
C   C180      1.0  0.17160  0.38750  0.99830  1.0000 0.0800309081
C   C181      1.0  0.32880  0.14230  0.00710  1.0000 -0.1310575267
C   C182      1.0  0.13520  0.32170  0.99290  1.0000 -0.1310575267
C   C183      1.0  0.32450  0.13630  0.05600  1.0000 -0.0914540353
C   C184      1.0  0.08030  0.26850  0.94400  1.0000 -0.0914540353
C   C185      1.0  0.44590  0.19940  0.10510  1.0000 -0.0914540353
C   C186      1.0  0.09430  0.34080  0.89490  1.0000 -0.0914540353
C   C187      1.0  0.44880  0.20120  0.05160  1.0000 -0.1613680793
C   C188      1.0  0.14960  0.39720  0.94840  1.0000 -0.1613680793
C   C189      1.0  0.37850  0.15490  0.16080  1.0000 0.5152530635
C   C190      1.0  0.99410  0.21770  0.83920  1.0000 0.5152530635
C   C191      1.0  0.38240  0.16350  0.10750  1.0000 -0.0391405036
C   C192      1.0  0.05600  0.27490  0.89250  1.0000 -0.0391405036
C   C193      1.0  0.68590  0.89250  0.34740  1.0000 0.0682913602
C   C194      1.0  0.54510  0.33850  0.65260  1.0000 0.0682913602
C   C195      1.0  0.69040  0.88340  0.39960  1.0000 -0.2194848487
C   C196      1.0  0.48380  0.29080  0.60040  1.0000 -0.2194848487
C   C197      1.0  0.62870  0.85340  0.40770  1.0000 0.1190767858
C   C198      1.0  0.44570  0.22100  0.59230  1.0000 0.1190767858
C   C199      1.0  0.57120  0.83480  0.36560  1.0000 -0.1811176735
C   C200      1.0  0.46920  0.20560  0.63440  1.0000 -0.1811176735
C   C201      1.0  0.57330  0.84490  0.31500  1.0000 0.0914431919
C   C202      1.0  0.52990  0.25830  0.68500  1.0000 0.0914431919
C   C203      1.0  0.63030  0.84760  0.46410  1.0000 0.0682913602
C   C204      1.0  0.38350  0.16620  0.53590  1.0000 0.0682913602
C   C205      1.0  0.69170  0.89010  0.51660  1.0000 -0.1512838286
C   C206      1.0  0.37350  0.17510  0.48340  1.0000 -0.1512838286
C   C207      1.0  0.69330  0.89140  0.57130  1.0000 -0.0986530566
C   C208      1.0  0.32010  0.12200  0.42870  1.0000 -0.0986530566
C   C209      1.0  0.63300  0.84410  0.57230  1.0000 0.0011151785
C   C210      1.0  0.27180  0.06070  0.42770  1.0000 0.0011151785
C   C211      1.0  0.57410  0.79990  0.52280  1.0000 -0.0788350327
C   C212      1.0  0.27710  0.05130  0.47720  1.0000 -0.0788350327
C   C213      1.0  0.57200  0.80020  0.46620  1.0000 -0.122357991
C   C214      1.0  0.33400  0.10580  0.53380  1.0000 -0.122357991
C   C215      1.0  0.63400  0.85080  0.63240  1.0000 0.5395968124
C   C216      1.0  0.21840  0.00160  0.36760  1.0000 0.5395968124
C   C217      1.0  0.26090  0.92500  0.73410  1.0000 0.0914431919
C   C218      1.0  0.19090  0.52680  0.26590  1.0000 0.0914431919
C   C219      1.0  0.31130  0.91990  0.72800  1.0000 -0.1703225428
C   C220      1.0  0.19190  0.58330  0.27200  1.0000 -0.1703225428
C   C221      1.0  0.31340  0.86920  0.73120  1.0000 0.1104195957
C   C222      1.0  0.13800  0.58220  0.26880  1.0000 0.1104195957
C   C223      1.0  0.26300  0.82100  0.74000  1.0000 -0.2004080216
C   C224      1.0  0.08100  0.52300  0.26000  1.0000 -0.2004080216
C   C225      1.0  0.21360  0.82570  0.74710  1.0000 0.0914431919
C   C226      1.0  0.07860  0.46650  0.25290  1.0000 0.0914431919
C   C227      1.0  0.36670  0.86820  0.72310  1.0000 0.0682913602
C   C228      1.0  0.14510  0.64360  0.27690  1.0000 0.0682913602
C   C229      1.0  0.40400  0.89970  0.69610  1.0000 -0.1078478468
C   C230      1.0  0.20360  0.70790  0.30390  1.0000 -0.1078478468
C   C231      1.0  0.45840  0.90330  0.69650  1.0000 -0.0914540353
C   C232      1.0  0.20680  0.76190  0.30350  1.0000 -0.0914540353
C   C233      1.0  0.47960  0.87340  0.72440  1.0000 -0.0214728972
C   C234      1.0  0.14900  0.75520  0.27560  1.0000 -0.0214728972
C   C235      1.0  0.44320  0.83920  0.75240  1.0000 -0.0986530566
C   C236      1.0  0.08680  0.69080  0.24760  1.0000 -0.0986530566
C   C237      1.0  0.38960  0.83970  0.75470  1.0000 -0.1512838286
C   C238      1.0  0.08500  0.63490  0.24530  1.0000 -0.1512838286
C   C239      1.0  0.54070  0.87860  0.72550  1.0000 0.5283879404
C   C240      1.0  0.15310  0.81520  0.27450  1.0000 0.5283879404
C   C241      1.0  0.18720  0.95730  0.18490  1.0000 0.0800309081
C   C242      1.0  0.77240  0.00230  0.81510  1.0000 0.0800309081
C   C243      1.0  0.19900  0.95960  0.13420  1.0000 -0.1811176735
C   C244      1.0  0.82540  0.06480  0.86580  1.0000 -0.1811176735
C   C245      1.0  0.17790  0.90110  0.09120  1.0000 0.1190767858
C   C246      1.0  0.80990  0.08670  0.90880  1.0000 0.1190767858
C   C247      1.0  0.14780  0.84090  0.09850  1.0000 -0.2004080216
C   C248      1.0  0.74240  0.04930  0.90150  1.0000 -0.2004080216
C   C249      1.0  0.13910  0.84560  0.15210  1.0000 0.1104195957
C   C250      1.0  0.69350  0.98700  0.84790  1.0000 0.1104195957
C   C251      1.0  0.18480  0.90080  0.03540  1.0000 0.0800309081
C   C252      1.0  0.86540  0.14940  0.96460  1.0000 0.0800309081
C   C253      1.0  0.23330  0.95940  0.03450  1.0000 -0.1512838286
C   C254      1.0  0.92490  0.19880  0.96550  1.0000 -0.1512838286
C   C255      1.0  0.23200  0.95750  0.97830  1.0000 -0.0914540353
C   C256      1.0  0.97920  0.25370  0.02170  1.0000 -0.0986530566
C   C257      1.0  0.18790  0.89810  0.92820  1.0000 0.0011151785
C   C258      1.0  0.96990  0.25970  0.07180  1.0000 0.0011151785
C   C259      1.0  0.14240  0.83880  0.92920  1.0000 -0.1078478468
C   C260      1.0  0.90960  0.21320  0.07080  1.0000 -0.1078478468
C   C261      1.0  0.14260  0.83970  0.98470  1.0000 -0.1512838286
C   C262      1.0  0.85500  0.15790  0.01530  1.0000 -0.1512838286
C   C263      1.0  0.18090  0.89810  0.86840  1.0000 0.5395968124
C   C264      1.0  0.02970  0.31250  0.13160  1.0000 0.5395968124
C   C265      1.0  0.70140  0.81300  0.74840  1.0000 0.0800309081
C   C266      1.0  0.06460  0.95300  0.25160  1.0000 0.0800309081
C   C267      1.0  0.70720  0.76660  0.75660  1.0000 -0.2004080216
C   C268      1.0  0.01000  0.95060  0.24340  1.0000 -0.2004080216
C   C269      1.0  0.66140  0.71660  0.76860  1.0000 0.1190767858
C   C270      1.0  0.94800  0.89280  0.23140  1.0000 0.1190767858
C   C271      1.0  0.61120  0.71780  0.77220  1.0000 -0.1703225428
C   C272      1.0  0.94560  0.83900  0.22780  1.0000 -0.1703225428
C   C273      1.0  0.60820  0.77040  0.76520  1.0000 0.1104195957
C   C274      1.0  0.00520  0.84300  0.23480  1.0000 0.1104195957
C   C275      1.0  0.66290  0.66230  0.77600  1.0000 0.0800309081
C   C276      1.0  0.88630  0.88690  0.22400  1.0000 0.0800309081
C   C277      1.0  0.63520  0.63010  0.80690  1.0000 -0.1310575267
C   C278      1.0  0.82320  0.82830  0.19310  1.0000 -0.1310575267
C   C279      1.0  0.63660  0.57630  0.80930  1.0000 -0.1078478468
C   C280      1.0  0.76700  0.82730  0.19070  1.0000 -0.1078478468
C   C281      1.0  0.65780  0.55080  0.77580  1.0000 -0.0086538689
C   C282      1.0  0.77500  0.88200  0.22420  1.0000 -0.0086538689
C   C283      1.0  0.68790  0.58510  0.74320  1.0000 -0.0914540353
C   C284      1.0  0.84190  0.94470  0.25680  1.0000 -0.0914540353
C   C285      1.0  0.68690  0.63640  0.73990  1.0000 -0.122357991
C   C286      1.0  0.89650  0.94700  0.26010  1.0000 -0.122357991
C   C287      1.0  0.65320  0.48930  0.77430  1.0000 0.5147513712
C   C288      1.0  0.71500  0.87890  0.22570  1.0000 0.5147513712
C   C289      1.0  0.63990  0.34500  0.15290  1.0000 0.0682913602
C   C290      1.0  0.19210  0.48700  0.84710  1.0000 0.0682913602
C   C291      1.0  0.64690  0.33900  0.10010  1.0000 -0.2103972619
C   C292      1.0  0.23890  0.54680  0.89990  1.0000 -0.2103972619
C   C293      1.0  0.68070  0.39760  0.09110  1.0000 0.1291866628
C   C294      1.0  0.30650  0.58960  0.90890  1.0000 0.1291866628
C   C295      1.0  0.70520  0.45900  0.13860  1.0000 -0.1903746263
C   C296      1.0  0.32040  0.56660  0.86140  1.0000 -0.1903746263
C   C297      1.0  0.69390  0.45830  0.18660  1.0000 0.0800309081
C   C298      1.0  0.27170  0.50730  0.81340  1.0000 0.0800309081
C   C299      1.0  0.68730  0.39550  0.03560  1.0000 0.0682913602
C   C300      1.0  0.35990  0.65170  0.96440  1.0000 0.0682913602
C   C301      1.0  0.73650  0.45270  0.03360  1.0000 -0.1392755394
C   C302      1.0  0.41910  0.70290  0.96640  1.0000 -0.1392755394
C   C303      1.0  0.73630  0.45220  0.97790  1.0000 -0.0914540353
C   C304      1.0  0.47430  0.75840  0.02210  1.0000 -0.0914540353
C   C305      1.0  0.68940  0.39410  0.92650  1.0000 -0.0086538689
C   C306      1.0  0.46760  0.76290  0.07350  1.0000 -0.0086538689
C   C307      1.0  0.64190  0.33580  0.92910  1.0000 -0.0986530566
C   C308      1.0  0.40670  0.71280  0.07090  1.0000 -0.0986530566
C   C309      1.0  0.64230  0.33520  0.98350  1.0000 -0.1512838286
C   C310      1.0  0.35170  0.65880  0.01650  1.0000 -0.1512838286
C   C311      1.0  0.68520  0.39720  0.86840  1.0000 0.5283879404
C   C312      1.0  0.52880  0.81680  0.13160  1.0000 0.5283879404
C   C313      1.0  0.58280  0.97210  0.26150  1.0000 0.0682913602
C   C314      1.0  0.71060  0.32130  0.73850  1.0000 0.0682913602
C   C315      1.0  0.58470  0.02830  0.27240  1.0000 -0.2004080216
C   C316      1.0  0.75590  0.31230  0.72760  1.0000 -0.2004080216
C   C317      1.0  0.64210  0.08790  0.27620  1.0000 0.1190767858
C   C318      1.0  0.81170  0.36590  0.72380  1.0000 0.1190767858
C   C319      1.0  0.69180  0.08600  0.27480  1.0000 -0.1613680793
C   C320      1.0  0.81120  0.41700  0.72520  1.0000 -0.1613680793
C   C321      1.0  0.68710  0.02850  0.26520  1.0000 0.0914431919
C   C322      1.0  0.76330  0.42190  0.73480  1.0000 0.0914431919
C   C323      1.0  0.64490  0.14800  0.28310  1.0000 0.0682913602
C   C324      1.0  0.86490  0.36180  0.71690  1.0000 0.0682913602
C   C325      1.0  0.58680  0.13870  0.25170  1.0000 -0.1512838286
C   C326      1.0  0.88700  0.33510  0.74830  1.0000 -0.1512838286
C   C327      1.0  0.59000  0.19480  0.25000  1.0000 -0.1078478468
C   C328      1.0  0.94480  0.34000  0.75000  1.0000 -0.1078478468
C   C329      1.0  0.65090  0.25790  0.28120  1.0000 -0.0086538689
C   C330      1.0  0.97670  0.36970  0.71880  1.0000 -0.0086538689
C   C331      1.0  0.70880  0.26830  0.31690  1.0000 -0.0914540353
C   C332      1.0  0.95140  0.39190  0.68310  1.0000 -0.0914540353
C   C333      1.0  0.70490  0.21240  0.31610  1.0000 -0.1310575267
C   C334      1.0  0.89630  0.38880  0.68390  1.0000 -0.1310575267
C   C335      1.0  0.65470  0.31730  0.27780  1.0000 0.5283879404
C   C336      1.0  0.03950  0.37690  0.72220  1.0000 0.5283879404
C   C337      1.0  0.02660  0.76200  0.68640  1.0000 0.1001809229
C   C338      1.0  0.07560  0.34020  0.31360  1.0000 0.1001809229
C   C339      1.0  0.96410  0.71030  0.63680  1.0000 -0.1811176735
C   C340      1.0  0.07350  0.32730  0.36320  1.0000 -0.1811176735
C   C341      1.0  0.94420  0.72820  0.59120  1.0000 0.1291866628
C   C342      1.0  0.13700  0.35300  0.40880  1.0000 0.1291866628
C   C343      1.0  0.98520  0.79340  0.59880  1.0000 -0.2103972619
C   C344      1.0  0.19460  0.38640  0.40120  1.0000 -0.2103972619
C   C345      1.0  0.04660  0.84190  0.65190  1.0000 0.0600960964
C   C346      1.0  0.19000  0.39470  0.34810  1.0000 0.0600960964
C   C347      1.0  0.88090  0.67390  0.53540  1.0000 0.0682913602
C   C348      1.0  0.13850  0.34550  0.46460  1.0000 0.0682913602
C   C349      1.0  0.82940  0.61510  0.53510  1.0000 -0.122357991
C   C350      1.0  0.08000  0.29430  0.46490  1.0000 -0.122357991
C   C351      1.0  0.77460  0.56210  0.47990  1.0000 -0.0648647507
C   C352      1.0  0.08220  0.29470  0.52010  1.0000 -0.0648647507
C   C353      1.0  0.77110  0.56590  0.42680  1.0000 -0.0086538689
C   C354      1.0  0.13910  0.34430  0.57320  1.0000 -0.0086538689
C   C355      1.0  0.82020  0.62560  0.42860  1.0000 -0.0986530566
C   C356      1.0  0.19700  0.39160  0.57140  1.0000 -0.0986530566
C   C357      1.0  0.87500  0.68190  0.48390  1.0000 -0.1613680793
C   C358      1.0  0.19800  0.39110  0.51610  1.0000 -0.1613680793
C   C359      1.0  0.71720  0.50480  0.36740  1.0000 0.5395968124
C   C360      1.0  0.13740  0.34980  0.63260  1.0000 0.5395968124
C   C361      1.0  0.10820  0.27070  0.76350  1.0000 0.0914431919
C   C362      1.0  0.50720  0.34470  0.23650  1.0000 0.0914431919
C   C363      1.0  0.11440  0.22180  0.77340  1.0000 -0.1512838286
C   C364      1.0  0.44840  0.34100  0.22660  1.0000 -0.1512838286
C   C365      1.0  0.16740  0.22420  0.77560  1.0000 0.1104195957
C   C366      1.0  0.44860  0.39180  0.22440  1.0000 0.1104195957
C   C367      1.0  0.22210  0.27850  0.77300  1.0000 -0.2194848487
C   C368      1.0  0.50550  0.44910  0.22700  1.0000 -0.2194848487
C   C369      1.0  0.21210  0.32610  0.76220  1.0000 0.1104195957
C   C370      1.0  0.56390  0.44990  0.23780  1.0000 0.1104195957
C   C371      1.0  0.17330  0.17160  0.78410  1.0000 0.0800309081
C   C372      1.0  0.38750  0.38920  0.21590  1.0000 0.0800309081
C   C373      1.0  0.14230  0.13520  0.81350  1.0000 -0.1310575267
C   C374      1.0  0.32170  0.32880  0.18650  1.0000 -0.1310575267
C   C375      1.0  0.13630  0.08030  0.81180  1.0000 -0.0914540353
C   C376      1.0  0.26850  0.32450  0.18820  1.0000 -0.0914540353
C   C377      1.0  0.19940  0.09430  0.75350  1.0000 -0.0914540353
C   C378      1.0  0.34080  0.44590  0.24650  1.0000 -0.0914540353
C   C379      1.0  0.20120  0.14960  0.75240  1.0000 -0.1613680793
C   C380      1.0  0.39720  0.44880  0.24760  1.0000 -0.1613680793
C   C381      1.0  0.15490  0.99410  0.77640  1.0000 0.5152530635
C   C382      1.0  0.21770  0.37850  0.22360  1.0000 0.5152530635
C   C383      1.0  0.16350  0.05600  0.78110  1.0000 -0.0391405036
C   C384      1.0  0.27490  0.38240  0.21890  1.0000 -0.0391405036
C   C385      1.0  0.50180  0.06500  0.61720  1.0000 0.0682913602
C   C386      1.0  0.56830  0.13730  0.64300  1.0000 -0.4021796918
C   C387      1.0  0.06500  0.44780  0.56320  1.0000 0.0682913602
C   C388      1.0  0.13730  0.49430  0.56900  1.0000 -0.4021796918
C   C389      1.0  0.44780  0.88460  0.38280  1.0000 0.0682913602
C   C390      1.0  0.49430  0.92530  0.35700  1.0000 -0.4021796918
C   C391      1.0  0.88460  0.50180  0.43680  1.0000 0.0682913602
C   C392      1.0  0.92530  0.56830  0.43100  1.0000 -0.4021796918
C   C393      1.0  0.07210  0.62930  0.09480  1.0000 0.0682913602
C   C394      1.0  0.00320  0.56020  0.07300  1.0000 -0.369295541
C   C395      1.0  0.62930  0.53450  0.55720  1.0000 0.0682913602
C   C396      1.0  0.56020  0.48720  0.55700  1.0000 -0.369295541
C   C397      1.0  0.53450  0.97730  0.90520  1.0000 0.0682913602
C   C398      1.0  0.48720  0.93020  0.92700  1.0000 -0.369295541
C   C399      1.0  0.97730  0.07210  0.44280  1.0000 0.0682913602
C   C400      1.0  0.93020  0.00320  0.44300  1.0000 -0.369295541
C   C401      1.0  0.53660  0.91870  0.57710  1.0000 0.0682913602
C   C402      1.0  0.45870  0.86680  0.54290  1.0000 -0.4095479136
C   C403      1.0  0.91870  0.34160  0.38210  1.0000 0.0682913602
C   C404      1.0  0.86680  0.32390  0.40810  1.0000 -0.4095479136
C   C405      1.0  0.34160  0.95950  0.42290  1.0000 0.0682913602
C   C406      1.0  0.32390  0.91580  0.45710  1.0000 -0.4095479136
C   C407      1.0  0.95950  0.53660  0.61790  1.0000 0.0682913602
C   C408      1.0  0.91580  0.45870  0.59190  1.0000 -0.4095479136
N   N1        1.0  0.32380  0.62810  0.75470  1.0000 -0.2508138192
N   N2        1.0  0.87340  0.56910  0.24530  1.0000 -0.2508138192
N   N3        1.0  0.46770  0.21370  0.33640  1.0000 -0.2194848487
N   N4        1.0  0.87730  0.13130  0.66360  1.0000 -0.2194848487
N   N5        1.0  0.96410  0.15830  0.25640  1.0000 -0.2416820077
N   N6        1.0  0.90190  0.70770  0.74360  1.0000 -0.2416820077
N   N7        1.0  0.89980  0.65390  0.83770  1.0000 -0.2103972619
N   N8        1.0  0.81620  0.06210  0.16230  1.0000 -0.2103972619
N   N9        1.0  0.46610  0.66210  0.25840  1.0000 -0.2329378834
N   N10       1.0  0.40370  0.20770  0.74160  1.0000 -0.2329378834
N   N11       1.0  0.37650  0.63240  0.66210  1.0000 -0.2194848487
N   N12       1.0  0.97030  0.71440  0.33790  1.0000 -0.2194848487
N   N13       1.0  0.37300  0.06820  0.24200  1.0000 -0.2416820077
N   N14       1.0  0.82620  0.13100  0.75800  1.0000 -0.2416820077
N   N15       1.0  0.40190  0.15740  0.83650  1.0000 -0.2329378834
N   N16       1.0  0.32090  0.56540  0.16350  1.0000 -0.2329378834
N   N17       1.0  0.62810  0.87340  0.30430  1.0000 -0.2508138192
N   N18       1.0  0.56910  0.32380  0.69570  1.0000 -0.2508138192
N   N19       1.0  0.21370  0.87730  0.74600  1.0000 -0.2194848487
N   N20       1.0  0.13130  0.46770  0.25400  1.0000 -0.2194848487
N   N21       1.0  0.15830  0.90190  0.19420  1.0000 -0.2416820077
N   N22       1.0  0.70770  0.96410  0.80580  1.0000 -0.2416820077
N   N23       1.0  0.65390  0.81620  0.75410  1.0000 -0.2103972619
N   N24       1.0  0.06210  0.89980  0.24590  1.0000 -0.2103972619
N   N25       1.0  0.66210  0.40370  0.19600  1.0000 -0.2329378834
N   N26       1.0  0.20770  0.46610  0.80400  1.0000 -0.2329378834
N   N27       1.0  0.63240  0.97030  0.25590  1.0000 -0.2194848487
N   N28       1.0  0.71440  0.37650  0.74410  1.0000 -0.2194848487
N   N29       1.0  0.06820  0.82620  0.69520  1.0000 -0.2416820077
N   N30       1.0  0.13100  0.37300  0.30480  1.0000 -0.2416820077
N   N31       1.0  0.15740  0.32090  0.75550  1.0000 -0.2329378834
N   N32       1.0  0.56540  0.40190  0.24450  1.0000 -0.2329378834
O   O1        1.0  0.00750  0.68610  0.78740  1.0000 -0.510325607
O   O2        1.0  0.89870  0.22010  0.21260  1.0000 -0.510325607
O   O3        1.0  0.94520  0.57970  0.77230  1.0000 -0.5281427935
O   O4        1.0  0.80740  0.17290  0.22770  1.0000 -0.5281427935
O   O5        1.0  0.87310  0.58020  0.66370  1.0000 -0.510325607
O   O6        1.0  0.91650  0.20940  0.33630  1.0000 -0.510325607
O   O7        1.0  0.80500  0.55620  0.70740  1.0000 -0.5194510342
O   O8        1.0  0.84880  0.09760  0.29260  1.0000 -0.5194510342
O   O9        1.0  0.35910  0.22410  0.27220  1.0000 -0.5281427935
O   O10       1.0  0.95190  0.08690  0.72780  1.0000 -0.5194510342
O   O11       1.0  0.31100  0.13280  0.28660  1.0000 -0.510325607
O   O12       1.0  0.84620  0.02440  0.71340  1.0000 -0.510325607
O   O13       1.0  0.82360  0.61950  0.16530  1.0000 -0.4892716257
O   O14       1.0  0.45420  0.65830  0.83470  1.0000 -0.4892716257
O   O15       1.0  0.93360  0.68320  0.20880  1.0000 -0.5034607088
O   O16       1.0  0.47440  0.72480  0.79120  1.0000 -0.5034607088
O   O17       1.0  0.81380  0.63500  0.29020  1.0000 -0.510325607
O   O18       1.0  0.34480  0.52360  0.70980  1.0000 -0.510325607
O   O19       1.0  0.86060  0.72630  0.27710  1.0000 -0.4892716257
O   O20       1.0  0.44920  0.58350  0.72290  1.0000 -0.4892716257
O   O21       1.0  0.34840  0.60030  0.29250  1.0000 -0.5194510342
O   O22       1.0  0.30780  0.05590  0.70750  1.0000 -0.5194510342
O   O23       1.0  0.41150  0.71190  0.33540  1.0000 -0.5034607088
O   O24       1.0  0.37650  0.07610  0.66460  1.0000 -0.5034607088
O   O25       1.0  0.30570  0.67220  0.22210  1.0000 -0.510325607
O   O26       1.0  0.45010  0.08360  0.77790  1.0000 -0.510325607
O   O27       1.0  0.39960  0.72160  0.21040  1.0000 -0.5194510342
O   O28       1.0  0.51120  0.18920  0.78960  1.0000 -0.5194510342
O   O29       1.0  0.43500  0.18530  0.20630  1.0000 -0.5384677088
O   O30       1.0  0.97900  0.22870  0.79370  1.0000 -0.5384677088
O   O31       1.0  0.32210  0.11930  0.16100  1.0000 -0.510325607
O   O32       1.0  0.95830  0.16110  0.83900  1.0000 -0.510325607
O   O33       1.0  0.68610  0.89870  0.67860  1.0000 -0.510325607
O   O34       1.0  0.22010  0.00750  0.32140  1.0000 -0.510325607
O   O35       1.0  0.57970  0.80740  0.63450  1.0000 -0.5281427935
O   O36       1.0  0.17290  0.94520  0.36550  1.0000 -0.5281427935
O   O37       1.0  0.58020  0.91650  0.70710  1.0000 -0.510325607
O   O38       1.0  0.20940  0.87310  0.29290  1.0000 -0.510325607
O   O39       1.0  0.55620  0.84880  0.75120  1.0000 -0.5194510342
O   O40       1.0  0.09760  0.80500  0.24880  1.0000 -0.5194510342
O   O41       1.0  0.22410  0.95190  0.86500  1.0000 -0.5194510342
O   O42       1.0  0.08690  0.35910  0.13500  1.0000 -0.5281427935
O   O43       1.0  0.13280  0.84620  0.82180  1.0000 -0.510325607
O   O44       1.0  0.02440  0.31100  0.17820  1.0000 -0.510325607
O   O45       1.0  0.61950  0.45420  0.79590  1.0000 -0.4892716257
O   O46       1.0  0.65830  0.82360  0.20410  1.0000 -0.4892716257
O   O47       1.0  0.68320  0.47440  0.74960  1.0000 -0.5034607088
O   O48       1.0  0.72480  0.93360  0.25040  1.0000 -0.5034607088
O   O49       1.0  0.63500  0.34480  0.82120  1.0000 -0.510325607
O   O50       1.0  0.52360  0.81380  0.17880  1.0000 -0.510325607
O   O51       1.0  0.72630  0.44920  0.86570  1.0000 -0.4892716257
O   O52       1.0  0.58350  0.86060  0.13430  1.0000 -0.4892716257
O   O53       1.0  0.60030  0.30780  0.25190  1.0000 -0.5194510342
O   O54       1.0  0.05590  0.34840  0.74810  1.0000 -0.5194510342
O   O55       1.0  0.71190  0.37650  0.30040  1.0000 -0.5034607088
O   O56       1.0  0.07610  0.41150  0.69960  1.0000 -0.5034607088
O   O57       1.0  0.67220  0.45010  0.36650  1.0000 -0.510325607
O   O58       1.0  0.08360  0.30570  0.63350  1.0000 -0.510325607
O   O59       1.0  0.72160  0.51120  0.32200  1.0000 -0.5194510342
O   O60       1.0  0.18920  0.39960  0.67800  1.0000 -0.5194510342
O   O61       1.0  0.18530  0.97900  0.75030  1.0000 -0.5384677088
O   O62       1.0  0.22870  0.43500  0.24970  1.0000 -0.5384677088
O   O63       1.0  0.11930  0.95830  0.79720  1.0000 -0.510325607
O   O64       1.0  0.16110  0.32210  0.20280  1.0000 -0.510325607
O   O65       1.0  0.45230  0.02160  0.63370  1.0000 -0.4095479136
O   O66       1.0  0.02160  0.38790  0.56930  1.0000 -0.4095479136
O   O67       1.0  0.38790  0.81860  0.36630  1.0000 -0.4095479136
O   O68       1.0  0.81860  0.45230  0.43070  1.0000 -0.4095479136
O   O69       1.0  0.10000  0.69680  0.10120  1.0000 -0.5603433585
O   O70       1.0  0.69680  0.59560  0.59680  1.0000 -0.5603433585
O   O71       1.0  0.59560  0.99880  0.89880  1.0000 -0.5603433585
O   O72       1.0  0.99880  0.10000  0.40320  1.0000 -0.5603433585
O   O73       1.0  0.59420  0.95920  0.56700  1.0000 -0.5034607088
O   O74       1.0  0.95920  0.39220  0.36500  1.0000 -0.5034607088
O   O75       1.0  0.39220  0.02720  0.43300  1.0000 -0.510325607
O   O76       1.0  0.02720  0.59420  0.63500  1.0000 -0.5034607088
