# DDEC6 charges by PACMAN v1.1 (https://github.com/mtap-research/PACMAN-charge/)
data_2012[Zn][nan]3[ION]2
_chemical_formula_sum              "Zn8 H96 C60 N6 O48"
_cell_length_a       9.4178
_cell_length_b       15.4572
_cell_length_c       18.2451
_cell_angle_alpha    95.399
_cell_angle_beta     91.352
_cell_angle_gamma    90.312

_symmetry_space_group_name_H-M    "P 1"
_symmetry_Int_Tables_number       1

loop_
  _symmetry_equiv_pos_as_xyz
  'x, y, z'

loop_
  _atom_site_type_symbol
  _atom_site_label
  _atom_site_symmetry_multiplicity
  _atom_site_fract_x
  _atom_site_fract_y
  _atom_site_fract_z
  _atom_site_occupancy
  _atom_site_charge
Zn  Zn1       1.0  0.25341  0.08870  0.02975  1.0000 0.8588479279
Zn  Zn2       1.0  0.74659  0.91130  0.97025  1.0000 0.8588479279
Zn  Zn3       1.0  0.12112  0.41788  0.11214  1.0000 0.888505123
Zn  Zn4       1.0  0.87888  0.58212  0.88786  1.0000 0.8956858932
Zn  Zn5       1.0  0.11070  0.58318  0.38737  1.0000 0.888505123
Zn  Zn6       1.0  0.88930  0.41682  0.61263  1.0000 0.888505123
Zn  Zn7       1.0  0.25004  0.91445  0.46921  1.0000 0.8588479279
Zn  Zn8       1.0  0.74996  0.08555  0.53079  1.0000 0.8588479279
H   H1        1.0  0.06690  0.79780  0.05240  1.0000 0.269056481
H   H2        1.0  0.09660  0.70630  0.03590  1.0000 0.269056481
H   H3        1.0  0.10500  0.80500  0.24390  1.0000 0.1509139963
H   H4        1.0  0.22780  0.82590  0.19160  1.0000 0.1312270543
H   H5        1.0  0.07670  0.86550  0.18080  1.0000 0.1400133862
H   H6        1.0  0.14160  0.68820  0.15660  1.0000 0.0816874428
H   H7        1.0  0.91500  0.66500  0.11170  1.0000 0.1509139963
H   H8        1.0  0.91290  0.70250  0.19460  1.0000 0.1509139963
H   H9        1.0  0.87870  0.76300  0.13220  1.0000 0.1400133862
H   H10       1.0  0.36650  0.70230  0.12250  1.0000 0.1312270543
H   H11       1.0  0.34530  0.65210  0.04420  1.0000 0.1509139963
H   H12       1.0  0.46630  0.72210  0.05850  1.0000 0.1509139963
H   H13       1.0  0.29710  0.83130  0.07650  1.0000 0.0816874428
H   H14       1.0  0.21100  0.82940  0.95530  1.0000 0.1312270543
H   H15       1.0  0.37080  0.80150  0.95560  1.0000 0.1509139963
H   H16       1.0  0.25060  0.73100  0.94060  1.0000 0.1509139963
H   H17       1.0  0.93310  0.20220  0.94760  1.0000 0.269056481
H   H18       1.0  0.90340  0.29370  0.96410  1.0000 0.269056481
H   H19       1.0  0.89500  0.19500  0.75610  1.0000 0.1509139963
H   H20       1.0  0.77220  0.17410  0.80840  1.0000 0.1312270543
H   H21       1.0  0.92330  0.13450  0.81920  1.0000 0.1400133862
H   H22       1.0  0.85840  0.31180  0.84340  1.0000 0.0816874428
H   H23       1.0  0.08500  0.33500  0.88830  1.0000 0.1509139963
H   H24       1.0  0.08710  0.29750  0.80540  1.0000 0.1509139963
H   H25       1.0  0.12130  0.23700  0.86780  1.0000 0.1400133862
H   H26       1.0  0.63350  0.29770  0.87750  1.0000 0.1312270543
H   H27       1.0  0.65470  0.34790  0.95580  1.0000 0.1509139963
H   H28       1.0  0.53370  0.27790  0.94150  1.0000 0.1509139963
H   H29       1.0  0.70290  0.16870  0.92350  1.0000 0.0816874428
H   H30       1.0  0.78900  0.17060  0.04470  1.0000 0.1312270543
H   H31       1.0  0.62920  0.19850  0.04440  1.0000 0.1509139963
H   H32       1.0  0.74940  0.26900  0.05940  1.0000 0.1509139963
H   H33       1.0  0.08620  0.19750  0.45890  1.0000 0.2643988697
H   H34       1.0  0.10400  0.29010  0.47740  1.0000 0.2643988697
H   H35       1.0  0.46530  0.29280  0.51710  1.0000 0.1579933235
H   H36       1.0  0.39570  0.31070  0.44110  1.0000 0.1400133862
H   H37       1.0  0.33290  0.35360  0.51460  1.0000 0.1509139963
H   H38       1.0  0.32780  0.17540  0.47030  1.0000 0.0816874428
H   H39       1.0  0.32890  0.19750  0.59990  1.0000 0.1509139963
H   H40       1.0  0.19700  0.25850  0.59610  1.0000 0.1509139963
H   H41       1.0  0.18190  0.15920  0.57020  1.0000 0.1400133862
H   H42       1.0  0.96590  0.32420  0.37670  1.0000 0.1509139963
H   H43       1.0  0.00120  0.28480  0.29690  1.0000 0.1579933235
H   H44       1.0  0.94200  0.22470  0.35390  1.0000 0.1400133862
H   H45       1.0  0.20840  0.30770  0.36770  1.0000 0.0816874428
H   H46       1.0  0.21990  0.18830  0.27980  1.0000 0.1509139963
H   H47       1.0  0.31130  0.17140  0.34990  1.0000 0.1312270543
H   H48       1.0  0.16120  0.12770  0.33640  1.0000 0.1400133862
H   H49       1.0  0.91380  0.80250  0.54110  1.0000 0.2643988697
H   H50       1.0  0.89600  0.70990  0.52260  1.0000 0.2643988697
H   H51       1.0  0.53470  0.70720  0.48290  1.0000 0.1579933235
H   H52       1.0  0.60430  0.68930  0.55890  1.0000 0.1400133862
H   H53       1.0  0.66710  0.64640  0.48540  1.0000 0.1509139963
H   H54       1.0  0.67220  0.82460  0.52970  1.0000 0.0816874428
H   H55       1.0  0.67110  0.80250  0.40010  1.0000 0.1509139963
H   H56       1.0  0.80300  0.74150  0.40390  1.0000 0.1509139963
H   H57       1.0  0.81810  0.84080  0.42980  1.0000 0.1400133862
H   H58       1.0  0.03410  0.67580  0.62330  1.0000 0.1509139963
H   H59       1.0  0.99880  0.71520  0.70310  1.0000 0.1579933235
H   H60       1.0  0.05800  0.77530  0.64610  1.0000 0.1400133862
H   H61       1.0  0.79160  0.69230  0.63230  1.0000 0.0816874428
H   H62       1.0  0.78010  0.81170  0.72020  1.0000 0.1509139963
H   H63       1.0  0.68870  0.82860  0.65010  1.0000 0.1312270543
H   H64       1.0  0.83880  0.87230  0.66360  1.0000 0.1400133862
H   H65       1.0  0.63490  0.01530  0.17540  1.0000 0.2786613374
H   H66       1.0  0.65360  0.06210  0.24760  1.0000 0.2786613374
H   H67       1.0  0.85100  0.07490  0.14050  1.0000 0.1400133862
H   H68       1.0  0.87760  0.12030  0.22020  1.0000 0.1400133862
H   H69       1.0  0.99220  0.05790  0.18390  1.0000 0.1579933235
H   H70       1.0  0.83780  0.94000  0.18640  1.0000 0.0816874428
H   H71       1.0  0.83170  0.92750  0.31330  1.0000 0.1400133862
H   H72       1.0  0.98080  0.96260  0.29290  1.0000 0.1509139963
H   H73       1.0  0.86880  0.02660  0.32960  1.0000 0.1509139963
H   H74       1.0  0.41550  0.03680  0.27400  1.0000 0.1400133862
H   H75       1.0  0.39450  0.98330  0.19710  1.0000 0.1400133862
H   H76       1.0  0.35620  0.94140  0.26910  1.0000 0.1509139963
H   H77       1.0  0.59550  0.94470  0.30590  1.0000 0.0891650548
H   H78       1.0  0.68380  0.84060  0.22160  1.0000 0.1400133862
H   H79       1.0  0.52590  0.81850  0.23850  1.0000 0.1509139963
H   H80       1.0  0.56160  0.85850  0.16530  1.0000 0.1509139963
H   H81       1.0  0.36510  0.98470  0.82460  1.0000 0.2786613374
H   H82       1.0  0.34640  0.93790  0.75240  1.0000 0.2786613374
H   H83       1.0  0.14900  0.92510  0.85950  1.0000 0.1400133862
H   H84       1.0  0.12240  0.87970  0.77980  1.0000 0.1400133862
H   H85       1.0  0.00780  0.94210  0.81610  1.0000 0.1579933235
H   H86       1.0  0.16220  0.06000  0.81360  1.0000 0.0816874428
H   H87       1.0  0.16830  0.07250  0.68670  1.0000 0.1400133862
H   H88       1.0  0.01920  0.03740  0.70710  1.0000 0.1509139963
H   H89       1.0  0.13120  0.97340  0.67040  1.0000 0.1509139963
H   H90       1.0  0.58450  0.96320  0.72600  1.0000 0.1400133862
H   H91       1.0  0.60550  0.01670  0.80290  1.0000 0.1400133862
H   H92       1.0  0.64380  0.05860  0.73090  1.0000 0.1509139963
H   H93       1.0  0.40450  0.05530  0.69410  1.0000 0.0891650548
H   H94       1.0  0.31620  0.15940  0.77840  1.0000 0.1400133862
H   H95       1.0  0.47410  0.18150  0.76150  1.0000 0.1509139963
H   H96       1.0  0.43840  0.14150  0.83470  1.0000 0.1509139963
C   C1        1.0  0.25580  0.26940  0.04810  1.0000 0.4603640972
C   C2        1.0  0.74420  0.73060  0.95190  1.0000 0.4603640972
C   C3        1.0  0.16500  0.23900  0.11070  1.0000 0.4603640972
C   C4        1.0  0.83500  0.76100  0.88930  1.0000 0.4603640972
C   C5        1.0  0.03390  0.50120  0.24770  1.0000 0.4603640972
C   C6        1.0  0.96610  0.49880  0.75230  1.0000 0.4603640972
C   C7        1.0  0.19900  0.50270  0.25220  1.0000 0.4688293754
C   C8        1.0  0.80100  0.49730  0.74780  1.0000 0.4688293754
C   C9        1.0  0.15650  0.76340  0.39050  1.0000 0.4527871528
C   C10       1.0  0.84350  0.23660  0.60950  1.0000 0.4527871528
C   C11       1.0  0.24510  0.73300  0.45500  1.0000 0.4527871528
C   C12       1.0  0.75490  0.26700  0.54500  1.0000 0.4527871528
C   C13       1.0  0.47740  0.99120  0.95960  1.0000 0.4527871528
C   C14       1.0  0.52260  0.00880  0.04040  1.0000 0.4527871528
C   C15       1.0  0.97190  0.03500  0.97620  1.0000 0.4527871528
C   C16       1.0  0.02810  0.96500  0.02380  1.0000 0.4527871528
C   C17       1.0  0.94850  0.46130  0.99070  1.0000 0.4603640972
C   C18       1.0  0.05150  0.53870  0.00930  1.0000 0.4603640972
C   C19       1.0  0.94720  0.53710  0.50760  1.0000 0.4603640972
C   C20       1.0  0.05280  0.46290  0.49240  1.0000 0.4603640972
C   C21       1.0  0.02720  0.03630  0.47790  1.0000 0.4527871528
C   C22       1.0  0.97280  0.96370  0.52210  1.0000 0.4527871528
C   C23       1.0  0.51740  0.99250  0.45930  1.0000 0.4527871528
C   C24       1.0  0.48260  0.00750  0.54070  1.0000 0.4527871528
C   C25       1.0  0.12760  0.81550  0.19440  1.0000 -0.4701798053
C   C26       1.0  0.08590  0.73790  0.14290  1.0000 0.2146849125
C   C27       1.0  0.93520  0.71510  0.14560  1.0000 -0.4601729931
C   C28       1.0  0.37130  0.70680  0.07050  1.0000 -0.4503335567
C   C29       1.0  0.27070  0.77580  0.04910  1.0000 0.2176668421
C   C30       1.0  0.27630  0.78530  0.96780  1.0000 -0.4503335567
C   C31       1.0  0.87240  0.18450  0.80560  1.0000 -0.4701798053
C   C32       1.0  0.91410  0.26210  0.85710  1.0000 0.2146849125
C   C33       1.0  0.06480  0.28490  0.85440  1.0000 -0.4601729931
C   C34       1.0  0.62870  0.29320  0.92950  1.0000 -0.4503335567
C   C35       1.0  0.72930  0.22420  0.95090  1.0000 0.2176668421
C   C36       1.0  0.72370  0.21470  0.03220  1.0000 -0.4503335567
C   C37       1.0  0.37740  0.30260  0.49160  1.0000 -0.4503335567
C   C38       1.0  0.28240  0.22690  0.49460  1.0000 0.2176668421
C   C39       1.0  0.24400  0.20890  0.57240  1.0000 -0.4601729931
C   C40       1.0  0.00140  0.27410  0.34790  1.0000 -0.4601729931
C   C41       1.0  0.14960  0.25630  0.37320  1.0000 0.2176668421
C   C42       1.0  0.21660  0.17890  0.33100  1.0000 -0.4601729931
C   C43       1.0  0.62260  0.69740  0.50840  1.0000 -0.4503335567
C   C44       1.0  0.71760  0.77310  0.50540  1.0000 0.2176668421
C   C45       1.0  0.75600  0.79110  0.42760  1.0000 -0.4601729931
C   C46       1.0  0.99860  0.72590  0.65210  1.0000 -0.4601729931
C   C47       1.0  0.85040  0.74370  0.62680  1.0000 0.2146849125
C   C48       1.0  0.78340  0.82110  0.66900  1.0000 -0.4601729931
C   C49       1.0  0.89220  0.06830  0.18830  1.0000 -0.4825156474
C   C50       1.0  0.82280  0.99230  0.22010  1.0000 0.2176668421
C   C51       1.0  0.88140  0.97570  0.29600  1.0000 -0.4825156474
C   C52       1.0  0.42040  0.98000  0.24800  1.0000 -0.4701798053
C   C53       1.0  0.56990  0.94610  0.25360  1.0000 0.2146849125
C   C54       1.0  0.58670  0.85830  0.21650  1.0000 -0.4701798053
C   C55       1.0  0.10780  0.93170  0.81170  1.0000 -0.4825156474
C   C56       1.0  0.17720  0.00770  0.77990  1.0000 0.2176668421
C   C57       1.0  0.11860  0.02430  0.70400  1.0000 -0.4825156474
C   C58       1.0  0.57960  0.02000  0.75200  1.0000 -0.4701798053
C   C59       1.0  0.43010  0.05390  0.74640  1.0000 0.2146849125
C   C60       1.0  0.41330  0.14170  0.78350  1.0000 -0.4701798053
N   N1        1.0  0.12200  0.75410  0.06550  1.0000 -0.2989351185
N   N2        1.0  0.87800  0.24590  0.93450  1.0000 -0.2989351185
N   N3        1.0  0.14450  0.24290  0.45420  1.0000 -0.2880951446
N   N4        1.0  0.85550  0.75710  0.54580  1.0000 -0.2828357102
N   N5        1.0  0.66550  0.01010  0.22190  1.0000 -0.2880951446
N   N6        1.0  0.33450  0.98990  0.77810  1.0000 -0.2880951446
O   O1        1.0  0.31240  0.21170  0.00590  1.0000 -0.4825156474
O   O2        1.0  0.68760  0.78830  0.99410  1.0000 -0.4825156474
O   O3        1.0  0.16660  0.16040  0.11920  1.0000 -0.4601729931
O   O4        1.0  0.83340  0.83960  0.88080  1.0000 -0.4701798053
O   O5        1.0  0.26690  0.34970  0.04490  1.0000 -0.4601729931
O   O6        1.0  0.73310  0.65030  0.95510  1.0000 -0.4601729931
O   O7        1.0  0.09730  0.29600  0.14800  1.0000 -0.4701798053
O   O8        1.0  0.90270  0.70400  0.85200  1.0000 -0.4701798053
O   O9        1.0  0.97820  0.47090  0.18950  1.0000 -0.4400265447
O   O10       1.0  0.02180  0.52910  0.81050  1.0000 -0.4400265447
O   O11       1.0  0.26100  0.46960  0.19650  1.0000 -0.4503335567
O   O12       1.0  0.73900  0.53040  0.80350  1.0000 -0.4601729931
O   O13       1.0  0.97220  0.53060  0.30460  1.0000 -0.4601729931
O   O14       1.0  0.02780  0.46940  0.69540  1.0000 -0.4601729931
O   O15       1.0  0.25670  0.53680  0.30900  1.0000 -0.4400265447
O   O16       1.0  0.74330  0.46320  0.69100  1.0000 -0.4400265447
O   O17       1.0  0.08690  0.70470  0.35190  1.0000 -0.4701798053
O   O18       1.0  0.91310  0.29530  0.64810  1.0000 -0.4701798053
O   O19       1.0  0.25320  0.65430  0.46060  1.0000 -0.4400265447
O   O20       1.0  0.74680  0.34570  0.53940  1.0000 -0.4400265447
O   O21       1.0  0.15880  0.84130  0.38040  1.0000 -0.4503335567
O   O22       1.0  0.84120  0.15870  0.61960  1.0000 -0.4503335567
O   O23       1.0  0.30380  0.79100  0.49690  1.0000 -0.4601729931
O   O24       1.0  0.69620  0.20900  0.50310  1.0000 -0.4601729931
O   O25       1.0  0.36220  0.02380  0.94018  1.0000 -0.4825156474
O   O26       1.0  0.63780  0.97620  0.05982  1.0000 -0.4825156474
O   O27       1.0  0.05420  0.09750  0.96810  1.0000 -0.4956234575
O   O28       1.0  0.94580  0.90250  0.03190  1.0000 -0.4917476119
O   O29       1.0  0.55610  0.94580  0.91786  1.0000 -0.4701798053
O   O30       1.0  0.44390  0.05420  0.08214  1.0000 -0.4701798053
O   O31       1.0  0.85000  0.02610  0.94920  1.0000 -0.4601729931
O   O32       1.0  0.15000  0.97390  0.05080  1.0000 -0.4601729931
O   O33       1.0  0.96020  0.39840  0.02830  1.0000 -0.4917476119
O   O34       1.0  0.03980  0.60160  0.97170  1.0000 -0.4917476119
O   O35       1.0  0.86150  0.46770  0.93910  1.0000 -0.4701798053
O   O36       1.0  0.13850  0.53230  0.06090  1.0000 -0.4701798053
O   O37       1.0  0.95330  0.59890  0.46840  1.0000 -0.4917476119
O   O38       1.0  0.04670  0.40110  0.53160  1.0000 -0.4917476119
O   O39       1.0  0.86510  0.53150  0.55980  1.0000 -0.4701798053
O   O40       1.0  0.13490  0.46850  0.44020  1.0000 -0.4701798053
O   O41       1.0  0.43400  0.94850  0.41750  1.0000 -0.4503335567
O   O42       1.0  0.56600  0.05150  0.58250  1.0000 -0.4601729931
O   O43       1.0  0.14690  0.02860  0.45120  1.0000 -0.4601729931
O   O44       1.0  0.85310  0.97140  0.54880  1.0000 -0.4701798053
O   O45       1.0  0.94520  0.09940  0.47190  1.0000 -0.4956234575
O   O46       1.0  0.05480  0.90060  0.52810  1.0000 -0.4956234575
O   O47       1.0  0.63120  0.02660  0.44016  1.0000 -0.4701798053
O   O48       1.0  0.36880  0.97340  0.55984  1.0000 -0.4701798053
