# DDEC6 charges by PACMAN v1.1 (https://github.com/mtap-research/PACMAN-charge/)
data_2012[NdIn][nan]3[ION]1
_chemical_formula_sum              "Nd8 In12 H180 C324 N12 O139"
_cell_length_a       27.1319
_cell_length_b       27.1319
_cell_length_c       27.1319
_cell_angle_alpha    90
_cell_angle_beta     90
_cell_angle_gamma    90

_symmetry_space_group_name_H-M    "P 1"
_symmetry_Int_Tables_number       1

loop_
  _symmetry_equiv_pos_as_xyz
  'x, y, z'

loop_
  _atom_site_type_symbol
  _atom_site_label
  _atom_site_symmetry_multiplicity
  _atom_site_fract_x
  _atom_site_fract_y
  _atom_site_fract_z
  _atom_site_occupancy
  _atom_site_charge
Nd  Nd1       1.0  0.21351  0.21271  0.21350  1.0000 1.42896268
Nd  Nd2       1.0  0.33052  0.33434  0.33102  1.0000 1.9043987715
Nd  Nd3       1.0  0.28685  0.78759  0.71349  1.0000 1.4504638635
Nd  Nd4       1.0  0.16963  0.66629  0.83109  1.0000 1.9043987715
Nd  Nd5       1.0  0.78666  0.71239  0.28690  1.0000 1.4409433328
Nd  Nd6       1.0  0.66980  0.83377  0.16897  1.0000 1.9043987715
Nd  Nd7       1.0  0.70867  0.28248  0.78517  1.0000 1.5324227535
Nd  Nd8       1.0  0.83110  0.16612  0.66964  1.0000 1.915819379
In  In1       1.0  0.22442  0.31585  0.25716  1.0000 1.4051431143
In  In2       1.0  0.27542  0.68437  0.75706  1.0000 1.4032280965
In  In3       1.0  0.77535  0.81551  0.24339  1.0000 1.4032280965
In  In4       1.0  0.72506  0.18258  0.74337  1.0000 1.4032280965
In  In5       1.0  0.25790  0.22569  0.31717  1.0000 1.42896268
In  In6       1.0  0.75801  0.27438  0.68372  1.0000 1.4230005228
In  In7       1.0  0.24259  0.77453  0.81732  1.0000 1.42896268
In  In8       1.0  0.74253  0.72540  0.18310  1.0000 1.42896268
In  In9       1.0  0.31605  0.25920  0.22417  1.0000 1.4230005228
In  In10      1.0  0.68388  0.75838  0.27585  1.0000 1.4230005228
In  In11      1.0  0.81546  0.24231  0.77552  1.0000 1.4230005228
In  In12      1.0  0.18422  0.74141  0.72432  1.0000 1.4230005228
H   H1        1.0  0.05684  0.25635  0.14532  1.0000 0.1190887478
H   H2        1.0  0.98279  0.29267  0.11097  1.0000 0.1104477251
H   H3        1.0  0.03219  0.43675  0.15750  1.0000 0.1104477251
H   H4        1.0  0.10525  0.39968  0.19424  1.0000 0.1290574891
H   H5        1.0  0.29406  0.51230  0.12170  1.0000 0.1104477251
H   H6        1.0  0.26327  0.43925  0.16357  1.0000 0.1190887478
H   H7        1.0  0.94971  0.44963  0.16134  1.0000 0.1031633698
H   H8        1.0  0.28960  0.59327  0.10407  1.0000 0.1104477251
H   H9        1.0  0.31928  0.49449  0.30170  1.0000 0.1190887478
H   H10       1.0  0.34691  0.56908  0.26096  1.0000 0.1104477251
H   H11       1.0  0.11532  0.36544  0.35756  1.0000 0.1190887478
H   H12       1.0  0.03803  0.37026  0.50383  1.0000 0.1104477251
H   H13       1.0  0.24181  0.41934  0.43729  1.0000 0.1190887478
H   H14       1.0  0.06174  0.39052  0.42504  1.0000 0.1190887478
H   H15       1.0  0.18862  0.44239  0.50605  1.0000 0.1104477251
H   H16       1.0  0.44308  0.74325  0.64507  1.0000 0.1190887478
H   H17       1.0  0.51734  0.70665  0.61158  1.0000 0.1190887478
H   H18       1.0  0.46734  0.56280  0.65828  1.0000 0.1104477251
H   H19       1.0  0.39403  0.60019  0.69424  1.0000 0.1290574891
H   H20       1.0  0.20647  0.48748  0.62149  1.0000 0.1104477251
H   H21       1.0  0.23674  0.56093  0.66318  1.0000 0.1190887478
H   H22       1.0  0.55015  0.55013  0.66303  1.0000 0.1031633698
H   H23       1.0  0.21124  0.40627  0.60440  1.0000 0.1104477251
H   H24       1.0  0.18067  0.50596  0.80136  1.0000 0.1190887478
H   H25       1.0  0.15351  0.43103  0.76087  1.0000 0.1104477251
H   H26       1.0  0.38465  0.63299  0.85646  1.0000 0.1290574891
H   H27       1.0  0.46142  0.63049  0.00319  1.0000 0.1104477251
H   H28       1.0  0.25801  0.58043  0.93681  1.0000 0.1190887478
H   H29       1.0  0.43807  0.60883  0.92432  1.0000 0.1190887478
H   H30       1.0  0.31109  0.55793  0.00579  1.0000 0.1104477251
H   H31       1.0  0.94301  0.75669  0.35508  1.0000 0.1190887478
H   H32       1.0  0.01731  0.79316  0.38858  1.0000 0.1190887478
H   H33       1.0  0.96737  0.93718  0.34231  1.0000 0.1104477251
H   H34       1.0  0.89403  0.89987  0.30626  1.0000 0.1290574891
H   H35       1.0  0.70637  0.01298  0.37859  1.0000 0.1104477251
H   H36       1.0  0.73659  0.93948  0.33709  1.0000 0.1190887478
H   H37       1.0  0.05005  0.95045  0.33851  1.0000 0.1031633698
H   H38       1.0  0.71057  0.09362  0.39655  1.0000 0.1104477251
H   H39       1.0  0.68105  0.99443  0.19865  1.0000 0.1190887478
H   H40       1.0  0.65413  0.06950  0.23897  1.0000 0.1104477251
H   H41       1.0  0.88481  0.86660  0.14312  1.0000 0.1190887478
H   H42       1.0  0.96120  0.87008  0.99622  1.0000 0.1104477251
H   H43       1.0  0.75794  0.91993  0.06363  1.0000 0.1190887478
H   H44       1.0  0.93805  0.89128  0.07521  1.0000 0.1190887478
H   H45       1.0  0.81078  0.94273  0.99454  1.0000 0.1104477251
H   H46       1.0  0.55617  0.24462  0.85587  1.0000 0.1290574891
H   H47       1.0  0.48156  0.20769  0.88902  1.0000 0.1104477251
H   H48       1.0  0.53264  0.06382  0.84276  1.0000 0.1104477251
H   H49       1.0  0.60578  0.10174  0.80709  1.0000 0.1190887478
H   H50       1.0  0.79496  0.98681  0.87883  1.0000 0.1104477251
H   H51       1.0  0.76491  0.06010  0.83706  1.0000 0.1190887478
H   H52       1.0  0.44993  0.05037  0.83850  1.0000 0.1104477251
H   H53       1.0  0.79027  0.90590  0.89666  1.0000 0.1104477251
H   H54       1.0  0.82061  0.00475  0.69888  1.0000 0.1190887478
H   H55       1.0  0.84739  0.92980  0.73950  1.0000 0.1104477251
H   H56       1.0  0.61567  0.13294  0.64330  1.0000 0.1190887478
H   H57       1.0  0.53784  0.12936  0.49671  1.0000 0.1104477251
H   H58       1.0  0.74189  0.07971  0.56265  1.0000 0.1190887478
H   H59       1.0  0.56198  0.10863  0.57562  1.0000 0.1190887478
H   H60       1.0  0.68853  0.05726  0.49390  1.0000 0.1104477251
H   H61       1.0  0.14755  0.05675  0.25740  1.0000 0.1190887478
H   H62       1.0  0.11254  0.98321  0.29363  1.0000 0.1104477251
H   H63       1.0  0.15830  0.03271  0.43787  1.0000 0.1104477251
H   H64       1.0  0.19577  0.10555  0.40095  1.0000 0.1290574891
H   H65       1.0  0.11932  0.29433  0.51635  1.0000 0.1104477251
H   H66       1.0  0.15967  0.26595  0.44142  1.0000 0.1290574891
H   H67       1.0  0.16228  0.95013  0.45022  1.0000 0.1031633698
H   H68       1.0  0.10306  0.29090  0.59699  1.0000 0.1104477251
H   H69       1.0  0.29811  0.32332  0.49409  1.0000 0.1190887478
H   H70       1.0  0.25917  0.34881  0.57023  1.0000 0.1104477251
H   H71       1.0  0.35973  0.11798  0.36503  1.0000 0.1190887478
H   H72       1.0  0.50490  0.03790  0.37161  1.0000 0.1104477251
H   H73       1.0  0.44331  0.24268  0.41731  1.0000 0.1190887478
H   H74       1.0  0.42560  0.06276  0.39168  1.0000 0.1190887478
H   H75       1.0  0.50992  0.18811  0.44204  1.0000 0.1104477251
H   H76       1.0  0.64512  0.44175  0.74478  1.0000 0.1190887478
H   H77       1.0  0.61108  0.51611  0.70827  1.0000 0.1190887478
H   H78       1.0  0.65889  0.46700  0.56439  1.0000 0.1104477251
H   H79       1.0  0.69524  0.39408  0.60176  1.0000 0.1290574891
H   H80       1.0  0.61880  0.20482  0.48506  1.0000 0.1104477251
H   H81       1.0  0.65948  0.23346  0.55996  1.0000 0.1190887478
H   H82       1.0  0.66234  0.54921  0.55114  1.0000 0.1031633698
H   H83       1.0  0.60314  0.20944  0.40391  1.0000 0.1104477251
H   H84       1.0  0.79803  0.17739  0.50607  1.0000 0.1190887478
H   H85       1.0  0.75873  0.15164  0.43010  1.0000 0.1104477251
H   H86       1.0  0.85977  0.38282  0.63533  1.0000 0.1190887478
H   H87       1.0  0.00457  0.46287  0.62787  1.0000 0.1104477251
H   H88       1.0  0.94252  0.25782  0.58239  1.0000 0.1190887478
H   H89       1.0  0.92570  0.43780  0.60828  1.0000 0.1190887478
H   H90       1.0  0.00920  0.31207  0.55756  1.0000 0.1104477251
H   H91       1.0  0.35337  0.94315  0.75759  1.0000 0.1190887478
H   H92       1.0  0.38767  0.01711  0.79372  1.0000 0.1104477251
H   H93       1.0  0.34232  0.96736  0.93809  1.0000 0.1104477251
H   H94       1.0  0.30560  0.89415  0.90116  1.0000 0.1353508108
H   H95       1.0  0.38125  0.70559  0.01616  1.0000 0.1104477251
H   H96       1.0  0.34070  0.73476  0.94161  1.0000 0.1290574891
H   H97       1.0  0.33771  0.04990  0.95037  1.0000 0.1104477251
H   H98       1.0  0.39709  0.70918  0.09679  1.0000 0.1104477251
H   H99       1.0  0.20256  0.67636  0.99378  1.0000 0.1190887478
H   H100      1.0  0.24152  0.65066  0.06983  1.0000 0.1104477251
H   H101      1.0  0.14204  0.88314  0.86950  1.0000 0.1290574891
H   H102      1.0  0.99581  0.96317  0.87289  1.0000 0.1104477251
H   H103      1.0  0.05616  0.75760  0.91571  1.0000 0.1190887478
H   H104      1.0  0.07544  0.93808  0.89549  1.0000 0.1190887478
H   H105      1.0  0.98946  0.81194  0.94048  1.0000 0.1104477251
H   H106      1.0  0.85334  0.55659  0.24271  1.0000 0.1190887478
H   H107      1.0  0.88775  0.48274  0.20640  1.0000 0.1190887478
H   H108      1.0  0.84154  0.53231  0.06223  1.0000 0.1104477251
H   H109      1.0  0.80464  0.60533  0.09935  1.0000 0.1290574891
H   H110      1.0  0.88262  0.79540  0.98522  1.0000 0.1104477251
H   H111      1.0  0.84224  0.76703  0.06048  1.0000 0.1190887478
H   H112      1.0  0.83736  0.44987  0.04978  1.0000 0.1031633698
H   H113      1.0  0.89784  0.79010  0.90382  1.0000 0.1104477251
H   H114      1.0  0.70322  0.82157  0.00611  1.0000 0.1190887478
H   H115      1.0  0.74228  0.84708  0.93000  1.0000 0.1104477251
H   H116      1.0  0.64303  0.61732  0.12835  1.0000 0.1290574891
H   H117      1.0  0.49654  0.53763  0.12657  1.0000 0.1104477251
H   H118      1.0  0.55622  0.74301  0.08443  1.0000 0.1190887478
H   H119      1.0  0.57637  0.56239  0.10241  1.0000 0.1190887478
H   H120      1.0  0.48952  0.68868  0.05959  1.0000 0.1104477251
H   H121      1.0  0.25642  0.14626  0.05716  1.0000 0.1190887478
H   H122      1.0  0.29273  0.11200  0.98319  1.0000 0.1190887478
H   H123      1.0  0.43697  0.15764  0.03304  1.0000 0.1104477251
H   H124      1.0  0.39992  0.19450  0.10608  1.0000 0.1290574891
H   H125      1.0  0.51777  0.12132  0.28583  1.0000 0.1104477251
H   H126      1.0  0.44449  0.16340  0.25585  1.0000 0.1290574891
H   H127      1.0  0.44927  0.16224  0.95061  1.0000 0.1104477251
H   H128      1.0  0.59703  0.10307  0.28681  1.0000 0.1104477251
H   H129      1.0  0.49397  0.29828  0.32310  1.0000 0.1190887478
H   H130      1.0  0.56973  0.25851  0.34853  1.0000 0.1104477251
H   H131      1.0  0.36307  0.36060  0.11493  1.0000 0.1104477251
H   H132      1.0  0.37006  0.50543  0.03657  1.0000 0.1104477251
H   H133      1.0  0.41726  0.44232  0.24014  1.0000 0.1190887478
H   H134      1.0  0.39094  0.42623  0.06013  1.0000 0.1190887478
H   H135      1.0  0.44313  0.50875  0.18598  1.0000 0.1104477251
H   H136      1.0  0.74321  0.64469  0.44287  1.0000 0.1190887478
H   H137      1.0  0.70709  0.61070  0.51706  1.0000 0.1190887478
H   H138      1.0  0.56284  0.65680  0.46766  1.0000 0.1104477251
H   H139      1.0  0.59981  0.69334  0.39437  1.0000 0.1290574891
H   H140      1.0  0.48502  0.61872  0.20938  1.0000 0.1104477251
H   H141      1.0  0.55886  0.66053  0.23900  1.0000 0.1290574891
H   H142      1.0  0.55030  0.66108  0.55005  1.0000 0.1031633698
H   H143      1.0  0.40453  0.60161  0.21251  1.0000 0.1104477251
H   H144      1.0  0.50552  0.79757  0.17945  1.0000 0.1190887478
H   H145      1.0  0.42962  0.75773  0.15407  1.0000 0.1104477251
H   H146      1.0  0.63266  0.85819  0.38489  1.0000 0.1190887478
H   H147      1.0  0.62896  0.00387  0.46403  1.0000 0.1104477251
H   H148      1.0  0.58536  0.94301  0.25903  1.0000 0.1190887478
H   H149      1.0  0.60594  0.92441  0.43956  1.0000 0.1190887478
H   H150      1.0  0.55993  0.00959  0.31321  1.0000 0.1104477251
H   H151      1.0  0.75574  0.35568  0.94170  1.0000 0.1190887478
H   H152      1.0  0.79217  0.38875  0.01621  1.0000 0.1190887478
H   H153      1.0  0.93603  0.34171  0.96672  1.0000 0.1104477251
H   H154      1.0  0.89885  0.30599  0.89324  1.0000 0.1290574891
H   H155      1.0  0.01437  0.38266  0.70765  1.0000 0.1104477251
H   H156      1.0  0.93984  0.34138  0.73686  1.0000 0.1290574891
H   H157      1.0  0.94920  0.33771  0.04921  1.0000 0.1031633698
H   H158      1.0  0.09548  0.39913  0.71210  1.0000 0.1104477251
H   H159      1.0  0.99481  0.20312  0.68141  1.0000 0.1190887478
H   H160      1.0  0.07062  0.24290  0.65564  1.0000 0.1104477251
H   H161      1.0  0.86439  0.14133  0.88632  1.0000 0.1104477251
H   H162      1.0  0.86971  0.99524  0.96344  1.0000 0.1104477251
H   H163      1.0  0.91822  0.06027  0.76056  1.0000 0.1190887478
H   H164      1.0  0.89115  0.07474  0.94057  1.0000 0.1190887478
H   H165      1.0  0.94297  0.99299  0.81403  1.0000 0.1104477251
H   H166      1.0  0.24370  0.85421  0.55695  1.0000 0.1190887478
H   H167      1.0  0.20730  0.88823  0.48290  1.0000 0.1190887478
H   H168      1.0  0.06319  0.84216  0.53279  1.0000 0.1104477251
H   H169      1.0  0.10043  0.80561  0.60591  1.0000 0.1290574891
H   H170      1.0  0.98500  0.88066  0.79065  1.0000 0.1104477251
H   H171      1.0  0.05846  0.83899  0.76022  1.0000 0.1290574891
H   H172      1.0  0.05046  0.83805  0.45018  1.0000 0.1031633698
H   H173      1.0  0.90477  0.89743  0.78785  1.0000 0.1104477251
H   H174      1.0  0.00576  0.70177  0.81988  1.0000 0.1190887478
H   H175      1.0  0.92999  0.74149  0.84595  1.0000 0.1104477251
H   H176      1.0  0.13389  0.64152  0.61492  1.0000 0.1190887478
H   H177      1.0  0.12971  0.49537  0.53640  1.0000 0.1104477251
H   H178      1.0  0.08452  0.55748  0.74062  1.0000 0.1190887478
H   H179      1.0  0.10711  0.57522  0.56021  1.0000 0.1190887478
H   H180      1.0  0.05917  0.49093  0.68644  1.0000 0.1031633698
C   C1        1.0  0.05213  0.29579  0.14839  1.0000 -0.0795695572
C   C2        1.0  0.13337  0.30212  0.19403  1.0000 0.3984802165
C   C3        1.0  0.08764  0.32490  0.17257  1.0000 -0.0080966249
C   C4        1.0  0.00940  0.31691  0.12813  1.0000 -0.1309033449
C   C5        1.0  0.00074  0.36813  0.13070  1.0000 0.0876356144
C   C6        1.0  0.03646  0.39722  0.15507  1.0000 -0.1309033449
C   C7        1.0  0.07894  0.37593  0.17591  1.0000 -0.0708829113
C   C8        1.0  0.29859  0.51003  0.16120  1.0000 -0.1309033449
C   C9        1.0  0.28105  0.46764  0.18522  1.0000 -0.0611851455
C   C10       1.0  0.93336  0.43341  0.12886  1.0000 -0.1875798728
C   C11       1.0  0.95510  0.39087  0.10811  1.0000 0.0876356144
C   C12       1.0  0.34426  0.59217  0.16165  1.0000 0.0876356144
C   C13       1.0  0.32350  0.54745  0.18744  1.0000 0.0876356144
C   C14       1.0  0.27606  0.41310  0.26035  1.0000 0.5297917449
C   C15       1.0  0.32179  0.61142  0.11881  1.0000 -0.1778293929
C   C16       1.0  0.28858  0.46084  0.23607  1.0000 -0.0202331098
C   C17       1.0  0.31247  0.49839  0.26256  1.0000 -0.0708829113
C   C18       1.0  0.21602  0.37200  0.35156  1.0000 0.5297917449
C   C19       1.0  0.32917  0.54113  0.23880  1.0000 -0.1387488634
C   C20       1.0  0.13177  0.38300  0.38941  1.0000 -0.0611851455
C   C21       1.0  0.18299  0.39108  0.39141  1.0000 -0.0202331098
C   C22       1.0  0.08767  0.43144  0.51462  1.0000 0.0876356144
C   C23       1.0  0.04634  0.40204  0.52635  1.0000 -0.1778293929
C   C24       1.0  0.20245  0.41364  0.43381  1.0000 -0.0708829113
C   C25       1.0  0.10099  0.39685  0.42864  1.0000 -0.1309033449
C   C26       1.0  0.17174  0.42697  0.47337  1.0000 -0.1309033449
C   C27       1.0  0.12042  0.41856  0.47163  1.0000 0.0876356144
C   C28       1.0  0.44777  0.70381  0.64846  1.0000 -0.0795695572
C   C29       1.0  0.36643  0.69778  0.69377  1.0000 0.3984802165
C   C30       1.0  0.41209  0.67486  0.67257  1.0000 -0.0080966249
C   C31       1.0  0.49059  0.68252  0.62866  1.0000 -0.1309033449
C   C32       1.0  0.49909  0.63129  0.63158  1.0000 0.0876356144
C   C33       1.0  0.46317  0.60235  0.65571  1.0000 -0.1309033449
C   C34       1.0  0.42060  0.62380  0.67611  1.0000 -0.0611851455
C   C35       1.0  0.20176  0.49002  0.66098  1.0000 -0.1309033449
C   C36       1.0  0.21905  0.53254  0.68497  1.0000 -0.0611851455
C   C37       1.0  0.56653  0.56607  0.63042  1.0000 -0.1875798728
C   C38       1.0  0.54470  0.60840  0.60932  1.0000 0.0876356144
C   C39       1.0  0.15623  0.40782  0.66162  1.0000 0.0876356144
C   C40       1.0  0.17697  0.45259  0.68731  1.0000 0.0876356144
C   C41       1.0  0.22360  0.58736  0.76005  1.0000 0.5297917449
C   C42       1.0  0.17884  0.38832  0.61898  1.0000 -0.1778293929
C   C43       1.0  0.21145  0.53942  0.73581  1.0000 -0.0202331098
C   C44       1.0  0.18759  0.50187  0.76232  1.0000 -0.0708829113
C   C45       1.0  0.28394  0.62795  0.85120  1.0000 0.5297917449
C   C46       1.0  0.17112  0.45902  0.73862  1.0000 -0.1387488634
C   C47       1.0  0.36815  0.61602  0.88858  1.0000 -0.0611851455
C   C48       1.0  0.31687  0.60843  0.89085  1.0000 -0.0202331098
C   C49       1.0  0.41208  0.56905  0.01427  1.0000 0.0876356144
C   C50       1.0  0.45340  0.59861  0.02572  1.0000 -0.1778293929
C   C51       1.0  0.29733  0.58607  0.93335  1.0000 -0.0708829113
C   C52       1.0  0.39887  0.60257  0.92793  1.0000 -0.1309033449
C   C53       1.0  0.32801  0.57301  0.97300  1.0000 -0.1309033449
C   C54       1.0  0.37932  0.58143  0.97117  1.0000 0.0876356144
C   C55       1.0  0.94767  0.79613  0.35187  1.0000 -0.0708829113
C   C56       1.0  0.86619  0.80224  0.30678  1.0000 0.3747391426
C   C57       1.0  0.91192  0.82518  0.32794  1.0000 -0.0080966249
C   C58       1.0  0.99053  0.81737  0.37164  1.0000 -0.1309033449
C   C59       1.0  0.99903  0.86862  0.36897  1.0000 0.0876356144
C   C60       1.0  0.96316  0.89762  0.34482  1.0000 -0.1387488634
C   C61       1.0  0.92053  0.87620  0.32441  1.0000 -0.0708829113
C   C62       1.0  0.70174  0.01049  0.33908  1.0000 -0.1309033449
C   C63       1.0  0.71895  0.96784  0.31522  1.0000 -0.0611851455
C   C64       1.0  0.06637  0.93409  0.37093  1.0000 -0.1875798728
C   C65       1.0  0.04460  0.89141  0.39151  1.0000 0.0876356144
C   C66       1.0  0.65647  0.09296  0.33840  1.0000 0.0876356144
C   C67       1.0  0.67713  0.04802  0.31272  1.0000 0.0876356144
C   C68       1.0  0.72354  0.91281  0.24023  1.0000 0.5297917449
C   C69       1.0  0.67854  0.11188  0.38158  1.0000 -0.1778293929
C   C70       1.0  0.71146  0.96086  0.26436  1.0000 -0.0202331098
C   C71       1.0  0.68784  0.99850  0.23778  1.0000 -0.0708829113
C   C72       1.0  0.78406  0.87220  0.14910  1.0000 0.5297917449
C   C73       1.0  0.67150  0.04151  0.26138  1.0000 -0.1387488634
C   C74       1.0  0.86822  0.88384  0.11120  1.0000 -0.0611851455
C   C75       1.0  0.81695  0.89160  0.10926  1.0000 -0.0202331098
C   C76       1.0  0.91177  0.93146  0.98548  1.0000 0.0876356144
C   C77       1.0  0.95306  0.90197  0.97377  1.0000 -0.1778293929
C   C78       1.0  0.79729  0.91417  0.06692  1.0000 -0.0708829113
C   C79       1.0  0.89880  0.89754  0.07177  1.0000 -0.1309033449
C   C80       1.0  0.82782  0.92741  0.02718  1.0000 -0.1309033449
C   C81       1.0  0.87913  0.91893  0.02868  1.0000 0.0876356144
C   C82       1.0  0.55131  0.20514  0.85252  1.0000 -0.0708829113
C   C83       1.0  0.63259  0.19951  0.80736  1.0000 0.6459644758
C   C84       1.0  0.58712  0.17635  0.82855  1.0000 -0.0202331098
C   C85       1.0  0.50861  0.18362  0.87212  1.0000 -0.1309033449
C   C86       1.0  0.50049  0.13229  0.86930  1.0000 0.0833967451
C   C87       1.0  0.53653  0.10346  0.84536  1.0000 -0.1309033449
C   C88       1.0  0.57899  0.12521  0.82509  1.0000 -0.0795695572
C   C89       1.0  0.79960  0.98921  0.83936  1.0000 -0.1309033449
C   C90       1.0  0.78250  0.03175  0.81527  1.0000 -0.0611851455
C   C91       1.0  0.43348  0.06650  0.87099  1.0000 -0.1778293929
C   C92       1.0  0.45504  0.10918  0.89175  1.0000 0.0876356144
C   C93       1.0  0.84470  0.90692  0.83894  1.0000 0.0876356144
C   C94       1.0  0.82404  0.95159  0.81310  1.0000 0.0876356144
C   C95       1.0  0.77745  0.08664  0.73997  1.0000 0.5297917449
C   C96       1.0  0.82242  0.88775  0.88188  1.0000 -0.1778293929
C   C97       1.0  0.78991  0.03865  0.76426  1.0000 -0.0202331098
C   C98       1.0  0.81379  0.00087  0.73794  1.0000 -0.0708829113
C   C99       1.0  0.71662  0.12693  0.64850  1.0000 0.5392946922
C   C100      1.0  0.82997  0.95788  0.76175  1.0000 -0.1387488634
C   C101      1.0  0.63202  0.11545  0.61129  1.0000 -0.0708829113
C   C102      1.0  0.68332  0.10769  0.60889  1.0000 -0.0202331098
C   C103      1.0  0.58749  0.06812  0.48570  1.0000 0.0876356144
C   C104      1.0  0.54627  0.09772  0.47396  1.0000 -0.1778293929
C   C105      1.0  0.70255  0.08530  0.56630  1.0000 -0.0708829113
C   C106      1.0  0.60113  0.10189  0.57208  1.0000 -0.1387488634
C   C107      1.0  0.67165  0.07213  0.52680  1.0000 -0.1309033449
C   C108      1.0  0.62038  0.08043  0.52883  1.0000 0.0876356144
C   C109      1.0  0.15042  0.05215  0.29684  1.0000 -0.0795695572
C   C110      1.0  0.19582  0.13336  0.30328  1.0000 0.3984802165
C   C111      1.0  0.17466  0.08770  0.32604  1.0000 -0.0080966249
C   C112      1.0  0.12971  0.00977  0.31792  1.0000 -0.1309033449
C   C113      1.0  0.13185  0.00134  0.36913  1.0000 0.0876356144
C   C114      1.0  0.15625  0.03697  0.39832  1.0000 -0.1309033449
C   C115      1.0  0.17757  0.07919  0.37712  1.0000 -0.0611851455
C   C116      1.0  0.15867  0.29986  0.51292  1.0000 -0.1309033449
C   C117      1.0  0.18182  0.28353  0.46953  1.0000 -0.0708829113
C   C118      1.0  0.12974  0.93394  0.43404  1.0000 -0.1875798728
C   C119      1.0  0.10899  0.95589  0.39164  1.0000 0.0876356144
C   C120      1.0  0.16026  0.34578  0.59514  1.0000 0.0876356144
C   C121      1.0  0.18533  0.32504  0.54993  1.0000 0.0833967451
C   C122      1.0  0.25534  0.28406  0.41199  1.0000 0.6135395788
C   C123      1.0  0.11769  0.32325  0.61485  1.0000 -0.1778293929
C   C124      1.0  0.23210  0.29269  0.46121  1.0000 -0.0306288093
C   C125      1.0  0.25916  0.31591  0.49888  1.0000 -0.0708829113
C   C126      1.0  0.35824  0.21936  0.36843  1.0000 0.5503652417
C   C127      1.0  0.23637  0.33136  0.54250  1.0000 -0.1489118911
C   C128      1.0  0.39187  0.13358  0.38287  1.0000 -0.0611851455
C   C129      1.0  0.39582  0.18489  0.38943  1.0000 -0.0306288093
C   C130      1.0  0.51597  0.08730  0.43282  1.0000 0.0876356144
C   C131      1.0  0.52745  0.04609  0.40343  1.0000 -0.1778293929
C   C132      1.0  0.43867  0.20341  0.41204  1.0000 -0.0708829113
C   C133      1.0  0.43009  0.10193  0.39767  1.0000 -0.1387488634
C   C134      1.0  0.47689  0.17190  0.42669  1.0000 -0.1387488634
C   C135      1.0  0.47355  0.12058  0.41942  1.0000 0.0876356144
C   C136      1.0  0.64870  0.44691  0.70531  1.0000 -0.0708829113
C   C137      1.0  0.69395  0.36527  0.69861  1.0000 0.4811081015
C   C138      1.0  0.67347  0.41146  0.67617  1.0000 -0.0080966249
C   C139      1.0  0.62853  0.48981  0.68410  1.0000 -0.1309033449
C   C140      1.0  0.63160  0.49848  0.63291  1.0000 0.0876356144
C   C141      1.0  0.65623  0.46297  0.60391  1.0000 -0.1309033449
C   C142      1.0  0.67704  0.42049  0.62521  1.0000 -0.0611851455
C   C143      1.0  0.65820  0.19965  0.48815  1.0000 -0.1309033449
C   C144      1.0  0.68142  0.21612  0.53150  1.0000 -0.0708829113
C   C145      1.0  0.62981  0.56556  0.56722  1.0000 -0.1875798728
C   C146      1.0  0.60910  0.54398  0.60992  1.0000 0.0876356144
C   C147      1.0  0.65996  0.15430  0.40552  1.0000 0.0876356144
C   C148      1.0  0.68493  0.17475  0.45095  1.0000 0.0876356144
C   C149      1.0  0.75498  0.21657  0.58825  1.0000 0.6135395788
C   C150      1.0  0.61782  0.17738  0.38560  1.0000 -0.1778293929
C   C151      1.0  0.73174  0.20747  0.53937  1.0000 -0.037204036
C   C152      1.0  0.75892  0.18444  0.50163  1.0000 -0.0708829113
C   C153      1.0  0.85767  0.28119  0.63139  1.0000 0.5503652417
C   C154      1.0  0.73606  0.16888  0.45805  1.0000 -0.1489118911
C   C155      1.0  0.89162  0.36718  0.61720  1.0000 -0.0708829113
C   C156      1.0  0.89509  0.31581  0.61048  1.0000 -0.0306288093
C   C157      1.0  0.01588  0.41282  0.56718  1.0000 0.0876356144
C   C158      1.0  0.02733  0.45435  0.59629  1.0000 -0.1778293929
C   C159      1.0  0.93784  0.29712  0.58768  1.0000 -0.0708829113
C   C160      1.0  0.93000  0.39867  0.60226  1.0000 -0.1387488634
C   C161      1.0  0.97624  0.32847  0.57302  1.0000 -0.1387488634
C   C162      1.0  0.97333  0.37976  0.58052  1.0000 0.0876356144
C   C163      1.0  0.35050  0.94774  0.79706  1.0000 -0.0708829113
C   C164      1.0  0.30562  0.86634  0.80360  1.0000 0.4811081015
C   C165      1.0  0.32666  0.91208  0.82637  1.0000 -0.0029991795
C   C166      1.0  0.37076  0.99043  0.81804  1.0000 -0.12451042
C   C167      1.0  0.36851  0.99887  0.86927  1.0000 0.0876356144
C   C168      1.0  0.34446  0.96311  0.89850  1.0000 -0.12451042
C   C169      1.0  0.32360  0.92061  0.87734  1.0000 -0.0540018264
C   C170      1.0  0.34195  0.69999  0.01277  1.0000 -0.1309033449
C   C171      1.0  0.31878  0.71662  0.96948  1.0000 -0.0611851455
C   C172      1.0  0.37027  0.06632  0.93418  1.0000 -0.1778293929
C   C173      1.0  0.39105  0.04452  0.89175  1.0000 0.0876356144
C   C174      1.0  0.34023  0.65397  0.09492  1.0000 0.0876356144
C   C175      1.0  0.31525  0.67454  0.04961  1.0000 0.0833967451
C   C176      1.0  0.24532  0.71612  0.91194  1.0000 0.6135395788
C   C177      1.0  0.38251  0.67685  0.11471  1.0000 -0.1778293929
C   C178      1.0  0.26855  0.70731  0.96108  1.0000 -0.0306288093
C   C179      1.0  0.24148  0.68379  0.99857  1.0000 -0.0708829113
C   C180      1.0  0.14242  0.78136  0.86916  1.0000 0.555622729
C   C181      1.0  0.26424  0.66820  0.04219  1.0000 -0.1489118911
C   C182      1.0  0.10922  0.86721  0.88567  1.0000 -0.0611851455
C   C183      1.0  0.10473  0.81573  0.89040  1.0000 -0.0306288093
C   C184      1.0  0.98382  0.91285  0.93317  1.0000 0.0876356144
C   C185      1.0  0.97265  0.95450  0.90415  1.0000 -0.1778293929
C   C186      1.0  0.06125  0.79696  0.91162  1.0000 -0.0708829113
C   C187      1.0  0.07064  0.89874  0.90016  1.0000 -0.1309033449
C   C188      1.0  0.02287  0.82835  0.92618  1.0000 -0.1387488634
C   C189      1.0  0.02649  0.87976  0.92009  1.0000 0.0876356144
C   C190      1.0  0.85024  0.55192  0.20325  1.0000 -0.0795695572
C   C191      1.0  0.80503  0.63324  0.19693  1.0000 0.472275468
C   C192      1.0  0.82604  0.58749  0.17411  1.0000 -0.0080966249
C   C193      1.0  0.87060  0.50933  0.18213  1.0000 -0.12451042
C   C194      1.0  0.86813  0.50087  0.13095  1.0000 0.0876356144
C   C195      1.0  0.84382  0.53652  0.10180  1.0000 -0.1309033449
C   C196      1.0  0.82285  0.57890  0.12307  1.0000 -0.0611851455
C   C197      1.0  0.84320  0.80035  0.98846  1.0000 -0.1309033449
C   C198      1.0  0.82008  0.78401  0.03193  1.0000 -0.0708829113
C   C199      1.0  0.86988  0.43352  0.06584  1.0000 -0.1875798728
C   C200      1.0  0.89077  0.45532  0.10826  1.0000 0.0876356144
C   C201      1.0  0.84103  0.84529  0.90573  1.0000 0.0876356144
C   C202      1.0  0.81624  0.82481  0.95113  1.0000 0.0876356144
C   C203      1.0  0.74603  0.78373  0.08863  1.0000 0.6135395788
C   C204      1.0  0.88320  0.82239  0.88582  1.0000 -0.1778293929
C   C205      1.0  0.76957  0.79239  0.03968  1.0000 -0.037204036
C   C206      1.0  0.74233  0.81483  0.00169  1.0000 -0.0708829113
C   C207      1.0  0.64274  0.71900  0.13046  1.0000 0.555622729
C   C208      1.0  0.76510  0.83032  0.95807  1.0000 -0.1489118911
C   C209      1.0  0.60998  0.63327  0.11275  1.0000 -0.0611851455
C   C210      1.0  0.60518  0.68479  0.10880  1.0000 -0.0306288093
C   C211      1.0  0.48431  0.58776  0.06618  1.0000 0.0876356144
C   C212      1.0  0.47321  0.54623  0.09541  1.0000 -0.1778293929
C   C213      1.0  0.56151  0.70364  0.08803  1.0000 -0.0708829113
C   C214      1.0  0.57140  0.60177  0.09828  1.0000 -0.1309033449
C   C215      1.0  0.52312  0.67228  0.07346  1.0000 -0.1387488634
C   C216      1.0  0.52700  0.62083  0.07900  1.0000 0.0876356144
C   C217      1.0  0.29595  0.14923  0.05254  1.0000 -0.0795695572
C   C218      1.0  0.30236  0.19440  0.13366  1.0000 0.4498042487
C   C219      1.0  0.32516  0.17320  0.08806  1.0000 -0.0080966249
C   C220      1.0  0.31703  0.12899  0.00991  1.0000 -0.1309033449
C   C221      1.0  0.36817  0.13138  0.00153  1.0000 0.0876356144
C   C222      1.0  0.39740  0.15547  0.03724  1.0000 -0.1309033449
C   C223      1.0  0.37617  0.17636  0.07958  1.0000 -0.0611851455
C   C224      1.0  0.51439  0.16034  0.29303  1.0000 -0.1309033449
C   C225      1.0  0.47180  0.18437  0.27582  1.0000 -0.0611851455
C   C226      1.0  0.43317  0.12970  0.93427  1.0000 -0.1778293929
C   C227      1.0  0.39082  0.10879  0.95603  1.0000 0.0876356144
C   C228      1.0  0.59477  0.15972  0.34232  1.0000 0.0876356144
C   C229      1.0  0.55035  0.18573  0.32099  1.0000 0.0876356144
C   C230      1.0  0.41344  0.25663  0.28121  1.0000 0.5503652417
C   C231      1.0  0.61446  0.11728  0.31957  1.0000 -0.1778293929
C   C232      1.0  0.46299  0.23394  0.28755  1.0000 -0.0306288093
C   C233      1.0  0.49953  0.25989  0.31352  1.0000 -0.0708829113
C   C234      1.0  0.36659  0.35821  0.21626  1.0000 0.6174283051
C   C235      1.0  0.54275  0.23651  0.32921  1.0000 -0.1387488634
C   C236      1.0  0.38120  0.39243  0.13085  1.0000 -0.0708829113
C   C237      1.0  0.38776  0.39603  0.18218  1.0000 -0.037204036
C   C238      1.0  0.43190  0.51618  0.08534  1.0000 0.0876356144
C   C239      1.0  0.40186  0.52806  0.04458  1.0000 -0.1778293929
C   C240      1.0  0.41171  0.43805  0.20088  1.0000 -0.0708829113
C   C241      1.0  0.39677  0.43049  0.09938  1.0000 -0.1387488634
C   C242      1.0  0.42695  0.47621  0.16955  1.0000 -0.1387488634
C   C243      1.0  0.41897  0.47352  0.11831  1.0000 0.0876356144
C   C244      1.0  0.70376  0.64774  0.44762  1.0000 -0.0795695572
C   C245      1.0  0.69739  0.69307  0.36631  1.0000 0.4405289614
C   C246      1.0  0.67457  0.67180  0.41200  1.0000 -0.0080966249
C   C247      1.0  0.68274  0.62766  0.49044  1.0000 -0.1309033449
C   C248      1.0  0.63159  0.63022  0.49909  1.0000 0.0876356144
C   C249      1.0  0.60238  0.65440  0.46336  1.0000 -0.1387488634
C   C250      1.0  0.62356  0.67512  0.42078  1.0000 -0.0611851455
C   C251      1.0  0.48773  0.65813  0.20407  1.0000 -0.1309033449
C   C252      1.0  0.53049  0.68200  0.22107  1.0000 -0.0611851455
C   C253      1.0  0.56654  0.62875  0.56661  1.0000 -0.1875798728
C   C254      1.0  0.60903  0.60788  0.54492  1.0000 0.0876356144
C   C255      1.0  0.40606  0.65864  0.15744  1.0000 0.0876356144
C   C256      1.0  0.45070  0.68429  0.17840  1.0000 0.0876356144
C   C257      1.0  0.58730  0.75543  0.21808  1.0000 0.5503652417
C   C258      1.0  0.38663  0.61608  0.18008  1.0000 -0.1778293929
C   C259      1.0  0.53811  0.73225  0.21151  1.0000 -0.0306288093
C   C260      1.0  0.50065  0.75876  0.18752  1.0000 -0.0708829113
C   C261      1.0  0.63286  0.85721  0.28345  1.0000 0.6174283051
C   C262      1.0  0.45738  0.73543  0.17196  1.0000 -0.1387488634
C   C263      1.0  0.61650  0.89088  0.36883  1.0000 -0.0708829113
C   C264      1.0  0.61172  0.89519  0.31738  1.0000 -0.037204036
C   C265      1.0  0.56821  0.01559  0.41415  1.0000 0.0876356144
C   C266      1.0  0.59767  0.02697  0.45550  1.0000 -0.1778293929
C   C267      1.0  0.58963  0.93814  0.29838  1.0000 -0.0708829113
C   C268      1.0  0.60145  0.92921  0.40022  1.0000 -0.1309033449
C   C269      1.0  0.57472  0.97644  0.32967  1.0000 -0.1387488634
C   C270      1.0  0.58115  0.97306  0.38110  1.0000 0.0833967451
C   C271      1.0  0.79514  0.35218  0.94644  1.0000 -0.0708829113
C   C272      1.0  0.80135  0.30631  0.86524  1.0000 0.4882656955
C   C273      1.0  0.82410  0.32803  0.91078  1.0000 -0.0080966249
C   C274      1.0  0.81636  0.37177  0.98944  1.0000 -0.1309033449
C   C275      1.0  0.86756  0.36870  0.99815  1.0000 0.0876356144
C   C276      1.0  0.89649  0.34453  0.96232  1.0000 -0.1309033449
C   C277      1.0  0.87512  0.32431  0.91958  1.0000 -0.0611851455
C   C278      1.0  0.01172  0.34318  0.70314  1.0000 -0.1309033449
C   C279      1.0  0.96875  0.31959  0.72006  1.0000 -0.0708829113
C   C280      1.0  0.93307  0.37023  0.06559  1.0000 -0.1875798728
C   C281      1.0  0.89044  0.39097  0.04387  1.0000 0.0876356144
C   C282      1.0  0.09395  0.34187  0.65733  1.0000 0.0876356144
C   C283      1.0  0.04910  0.31660  0.67831  1.0000 0.0876356144
C   C284      1.0  0.91267  0.24552  0.71833  1.0000 0.5503652417
C   C285      1.0  0.11356  0.38434  0.67984  1.0000 -0.1778293929
C   C286      1.0  0.96167  0.26901  0.71170  1.0000 -0.0306288093
C   C287      1.0  0.99939  0.24215  0.68863  1.0000 -0.0708829113
C   C288      1.0  0.86740  0.14413  0.78462  1.0000 0.6174283051
C   C289      1.0  0.04264  0.26534  0.67287  1.0000 -0.1387488634
C   C290      1.0  0.88206  0.10940  0.87015  1.0000 -0.0708829113
C   C291      1.0  0.88864  0.10622  0.81875  1.0000 -0.0306288093
C   C292      1.0  0.93149  0.98464  0.91456  1.0000 0.0876356144
C   C293      1.0  0.90147  0.97258  0.95534  1.0000 -0.1778293929
C   C294      1.0  0.91237  0.06415  0.79979  1.0000 -0.0708829113
C   C295      1.0  0.89702  0.07081  0.90130  1.0000 -0.1387488634
C   C296      1.0  0.92700  0.02551  0.83076  1.0000 -0.1387488634
C   C297      1.0  0.91883  0.02771  0.88198  1.0000 0.0833967451
C   C298      1.0  0.20423  0.85112  0.55230  1.0000 -0.0795695572
C   C299      1.0  0.19794  0.80610  0.63368  1.0000 0.3984802165
C   C300      1.0  0.17513  0.82712  0.58798  1.0000 -0.0080966249
C   C301      1.0  0.18307  0.87120  0.50959  1.0000 -0.1309033449
C   C302      1.0  0.13185  0.86867  0.50123  1.0000 0.0876356144
C   C303      1.0  0.10275  0.84447  0.53697  1.0000 -0.1387488634
C   C304      1.0  0.12408  0.82374  0.57942  1.0000 -0.0708829113
C   C305      1.0  0.98774  0.84123  0.79578  1.0000 -0.1309033449
C   C306      1.0  0.03032  0.81745  0.77836  1.0000 -0.0611851455
C   C307      1.0  0.06658  0.87066  0.43392  1.0000 -0.1875798728
C   C308      1.0  0.10906  0.89134  0.45578  1.0000 0.0876356144
C   C309      1.0  0.90649  0.84052  0.84291  1.0000 0.0876356144
C   C310      1.0  0.95094  0.81495  0.82166  1.0000 0.0876356144
C   C311      1.0  0.08730  0.74431  0.78146  1.0000 0.5503652417
C   C312      1.0  0.88697  0.88301  0.82035  1.0000 -0.1778293929
C   C313      1.0  0.03804  0.76723  0.78785  1.0000 -0.0306288093
C   C314      1.0  0.00077  0.74058  0.81194  1.0000 -0.0708829113
C   C315      1.0  0.13313  0.64270  0.71645  1.0000 0.6174283051
C   C316      1.0  0.95761  0.76382  0.82790  1.0000 -0.1387488634
C   C317      1.0  0.11729  0.60899  0.63097  1.0000 -0.0708829113
C   C318      1.0  0.11198  0.60485  0.68241  1.0000 -0.037204036
C   C319      1.0  0.06835  0.48445  0.58572  1.0000 0.0876356144
C   C320      1.0  0.09805  0.47260  0.54470  1.0000 -0.1778293929
C   C321      1.0  0.08932  0.56218  0.70129  1.0000 -0.0708829113
C   C322      1.0  0.10220  0.57067  0.59955  1.0000 -0.1387488634
C   C323      1.0  0.07439  0.52390  0.66998  1.0000 -0.1387488634
C   C324      1.0  0.08135  0.52706  0.61864  1.0000 0.0833967451
N   N1        1.0  0.24856  0.33658  0.09342  1.0000 0.7206924283
N   N2        1.0  0.26725  0.67589  0.59959  1.0000 0.7287308746
N   N3        1.0  0.74666  0.82930  0.41318  1.0000 0.7287308746
N   N4        1.0  0.76102  0.17624  0.90936  1.0000 0.7206924283
N   N5        1.0  0.09108  0.22811  0.34731  1.0000 0.7287308746
N   N6        1.0  0.57941  0.27030  0.66482  1.0000 0.7206924283
N   N7        1.0  0.41781  0.77062  0.86609  1.0000 0.7597885254
N   N8        1.0  0.90782  0.75184  0.18389  1.0000 0.7287308746
N   N9        1.0  0.33701  0.08275  0.23728  1.0000 0.739835652
N   N10       1.0  0.66973  0.57547  0.24302  1.0000 0.7597885254
N   N11       1.0  0.81758  0.42473  0.76822  1.0000 0.7206924283
N   N12       1.0  0.16278  0.92319  0.75185  1.0000 0.7597885254
O   O1        1.0  0.25176  0.28311  0.19612  1.0000 -0.9594653822
O   O2        1.0  0.19773  0.34344  0.31897  1.0000 -0.4832803584
O   O3        1.0  0.16189  0.32846  0.22104  1.0000 -0.4497677429
O   O4        1.0  0.14324  0.25527  0.18432  1.0000 -0.0882889873
O   O5        1.0  0.25345  0.37971  0.23609  1.0000 -0.4997130192
O   O6        1.0  0.29000  0.40532  0.30505  1.0000 -0.3302703245
O   O7        1.0  0.26213  0.38458  0.35033  1.0000 -0.3213660694
O   O8        1.0  0.16987  0.14042  0.21993  1.0000 -0.0882889873
O   O9        1.0  0.37955  0.38408  0.37899  1.0000 -0.6486937559
O   O10       1.0  0.24839  0.71733  0.69601  1.0000 -0.9690887011
O   O11       1.0  0.30238  0.65626  0.81846  1.0000 -0.4687312222
O   O12       1.0  0.33775  0.67150  0.72062  1.0000 -0.4497677429
O   O13       1.0  0.35683  0.74469  0.68421  1.0000 -0.0882889873
O   O14       1.0  0.24622  0.62075  0.73578  1.0000 -0.4997130192
O   O15       1.0  0.20971  0.59515  0.80478  1.0000 -0.3302703245
O   O16       1.0  0.23771  0.61577  0.85026  1.0000 -0.3213660694
O   O17       1.0  0.33054  0.85970  0.71984  1.0000 -0.0882889873
O   O18       1.0  0.12053  0.61671  0.87913  1.0000 -0.6486937559
O   O19       1.0  0.74806  0.78267  0.30428  1.0000 -0.9594653822
O   O20       1.0  0.80241  0.84373  0.18178  1.0000 -0.4901219541
O   O21       1.0  0.83759  0.82847  0.27981  1.0000 -0.4497677429
O   O22       1.0  0.85658  0.75531  0.31637  1.0000 -0.0882889873
O   O23       1.0  0.74612  0.87940  0.26455  1.0000 -0.4997130192
O   O24       1.0  0.70975  0.90496  0.19549  1.0000 -0.3302703245
O   O25       1.0  0.73792  0.88447  0.15025  1.0000 -0.3146967865
O   O26       1.0  0.83068  0.64043  0.28044  1.0000 -0.0708829113
O   O27       1.0  0.62095  0.88336  0.12070  1.0000 -0.6560771144
O   O28       1.0  0.75220  0.21580  0.80377  1.0000 -0.9690887011
O   O29       1.0  0.69772  0.15324  0.68270  1.0000 -0.4832803584
O   O30       1.0  0.66206  0.17283  0.78130  1.0000 -0.5187377112
O   O31       1.0  0.64092  0.24528  0.81531  1.0000 -0.5958653963
O   O32       1.0  0.75444  0.11960  0.76429  1.0000 -0.4901219541
O   O33       1.0  0.79145  0.09474  0.69546  1.0000 -0.3382093734
O   O34       1.0  0.76321  0.11638  0.64811  1.0000 -0.3382093734
O   O35       1.0  0.71350  0.32277  0.85944  1.0000 -0.0795695572
O   O36       1.0  0.88022  0.11666  0.62176  1.0000 -0.6486937559
O   O37       1.0  0.19688  0.25224  0.28361  1.0000 -0.941675313
O   O38       1.0  0.31730  0.20190  0.35274  1.0000 -0.4901219541
O   O39       1.0  0.22274  0.16222  0.32925  1.0000 -0.4497677429
O   O40       1.0  0.18535  0.14297  0.25667  1.0000 -0.0882889873
O   O41       1.0  0.23517  0.25510  0.38063  1.0000 -0.5126421727
O   O42       1.0  0.29414  0.30862  0.40237  1.0000 -0.6327670641
O   O43       1.0  0.37088  0.26504  0.36228  1.0000 -0.3302703245
O   O44       1.0  0.21912  0.16806  0.14185  1.0000 -0.0708829113
O   O45       1.0  0.69796  0.24475  0.71355  1.0000 -0.941675313
O   O46       1.0  0.81731  0.29876  0.64821  1.0000 -0.4997130192
O   O47       1.0  0.72250  0.33751  0.67309  1.0000 -0.4687312222
O   O48       1.0  0.68049  0.35351  0.74390  1.0000 -0.0708829113
O   O49       1.0  0.73558  0.24599  0.61926  1.0000 -0.5187377112
O   O50       1.0  0.79296  0.19104  0.59848  1.0000 -0.6327670641
O   O51       1.0  0.87006  0.23540  0.63665  1.0000 -0.3462538845
O   O52       1.0  0.30328  0.74797  0.78344  1.0000 -0.9170882381
O   O53       1.0  0.18338  0.79873  0.85334  1.0000 -0.4901219541
O   O54       1.0  0.27860  0.83749  0.82954  1.0000 -0.4403523124
O   O55       1.0  0.31569  0.85694  0.75683  1.0000 -0.0795695572
O   O56       1.0  0.26552  0.74499  0.88055  1.0000 -0.4997130192
O   O57       1.0  0.20642  0.69172  0.90239  1.0000 -0.6327670641
O   O58       1.0  0.12968  0.73573  0.86279  1.0000 -0.3302703245
O   O59       1.0  0.28108  0.83260  0.64203  1.0000 -0.0795695572
O   O60       1.0  0.80314  0.75200  0.21698  1.0000 -0.9594653822
O   O61       1.0  0.68355  0.70153  0.14648  1.0000 -0.4832803584
O   O62       1.0  0.77812  0.66216  0.17097  1.0000 -0.4497677429
O   O63       1.0  0.81530  0.64274  0.24363  1.0000 -0.0708829113
O   O64       1.0  0.76598  0.75480  0.12010  1.0000 -0.5187377112
O   O65       1.0  0.70711  0.80828  0.09793  1.0000 -0.6327670641
O   O66       1.0  0.62994  0.76455  0.13699  1.0000 -0.3302703245
O   O67       1.0  0.78092  0.66762  0.35850  1.0000 -0.0708829113
O   O68       1.0  0.28488  0.19784  0.25332  1.0000 -0.9594653822
O   O69       1.0  0.34399  0.32113  0.19805  1.0000 -0.5187377112
O   O70       1.0  0.32809  0.22218  0.16191  1.0000 -0.4497677429
O   O71       1.0  0.25590  0.18363  0.14366  1.0000 -0.0795695572
O   O72       1.0  0.38495  0.24359  0.24585  1.0000 -0.4901219541
O   O73       1.0  0.39903  0.28511  0.31658  1.0000 -0.3302703245
O   O74       1.0  0.37019  0.36543  0.26267  1.0000 -0.6426064647
O   O75       1.0  0.14102  0.21796  0.17014  1.0000 -0.0882889873
O   O76       1.0  0.71551  0.69726  0.24680  1.0000 -0.941675313
O   O77       1.0  0.65549  0.82016  0.30182  1.0000 -0.5126421727
O   O78       1.0  0.67167  0.72083  0.33801  1.0000 -0.4403523124
O   O79       1.0  0.74399  0.68270  0.35649  1.0000 -0.0795695572
O   O80       1.0  0.61560  0.74243  0.25354  1.0000 -0.4832803584
O   O81       1.0  0.60156  0.78423  0.18292  1.0000 -0.3302703245
O   O82       1.0  0.62947  0.86452  0.23702  1.0000 -0.6486937559
O   O83       1.0  0.85887  0.71797  0.33051  1.0000 -0.0882889873
O   O84       1.0  0.78064  0.30305  0.74885  1.0000 -0.976207701
O   O85       1.0  0.84449  0.18125  0.80285  1.0000 -0.5187377112
O   O86       1.0  0.82788  0.27962  0.83699  1.0000 -0.4497677429
O   O87       1.0  0.75329  0.31440  0.85566  1.0000 -0.0540018264
O   O88       1.0  0.88357  0.25944  0.75278  1.0000 -0.4901219541
O   O89       1.0  0.89929  0.21545  0.68401  1.0000 -0.3462538845
O   O90       1.0  0.87106  0.13639  0.73816  1.0000 -0.6486937559
O   O91       1.0  0.65481  0.34662  0.77517  1.0000 -0.0795695572
O   O92       1.0  0.21569  0.80261  0.75348  1.0000 -0.9507705248
O   O93       1.0  0.15595  0.67963  0.69822  1.0000 -0.5187377112
O   O94       1.0  0.17221  0.77839  0.66196  1.0000 -0.4497677429
O   O95       1.0  0.24438  0.81688  0.64373  1.0000 -0.0882889873
O   O96       1.0  0.11568  0.75732  0.74604  1.0000 -0.4832803584
O   O97       1.0  0.10154  0.71574  0.81680  1.0000 -0.3302703245
O   O98       1.0  0.12954  0.63545  0.76286  1.0000 -0.6426064647
O   O99       1.0  0.35902  0.78201  0.66979  1.0000 -0.0882889873
O   O100      1.0  0.28387  0.28498  0.28417  1.0000 -0.9347707308
O   O101      1.0  0.21629  0.71548  0.78418  1.0000 -0.941675313
O   O102      1.0  0.71618  0.78449  0.21611  1.0000 -0.941675313
O   O103      1.0  0.78432  0.21506  0.71636  1.0000 -0.941675313
O   O104      1.0  0.68690  0.55758  0.19975  1.0000 -0.4901219541
O   O105      1.0  0.64504  0.61745  0.23237  1.0000 -0.4602601565
O   O106      1.0  0.70961  0.58872  0.26989  1.0000 -0.4687312222
O   O107      1.0  0.30903  0.64940  0.59329  1.0000 -0.4202003483
O   O108      1.0  0.27070  0.71557  0.56958  1.0000 -0.4202003483
O   O109      1.0  0.22977  0.64795  0.58224  1.0000 -0.4202003483
O   O110      1.0  0.39431  0.80819  0.88899  1.0000 -0.4602601565
O   O111      1.0  0.38306  0.73666  0.85493  1.0000 -0.4602601565
O   O112      1.0  0.43467  0.78859  0.82273  1.0000 -0.4687312222
O   O113      1.0  0.52972  0.27351  0.66222  1.0000 -0.4002673305
O   O114      1.0  0.59746  0.31374  0.64824  1.0000 -0.4292671019
O   O115      1.0  0.59099  0.26752  0.71323  1.0000 -0.4002673305
O   O116      1.0  0.75398  0.12812  0.92044  1.0000 -0.4202003483
O   O117      1.0  0.78857  0.19556  0.94616  1.0000 -0.4292671019
O   O118      1.0  0.71632  0.19823  0.91185  1.0000 -0.3775171316
O   O119      1.0  0.77013  0.41156  0.77598  1.0000 -0.4202003483
O   O120      1.0  0.82449  0.46790  0.79222  1.0000 -0.3897641278
O   O121      1.0  0.84586  0.39079  0.79138  1.0000 -0.4292671019
O   O122      1.0  0.15374  0.95479  0.78935  1.0000 -0.4602601565
O   O123      1.0  0.21227  0.91753  0.74948  1.0000 -0.4602601565
O   O124      1.0  0.14399  0.87910  0.76550  1.0000 -0.4497677429
O   O125      1.0  0.77599  0.81232  0.44976  1.0000 -0.4202003483
O   O126      1.0  0.73130  0.87469  0.42700  1.0000 -0.4292671019
O   O127      1.0  0.70627  0.80009  0.41260  1.0000 -0.4100311822
O   O128      1.0  0.24204  0.28794  0.08453  1.0000 -0.4202003483
O   O129      1.0  0.25593  0.35835  0.04916  1.0000 -0.4202003483
O   O130      1.0  0.20515  0.35389  0.11083  1.0000 -0.4202003483
O   O131      1.0  0.37334  0.05003  0.22748  1.0000 -0.4292671019
O   O132      1.0  0.35934  0.12548  0.24987  1.0000 -0.4292671019
O   O133      1.0  0.31327  0.09114  0.19423  1.0000 -0.4403523124
O   O134      1.0  0.05789  0.19090  0.34672  1.0000 -0.4292671019
O   O135      1.0  0.13248  0.20986  0.36819  1.0000 -0.4202003483
O   O136      1.0  0.07334  0.26267  0.37860  1.0000 -0.4403523124
O   O137      1.0  0.94044  0.75634  0.22134  1.0000 -0.4202003483
O   O138      1.0  0.90171  0.70298  0.17601  1.0000 -0.4100311822
O   O139      1.0  0.93004  0.77027  0.14322  1.0000 -0.4403523124
