# DDEC6 charges by PACMAN v1.1 (https://github.com/mtap-research/PACMAN-charge/)
data_2012[Cu][bpq]3[ION]1
_chemical_formula_sum              "Cu4 H40 C32 S8 N24 O32"
_cell_length_a       6.9676
_cell_length_b       17.4113
_cell_length_c       18.6278
_cell_angle_alpha    90
_cell_angle_beta     90
_cell_angle_gamma    90

_symmetry_space_group_name_H-M    "P 1"
_symmetry_Int_Tables_number       1

loop_
  _symmetry_equiv_pos_as_xyz
  'x, y, z'

loop_
  _atom_site_type_symbol
  _atom_site_label
  _atom_site_symmetry_multiplicity
  _atom_site_fract_x
  _atom_site_fract_y
  _atom_site_fract_z
  _atom_site_occupancy
  _atom_site_charge
Cu  Cu1       1.0  0.70779  0.25064  0.00822  1.0000 0.778509187
Cu  Cu2       1.0  0.79221  0.74936  0.50822  1.0000 0.778509187
Cu  Cu3       1.0  0.29221  0.75064  0.49178  1.0000 0.778509187
Cu  Cu4       1.0  0.20779  0.24936  0.99178  1.0000 0.778509187
H   H1        1.0  0.78550  0.58910  0.60220  1.0000 0.1575896137
H   H2        1.0  0.71450  0.41090  0.10220  1.0000 0.1575896137
H   H3        1.0  0.21450  0.08910  0.89780  1.0000 0.1575896137
H   H4        1.0  0.28550  0.91090  0.39780  1.0000 0.1575896137
H   H5        1.0  0.35050  0.59380  0.58300  1.0000 0.1575896137
H   H6        1.0  0.14950  0.40620  0.08300  1.0000 0.1575896137
H   H7        1.0  0.64950  0.09380  0.91700  1.0000 0.1505347954
H   H8        1.0  0.85050  0.90620  0.41700  1.0000 0.1505347954
H   H9        1.0  0.21370  0.40120  0.88830  1.0000 0.1575896137
H   H10       1.0  0.28630  0.59880  0.38830  1.0000 0.1575896137
H   H11       1.0  0.78630  0.90120  0.61170  1.0000 0.1575896137
H   H12       1.0  0.71370  0.09880  0.11170  1.0000 0.1575896137
H   H13       1.0  0.65230  0.40600  0.92300  1.0000 0.1505347954
H   H14       1.0  0.84770  0.59400  0.42300  1.0000 0.1505347954
H   H15       1.0  0.34770  0.90600  0.57700  1.0000 0.1505347954
H   H16       1.0  0.15230  0.09400  0.07700  1.0000 0.1505347954
H   H17       1.0  0.99680  0.53430  0.85580  1.0000 0.1505347954
H   H18       1.0  0.50320  0.46570  0.35580  1.0000 0.1505347954
H   H19       1.0  0.00320  0.03430  0.64420  1.0000 0.1505347954
H   H20       1.0  0.49680  0.96570  0.14420  1.0000 0.1505347954
H   H21       1.0  0.77380  0.51450  0.84610  1.0000 0.1505347954
H   H22       1.0  0.72620  0.48550  0.34610  1.0000 0.1505347954
H   H23       1.0  0.22620  0.01450  0.65390  1.0000 0.1505347954
H   H24       1.0  0.27380  0.98550  0.15390  1.0000 0.1505347954
H   H25       1.0  0.87440  0.42920  0.74510  1.0000 0.1505347954
H   H26       1.0  0.62560  0.57080  0.24510  1.0000 0.1505347954
H   H27       1.0  0.12560  0.92920  0.75490  1.0000 0.1505347954
H   H28       1.0  0.37440  0.07080  0.25490  1.0000 0.1505347954
H   H29       1.0  0.13730  0.54930  0.74540  1.0000 0.1308484249
H   H30       1.0  0.36270  0.45070  0.24540  1.0000 0.1308484249
H   H31       1.0  0.86270  0.04930  0.75460  1.0000 0.1308484249
H   H32       1.0  0.63730  0.95070  0.25460  1.0000 0.1308484249
H   H33       1.0  0.21550  0.46930  0.63830  1.0000 0.1505347954
H   H34       1.0  0.28450  0.53070  0.13830  1.0000 0.1505347954
H   H35       1.0  0.78450  0.96930  0.86170  1.0000 0.1505347954
H   H36       1.0  0.71550  0.03070  0.36170  1.0000 0.1505347954
H   H37       1.0  0.98850  0.45640  0.63030  1.0000 0.1505347954
H   H38       1.0  0.51150  0.54360  0.13030  1.0000 0.1505347954
H   H39       1.0  0.01150  0.95640  0.86970  1.0000 0.1505347954
H   H40       1.0  0.48850  0.04360  0.36970  1.0000 0.1505347954
C   C1        1.0  0.91200  0.60467  0.58988  1.0000 0.1413202104
C   C2        1.0  0.58800  0.39533  0.08988  1.0000 0.1413202104
C   C3        1.0  0.08800  0.10467  0.91012  1.0000 0.1413202104
C   C4        1.0  0.41200  0.89533  0.41012  1.0000 0.1413202104
C   C5        1.0  0.21870  0.60726  0.57936  1.0000 0.1413202104
C   C6        1.0  0.28130  0.39274  0.07936  1.0000 0.1413202104
C   C7        1.0  0.78130  0.10726  0.92064  1.0000 0.1413202104
C   C8        1.0  0.71870  0.89274  0.42064  1.0000 0.1413202104
C   C9        1.0  0.08920  0.38850  0.90535  1.0000 0.1413202104
C   C10       1.0  0.41080  0.61150  0.40535  1.0000 0.1413202104
C   C11       1.0  0.91080  0.88850  0.59465  1.0000 0.1413202104
C   C12       1.0  0.58920  0.11150  0.09465  1.0000 0.1413202104
C   C13       1.0  0.78350  0.39117  0.92435  1.0000 0.1413202104
C   C14       1.0  0.71650  0.60883  0.42435  1.0000 0.1413202104
C   C15       1.0  0.21650  0.89117  0.57565  1.0000 0.1413202104
C   C16       1.0  0.28350  0.10883  0.07565  1.0000 0.1413202104
C   C17       1.0  0.90540  0.49362  0.84150  1.0000 -0.1036238945
C   C18       1.0  0.59460  0.50638  0.34150  1.0000 -0.1036238945
C   C19       1.0  0.09460  0.99362  0.65850  1.0000 -0.1036238945
C   C20       1.0  0.40540  0.00638  0.15850  1.0000 -0.1036238945
C   C21       1.0  0.94140  0.47178  0.76488  1.0000 -0.0703575625
C   C22       1.0  0.55860  0.52822  0.26488  1.0000 -0.0703575625
C   C23       1.0  0.05860  0.97178  0.73512  1.0000 -0.0703575625
C   C24       1.0  0.44140  0.02822  0.23512  1.0000 -0.0703575625
C   C25       1.0  0.06270  0.50963  0.72430  1.0000 -0.0703575625
C   C26       1.0  0.43730  0.49037  0.22430  1.0000 -0.0703575625
C   C27       1.0  0.93730  0.00963  0.77570  1.0000 -0.0703575625
C   C28       1.0  0.56270  0.99037  0.27570  1.0000 -0.0703575625
C   C29       1.0  0.08820  0.49296  0.64656  1.0000 -0.0881145797
C   C30       1.0  0.41180  0.50704  0.14656  1.0000 -0.0881145797
C   C31       1.0  0.91180  0.99296  0.85344  1.0000 -0.0881145797
C   C32       1.0  0.58820  0.00704  0.35344  1.0000 -0.0881145797
S   S1        1.0  0.97920  0.23975  0.16535  1.0000 1.3806395404
S   S2        1.0  0.52080  0.76025  0.66535  1.0000 1.3806395404
S   S3        1.0  0.02080  0.73975  0.33465  1.0000 1.3806395404
S   S4        1.0  0.47920  0.26025  0.83465  1.0000 1.3806395404
S   S5        1.0  0.44561  0.91981  0.95203  1.0000 1.3379636281
S   S6        1.0  0.05439  0.08019  0.45203  1.0000 1.3379636281
S   S7        1.0  0.55439  0.41981  0.54797  1.0000 1.3379636281
S   S8        1.0  0.94561  0.58019  0.04797  1.0000 1.3379636281
N   N1        1.0  0.95660  0.66796  0.55518  1.0000 -0.1684494613
N   N2        1.0  0.54340  0.33204  0.05518  1.0000 -0.1684494613
N   N3        1.0  0.04340  0.16796  0.94482  1.0000 -0.1684494613
N   N4        1.0  0.45660  0.83204  0.44482  1.0000 -0.1684494613
N   N5        1.0  0.07280  0.56555  0.60518  1.0000 0.0438362961
N   N6        1.0  0.42720  0.43445  0.10518  1.0000 0.0438362961
N   N7        1.0  0.92720  0.06555  0.89482  1.0000 0.0438362961
N   N8        1.0  0.57280  0.93445  0.39482  1.0000 0.0438362961
N   N9        1.0  0.04760  0.33036  0.94788  1.0000 -0.1684494613
N   N10       1.0  0.45240  0.66964  0.44788  1.0000 -0.1684494613
N   N11       1.0  0.95240  0.83036  0.55212  1.0000 -0.1684494613
N   N12       1.0  0.54760  0.16964  0.05212  1.0000 -0.1684494613
N   N13       1.0  0.92720  0.42696  0.88995  1.0000 0.0487737381
N   N14       1.0  0.57280  0.57304  0.38995  1.0000 0.0487737381
N   N15       1.0  0.07280  0.92696  0.61005  1.0000 0.0487737381
N   N16       1.0  0.42720  0.07304  0.11005  1.0000 0.0487737381
N   N17       1.0  0.15230  0.66991  0.54815  1.0000 -0.1684494613
N   N18       1.0  0.34770  0.33009  0.04815  1.0000 -0.1648748196
N   N19       1.0  0.84770  0.16991  0.95185  1.0000 -0.1684494613
N   N20       1.0  0.65230  0.83009  0.45185  1.0000 -0.1648748196
N   N21       1.0  0.85300  0.33250  0.96015  1.0000 -0.1684494613
N   N22       1.0  0.64700  0.66750  0.46015  1.0000 -0.1684494613
N   N23       1.0  0.14700  0.83250  0.53985  1.0000 -0.1684494613
N   N24       1.0  0.35300  0.16750  0.03985  1.0000 -0.1684494613
O   O1        1.0  0.18120  0.23524  0.18748  1.0000 -0.5618678532
O   O2        1.0  0.31880  0.76476  0.68748  1.0000 -0.5618678532
O   O3        1.0  0.81880  0.73524  0.31252  1.0000 -0.5618678532
O   O4        1.0  0.68120  0.26476  0.81252  1.0000 -0.5618678532
O   O5        1.0  0.96510  0.23186  0.08617  1.0000 -0.7687897212
O   O6        1.0  0.53490  0.76814  0.58617  1.0000 -0.7687897212
O   O7        1.0  0.03490  0.73186  0.41383  1.0000 -0.7687897212
O   O8        1.0  0.46510  0.26814  0.91383  1.0000 -0.7687897212
O   O9        1.0  0.89530  0.31462  0.18627  1.0000 -0.5618678532
O   O10       1.0  0.60470  0.68538  0.68627  1.0000 -0.5618678532
O   O11       1.0  0.10470  0.81462  0.31373  1.0000 -0.5618678532
O   O12       1.0  0.39530  0.18538  0.81373  1.0000 -0.5618678532
O   O13       1.0  0.86960  0.17703  0.19989  1.0000 -0.5618678532
O   O14       1.0  0.63040  0.82297  0.69989  1.0000 -0.5618678532
O   O15       1.0  0.13040  0.67703  0.30011  1.0000 -0.5618678532
O   O16       1.0  0.36960  0.32297  0.80011  1.0000 -0.5618678532
O   O17       1.0  0.26070  0.91200  0.99113  1.0000 -0.5618678532
O   O18       1.0  0.59780  0.93808  0.00353  1.0000 -0.5824957765
O   O19       1.0  0.43010  0.98028  0.89726  1.0000 -0.5916494853
O   O20       1.0  0.48770  0.84433  0.91735  1.0000 -0.4634313411
O   O21       1.0  0.23930  0.08800  0.49113  1.0000 -0.5618678532
O   O22       1.0  0.90220  0.06192  0.50353  1.0000 -0.5824957765
O   O23       1.0  0.06990  0.01972  0.39726  1.0000 -0.5916494853
O   O24       1.0  0.01230  0.15567  0.41735  1.0000 -0.4634313411
O   O25       1.0  0.73930  0.41200  0.50887  1.0000 -0.5618678532
O   O26       1.0  0.40220  0.43808  0.49647  1.0000 -0.5824957765
O   O27       1.0  0.56990  0.48028  0.60274  1.0000 -0.5916494853
O   O28       1.0  0.51230  0.34433  0.58265  1.0000 -0.4634313411
O   O29       1.0  0.76070  0.58800  0.00887  1.0000 -0.5618678532
O   O30       1.0  0.09780  0.56192  0.99647  1.0000 -0.5824957765
O   O31       1.0  0.93010  0.51972  0.10274  1.0000 -0.5916494853
O   O32       1.0  0.98770  0.65567  0.08265  1.0000 -0.4634313411
