# DDEC6 charges by PACMAN v1.1 (https://github.com/mtap-research/PACMAN-charge/)
data_2012[PbCs][nan]3[ION]1
_chemical_formula_sum              "Cs8 H92 Pb8 C168 S12 O71"
_cell_length_a       11.3401
_cell_length_b       25.0935
_cell_length_c       22.874
_cell_angle_alpha    90
_cell_angle_beta     96.895
_cell_angle_gamma    90

_symmetry_space_group_name_H-M    "P 1"
_symmetry_Int_Tables_number       1

loop_
  _symmetry_equiv_pos_as_xyz
  'x, y, z'

loop_
  _atom_site_type_symbol
  _atom_site_label
  _atom_site_symmetry_multiplicity
  _atom_site_fract_x
  _atom_site_fract_y
  _atom_site_fract_z
  _atom_site_occupancy
  _atom_site_charge
Cs  Cs1       1.0  0.26847  0.03819  0.11361  1.0000 0.8911618482
Cs  Cs2       1.0  0.84871  0.12056  0.34958  1.0000 0.8977670264
Cs  Cs3       1.0  0.23153  0.53819  0.38639  1.0000 0.8911618482
Cs  Cs4       1.0  0.65129  0.62056  0.15042  1.0000 0.8977670264
Cs  Cs5       1.0  0.73153  0.96181  0.88639  1.0000 0.8911618482
Cs  Cs6       1.0  0.15129  0.87944  0.65042  1.0000 0.8977670264
Cs  Cs7       1.0  0.76847  0.46181  0.61361  1.0000 0.8911618482
Cs  Cs8       1.0  0.34871  0.37944  0.84958  1.0000 0.8977670264
H   H1        1.0  0.59720  0.23180  0.16910  1.0000 0.1212550284
H   H2        1.0  0.57790  0.30200  0.09980  1.0000 0.1212550284
H   H3        1.0  0.23490  0.26640  0.05310  1.0000 0.1270936725
H   H4        1.0  0.25670  0.19250  0.11960  1.0000 0.1212550284
H   H5        1.0  0.55020  0.41010  0.08670  1.0000 0.1270936725
H   H6        1.0  0.53110  0.48680  0.14850  1.0000 0.1102657335
H   H7        1.0  0.17950  0.47640  0.10870  1.0000 0.1212550284
H   H8        1.0  0.20160  0.40090  0.04650  1.0000 0.1270936725
H   H9        1.0  0.35370  0.27320  0.33210  1.0000 0.1212550284
H   H10       1.0  0.37320  0.36380  0.36210  1.0000 0.1212550284
H   H11       1.0  0.68380  0.32860  0.45720  1.0000 0.1212550284
H   H12       1.0  0.66970  0.24080  0.42170  1.0000 0.1212550284
H   H13       1.0  0.62730  0.51160  0.26010  1.0000 0.1358729158
H   H14       1.0  0.90820  0.47970  0.37730  1.0000 0.1212550284
H   H15       1.0  0.78920  0.43590  0.43730  1.0000 0.1102657335
H   H16       1.0  0.13480  0.33620  0.31820  1.0000 0.1270936725
H   H17       1.0  0.12240  0.40520  0.38380  1.0000 0.1212550284
H   H18       1.0  0.97890  0.30850  0.49440  1.0000 0.1212550284
H   H19       1.0  0.99460  0.23660  0.42910  1.0000 0.1212550284
H   H20       1.0  0.29020  0.43190  0.49720  1.0000 0.1212550284
H   H21       1.0  0.45830  0.41850  0.56820  1.0000 0.1212550284
H   H22       1.0  0.24330  0.35790  0.67850  1.0000 0.1270936725
H   H23       1.0  0.07650  0.37260  0.60910  1.0000 0.1102657335
H   H24       1.0  0.90280  0.73180  0.33090  1.0000 0.1212550284
H   H25       1.0  0.92210  0.80200  0.40020  1.0000 0.1212550284
H   H26       1.0  0.26510  0.76640  0.44690  1.0000 0.1270936725
H   H27       1.0  0.24330  0.69250  0.38040  1.0000 0.1212550284
H   H28       1.0  0.94980  0.91010  0.41330  1.0000 0.1270936725
H   H29       1.0  0.96890  0.98680  0.35150  1.0000 0.1102657335
H   H30       1.0  0.32050  0.97640  0.39130  1.0000 0.1212550284
H   H31       1.0  0.29840  0.90090  0.45350  1.0000 0.1270936725
H   H32       1.0  0.14630  0.77320  0.16790  1.0000 0.1212550284
H   H33       1.0  0.12680  0.86380  0.13790  1.0000 0.1212550284
H   H34       1.0  0.81620  0.82860  0.04280  1.0000 0.1270936725
H   H35       1.0  0.83030  0.74080  0.07830  1.0000 0.1212550284
H   H36       1.0  0.87270  0.01160  0.23990  1.0000 0.1358729158
H   H37       1.0  0.59180  0.97970  0.12270  1.0000 0.1212550284
H   H38       1.0  0.71080  0.93590  0.06270  1.0000 0.1212550284
H   H39       1.0  0.36520  0.83620  0.18180  1.0000 0.1270936725
H   H40       1.0  0.37760  0.90520  0.11620  1.0000 0.1212550284
H   H41       1.0  0.52110  0.80850  0.00560  1.0000 0.1212550284
H   H42       1.0  0.50540  0.73660  0.07090  1.0000 0.1212550284
H   H43       1.0  0.20980  0.93190  0.00280  1.0000 0.1212550284
H   H44       1.0  0.04170  0.91850  0.93180  1.0000 0.1212550284
H   H45       1.0  0.25670  0.85790  0.82150  1.0000 0.1270936725
H   H46       1.0  0.42350  0.87260  0.89090  1.0000 0.1212550284
H   H47       1.0  0.40280  0.76820  0.83090  1.0000 0.1212550284
H   H48       1.0  0.42210  0.69800  0.90020  1.0000 0.1212550284
H   H49       1.0  0.76510  0.73360  0.94690  1.0000 0.1270936725
H   H50       1.0  0.74330  0.80750  0.88040  1.0000 0.1212550284
H   H51       1.0  0.44980  0.58990  0.91330  1.0000 0.1270936725
H   H52       1.0  0.46890  0.51320  0.85150  1.0000 0.1102657335
H   H53       1.0  0.82050  0.52360  0.89130  1.0000 0.1212550284
H   H54       1.0  0.79840  0.59910  0.95350  1.0000 0.1270936725
H   H55       1.0  0.64630  0.72680  0.66790  1.0000 0.1212550284
H   H56       1.0  0.62680  0.63620  0.63790  1.0000 0.1212550284
H   H57       1.0  0.31620  0.67140  0.54280  1.0000 0.1270936725
H   H58       1.0  0.33030  0.75920  0.57830  1.0000 0.1212550284
H   H59       1.0  0.37270  0.48840  0.73990  1.0000 0.1358729158
H   H60       1.0  0.09180  0.52030  0.62270  1.0000 0.1212550284
H   H61       1.0  0.21080  0.56410  0.56270  1.0000 0.1212550284
H   H62       1.0  0.86520  0.66380  0.68180  1.0000 0.1270936725
H   H63       1.0  0.87760  0.59480  0.61620  1.0000 0.1212550284
H   H64       1.0  0.02110  0.69150  0.50560  1.0000 0.1270936725
H   H65       1.0  0.00540  0.76340  0.57090  1.0000 0.1212550284
H   H66       1.0  0.70980  0.56810  0.50280  1.0000 0.1212550284
H   H67       1.0  0.54170  0.58150  0.43180  1.0000 0.1212550284
H   H68       1.0  0.75670  0.64210  0.32150  1.0000 0.1270936725
H   H69       1.0  0.92350  0.62740  0.39090  1.0000 0.1212550284
H   H70       1.0  0.09720  0.26820  0.66910  1.0000 0.1212550284
H   H71       1.0  0.07790  0.19800  0.59980  1.0000 0.1212550284
H   H72       1.0  0.73490  0.23360  0.55310  1.0000 0.1270936725
H   H73       1.0  0.75670  0.30750  0.61960  1.0000 0.1212550284
H   H74       1.0  0.05020  0.08990  0.58670  1.0000 0.1270936725
H   H75       1.0  0.03110  0.01320  0.64850  1.0000 0.1102657335
H   H76       1.0  0.67950  0.02360  0.60870  1.0000 0.1212550284
H   H77       1.0  0.70160  0.09910  0.54650  1.0000 0.1270936725
H   H78       1.0  0.85370  0.22680  0.83210  1.0000 0.1212550284
H   H79       1.0  0.87320  0.13620  0.86210  1.0000 0.1212550284
H   H80       1.0  0.18380  0.17140  0.95720  1.0000 0.1270936725
H   H81       1.0  0.16970  0.25920  0.92170  1.0000 0.1212550284
H   H82       1.0  0.12730  0.98840  0.76010  1.0000 0.1358729158
H   H83       1.0  0.40820  0.02030  0.87730  1.0000 0.1212550284
H   H84       1.0  0.28920  0.06410  0.93730  1.0000 0.1212550284
H   H85       1.0  0.63480  0.16380  0.81820  1.0000 0.1270936725
H   H86       1.0  0.62240  0.09480  0.88380  1.0000 0.1212550284
H   H87       1.0  0.47890  0.19150  0.99440  1.0000 0.1212550284
H   H88       1.0  0.49460  0.26340  0.92910  1.0000 0.1212550284
H   H89       1.0  0.79020  0.06810  0.99720  1.0000 0.1212550284
H   H90       1.0  0.95830  0.08150  0.06820  1.0000 0.1212550284
H   H91       1.0  0.74330  0.14210  0.17850  1.0000 0.1270936725
H   H92       1.0  0.57650  0.12740  0.10910  1.0000 0.1212550284
Pb  Pb1       1.0  0.48840  0.08819  0.29503  1.0000 1.0707529526
Pb  Pb2       1.0  0.16105  0.14145  0.26667  1.0000 1.0591472131
Pb  Pb3       1.0  0.01160  0.58819  0.20497  1.0000 1.0707529526
Pb  Pb4       1.0  0.33895  0.64145  0.23333  1.0000 1.0591472131
Pb  Pb5       1.0  0.51160  0.91181  0.70497  1.0000 1.0707529526
Pb  Pb6       1.0  0.83895  0.85855  0.73333  1.0000 1.0591472131
Pb  Pb7       1.0  0.98840  0.41181  0.79503  1.0000 1.0707529526
Pb  Pb8       1.0  0.66105  0.35855  0.76667  1.0000 1.0591472131
C   C1        1.0  0.43740  0.16060  0.19320  1.0000 0.5602288337
C   C2        1.0  0.42370  0.20580  0.15040  1.0000 -0.0210184426
C   C3        1.0  0.52560  0.23820  0.14590  1.0000 -0.0832593863
C   C4        1.0  0.51360  0.28020  0.10490  1.0000 -0.117900766
C   C5        1.0  0.40390  0.28850  0.07240  1.0000 -0.07085292
C   C6        1.0  0.30680  0.25900  0.07570  1.0000 -0.1092918943
C   C7        1.0  0.32080  0.21500  0.11660  1.0000 -0.0832593863
C   C8        1.0  0.37500  0.39980  0.06790  1.0000 -0.07085292
C   C9        1.0  0.47600  0.42320  0.09290  1.0000 -0.117900766
C   C10       1.0  0.46460  0.46950  0.12950  1.0000 -0.0887827784
C   C11       1.0  0.34910  0.48740  0.13520  1.0000 -0.010158349
C   C12       1.0  0.25500  0.46310  0.10540  1.0000 -0.0832593863
C   C13       1.0  0.26600  0.41700  0.06830  1.0000 -0.0986943369
C   C14       1.0  0.33270  0.53640  0.17310  1.0000 0.577662323
C   C15       1.0  0.50160  0.19260  0.35050  1.0000 0.577662323
C   C16       1.0  0.51160  0.24940  0.37400  1.0000 0.0013588469
C   C17       1.0  0.42100  0.28470  0.35610  1.0000 -0.0887827784
C   C18       1.0  0.43170  0.33900  0.37490  1.0000 -0.1092918943
C   C19       1.0  0.52940  0.35370  0.41180  1.0000 -0.07085292
C   C20       1.0  0.61880  0.31790  0.43110  1.0000 -0.1092918943
C   C21       1.0  0.60930  0.26510  0.41050  1.0000 -0.0887827784
C   C22       1.0  0.63480  0.45040  0.38620  1.0000 -0.117900766
C   C23       1.0  0.57880  0.47180  0.33210  1.0000 0.0013588469
C   C24       1.0  0.65790  0.49660  0.29590  1.0000 -0.1486978377
C   C25       1.0  0.77940  0.49850  0.31320  1.0000 0.0183794791
C   C26       1.0  0.82680  0.47710  0.36590  1.0000 -0.0986943369
C   C27       1.0  0.75590  0.45180  0.40240  1.0000 -0.0986943369
C   C28       1.0  0.85970  0.52720  0.27460  1.0000 0.5602288337
C   C29       1.0  0.08590  0.23470  0.32680  1.0000 0.5490622711
C   C30       1.0  0.06870  0.27920  0.36830  1.0000 -0.010158349
C   C31       1.0  0.10520  0.33020  0.35380  1.0000 -0.0887827784
C   C32       1.0  0.09690  0.37130  0.39270  1.0000 -0.117900766
C   C33       1.0  0.05030  0.36230  0.44550  1.0000 -0.0271276259
C   C34       1.0  0.01140  0.31370  0.45940  1.0000 -0.1343422491
C   C35       1.0  0.02070  0.27040  0.42000  1.0000 -0.0832593863
C   C36       1.0  0.17170  0.40380  0.54780  1.0000 -0.0271276259
C   C37       1.0  0.28160  0.41740  0.53390  1.0000 -0.1092918943
C   C38       1.0  0.38250  0.40930  0.57620  1.0000 -0.0832593863
C   C39       1.0  0.36350  0.38680  0.63040  1.0000 -0.0210184426
C   C40       1.0  0.25280  0.37310  0.64230  1.0000 -0.0832593863
C   C41       1.0  0.15240  0.38160  0.60090  1.0000 -0.135452475
C   C42       1.0  0.47000  0.37850  0.67470  1.0000 0.5602288337
C   C43       1.0  0.06260  0.66060  0.30680  1.0000 0.5602288337
C   C44       1.0  0.07630  0.70580  0.34960  1.0000 -0.0210184426
C   C45       1.0  0.97440  0.73820  0.35410  1.0000 -0.0832593863
C   C46       1.0  0.98640  0.78020  0.39510  1.0000 -0.117900766
C   C47       1.0  0.09610  0.78850  0.42760  1.0000 -0.07085292
C   C48       1.0  0.19320  0.75900  0.42430  1.0000 -0.1092918943
C   C49       1.0  0.17920  0.71500  0.38340  1.0000 -0.0832593863
C   C50       1.0  0.12500  0.89980  0.43210  1.0000 -0.07085292
C   C51       1.0  0.02400  0.92320  0.40710  1.0000 -0.1092918943
C   C52       1.0  0.03540  0.96950  0.37050  1.0000 -0.0887827784
C   C53       1.0  0.15090  0.98740  0.36480  1.0000 -0.010158349
C   C54       1.0  0.24500  0.96310  0.39460  1.0000 -0.0832593863
C   C55       1.0  0.23400  0.91700  0.43170  1.0000 -0.0986943369
C   C56       1.0  0.16730  0.03640  0.32690  1.0000 0.577662323
C   C57       1.0  0.99840  0.69260  0.14950  1.0000 0.577662323
C   C58       1.0  0.98840  0.74940  0.12600  1.0000 0.0013588469
C   C59       1.0  0.07900  0.78470  0.14390  1.0000 -0.0887827784
C   C60       1.0  0.06830  0.83900  0.12510  1.0000 -0.1092918943
C   C61       1.0  0.97060  0.85370  0.08820  1.0000 -0.07085292
C   C62       1.0  0.88120  0.81790  0.06890  1.0000 -0.1092918943
C   C63       1.0  0.89070  0.76510  0.08950  1.0000 -0.0887827784
C   C64       1.0  0.86520  0.95040  0.11380  1.0000 -0.117900766
C   C65       1.0  0.92120  0.97180  0.16790  1.0000 0.0013588469
C   C66       1.0  0.84210  0.99660  0.20410  1.0000 -0.1486978377
C   C67       1.0  0.72060  0.99850  0.18680  1.0000 0.0183794791
C   C68       1.0  0.67320  0.97710  0.13410  1.0000 -0.0986943369
C   C69       1.0  0.74410  0.95180  0.09760  1.0000 -0.0887827784
C   C70       1.0  0.64030  0.02720  0.22540  1.0000 0.5602288337
C   C71       1.0  0.41410  0.73470  0.17320  1.0000 0.5490622711
C   C72       1.0  0.43130  0.77920  0.13170  1.0000 -0.010158349
C   C73       1.0  0.39480  0.83020  0.14620  1.0000 -0.0887827784
C   C74       1.0  0.40310  0.87130  0.10730  1.0000 -0.1092918943
C   C75       1.0  0.44970  0.86230  0.05450  1.0000 -0.0832593863
C   C76       1.0  0.48860  0.81370  0.04060  1.0000 -0.0986943369
C   C77       1.0  0.47930  0.77040  0.08000  1.0000 -0.0887827784
C   C78       1.0  0.32830  0.90380  0.95220  1.0000 -0.0832593863
C   C79       1.0  0.21840  0.91740  0.96610  1.0000 -0.0986943369
C   C80       1.0  0.11750  0.90930  0.92380  1.0000 -0.0887827784
C   C81       1.0  0.13650  0.88680  0.86960  1.0000 -0.0210184426
C   C82       1.0  0.24720  0.87310  0.85770  1.0000 -0.0887827784
C   C83       1.0  0.34760  0.88160  0.89910  1.0000 -0.0986943369
C   C84       1.0  0.03000  0.87850  0.82530  1.0000 0.5602288337
C   C85       1.0  0.56260  0.83940  0.80680  1.0000 0.5602288337
C   C86       1.0  0.57630  0.79420  0.84960  1.0000 -0.0271276259
C   C87       1.0  0.47440  0.76180  0.85410  1.0000 -0.0832593863
C   C88       1.0  0.48640  0.71980  0.89510  1.0000 -0.117900766
C   C89       1.0  0.59610  0.71150  0.92760  1.0000 -0.07085292
C   C90       1.0  0.69320  0.74100  0.92430  1.0000 -0.1092918943
C   C91       1.0  0.67920  0.78500  0.88340  1.0000 -0.0832593863
C   C92       1.0  0.62500  0.60020  0.93210  1.0000 -0.07085292
C   C93       1.0  0.52400  0.57680  0.90710  1.0000 -0.117900766
C   C94       1.0  0.53540  0.53050  0.87050  1.0000 -0.0887827784
C   C95       1.0  0.65090  0.51260  0.86480  1.0000 -0.010158349
C   C96       1.0  0.74500  0.53690  0.89460  1.0000 -0.0832593863
C   C97       1.0  0.73400  0.58300  0.93170  1.0000 -0.0986943369
C   C98       1.0  0.66730  0.46360  0.82690  1.0000 0.577662323
C   C99       1.0  0.49840  0.80740  0.64950  1.0000 0.577662323
C   C100      1.0  0.48840  0.75060  0.62600  1.0000 0.0013588469
C   C101      1.0  0.57900  0.71530  0.64390  1.0000 -0.0887827784
C   C102      1.0  0.56830  0.66100  0.62510  1.0000 -0.1092918943
C   C103      1.0  0.47060  0.64630  0.58820  1.0000 -0.07085292
C   C104      1.0  0.38120  0.68210  0.56890  1.0000 -0.1092918943
C   C105      1.0  0.39070  0.73490  0.58950  1.0000 -0.0887827784
C   C106      1.0  0.36520  0.54960  0.61380  1.0000 -0.117900766
C   C107      1.0  0.42120  0.52820  0.66790  1.0000 0.0013588469
C   C108      1.0  0.34210  0.50340  0.70410  1.0000 -0.1486978377
C   C109      1.0  0.22060  0.50150  0.68680  1.0000 0.0183794791
C   C110      1.0  0.17320  0.52290  0.63410  1.0000 -0.0986943369
C   C111      1.0  0.24410  0.54820  0.59760  1.0000 -0.0887827784
C   C112      1.0  0.14030  0.47280  0.72540  1.0000 0.5602288337
C   C113      1.0  0.91410  0.76530  0.67320  1.0000 0.5490622711
C   C114      1.0  0.93130  0.72080  0.63170  1.0000 -0.010158349
C   C115      1.0  0.89480  0.66980  0.64620  1.0000 -0.0887827784
C   C116      1.0  0.90310  0.62870  0.60730  1.0000 -0.1092918943
C   C117      1.0  0.94970  0.63770  0.55450  1.0000 -0.0832593863
C   C118      1.0  0.98860  0.68630  0.54060  1.0000 -0.0986943369
C   C119      1.0  0.97930  0.72960  0.58000  1.0000 -0.0887827784
C   C120      1.0  0.82830  0.59620  0.45220  1.0000 -0.0887827784
C   C121      1.0  0.71840  0.58260  0.46610  1.0000 -0.0986943369
C   C122      1.0  0.61750  0.59070  0.42380  1.0000 -0.0887827784
C   C123      1.0  0.63650  0.61320  0.36960  1.0000 -0.010158349
C   C124      1.0  0.74720  0.62690  0.35770  1.0000 -0.0887827784
C   C125      1.0  0.84760  0.61840  0.39910  1.0000 -0.0986943369
C   C126      1.0  0.53000  0.62150  0.32530  1.0000 0.5602288337
C   C127      1.0  0.93740  0.33940  0.69320  1.0000 0.5602288337
C   C128      1.0  0.92370  0.29420  0.65040  1.0000 -0.0271276259
C   C129      1.0  0.02560  0.26180  0.64590  1.0000 -0.0887827784
C   C130      1.0  0.01360  0.21980  0.60490  1.0000 -0.117900766
C   C131      1.0  0.90390  0.21150  0.57240  1.0000 -0.0647887472
C   C132      1.0  0.80680  0.24100  0.57570  1.0000 -0.1092918943
C   C133      1.0  0.82080  0.28500  0.61660  1.0000 -0.0887827784
C   C134      1.0  0.87500  0.10020  0.56790  1.0000 -0.07085292
C   C135      1.0  0.97600  0.07680  0.59290  1.0000 -0.117900766
C   C136      1.0  0.96460  0.03050  0.62950  1.0000 -0.0887827784
C   C137      1.0  0.84910  0.01260  0.63520  1.0000 -0.010158349
C   C138      1.0  0.75500  0.03690  0.60540  1.0000 -0.0832593863
C   C139      1.0  0.76600  0.08300  0.56830  1.0000 -0.0986943369
C   C140      1.0  0.83270  0.96360  0.67310  1.0000 0.577662323
C   C141      1.0  0.00160  0.30740  0.85050  1.0000 0.577662323
C   C142      1.0  0.01160  0.25060  0.87400  1.0000 0.0013588469
C   C143      1.0  0.92100  0.21530  0.85610  1.0000 -0.0887827784
C   C144      1.0  0.93170  0.16100  0.87490  1.0000 -0.1092918943
C   C145      1.0  0.02940  0.14630  0.91180  1.0000 -0.07085292
C   C146      1.0  0.11880  0.18210  0.93110  1.0000 -0.1092918943
C   C147      1.0  0.10930  0.23490  0.91050  1.0000 -0.0887827784
C   C148      1.0  0.13480  0.04960  0.88620  1.0000 -0.117900766
C   C149      1.0  0.07880  0.02820  0.83210  1.0000 0.0013588469
C   C150      1.0  0.15790  0.00340  0.79590  1.0000 -0.1486978377
C   C151      1.0  0.27940  0.00150  0.81320  1.0000 0.0183794791
C   C152      1.0  0.32680  0.02290  0.86590  1.0000 -0.0986943369
C   C153      1.0  0.25590  0.04820  0.90240  1.0000 -0.0887827784
C   C154      1.0  0.35970  0.97280  0.77460  1.0000 0.5602288337
C   C155      1.0  0.58590  0.26530  0.82680  1.0000 0.5490622711
C   C156      1.0  0.56870  0.22080  0.86830  1.0000 -0.010158349
C   C157      1.0  0.60520  0.16980  0.85380  1.0000 -0.0887827784
C   C158      1.0  0.59690  0.12870  0.89270  1.0000 -0.1092918943
C   C159      1.0  0.55030  0.13770  0.94550  1.0000 -0.0832593863
C   C160      1.0  0.51140  0.18630  0.95940  1.0000 -0.0986943369
C   C161      1.0  0.52070  0.22960  0.92000  1.0000 -0.0887827784
C   C162      1.0  0.67170  0.09620  0.04780  1.0000 -0.0832593863
C   C163      1.0  0.78160  0.08260  0.03390  1.0000 -0.0986943369
C   C164      1.0  0.88250  0.09070  0.07620  1.0000 -0.0887827784
C   C165      1.0  0.86350  0.11320  0.13040  1.0000 -0.010158349
C   C166      1.0  0.75280  0.12690  0.14230  1.0000 -0.0887827784
C   C167      1.0  0.65240  0.11840  0.10090  1.0000 -0.0986943369
C   C168      1.0  0.97000  0.12150  0.17470  1.0000 0.5602288337
S   S1        1.0  0.39400  0.34343  0.02171  1.0000 0.9532029074
S   S2        1.0  0.54430  0.42135  0.43447  1.0000 1.0014191907
S   S3        1.0  0.04780  0.41571  0.49544  1.0000 0.4473691624
S   S4        1.0  0.10600  0.84343  0.47829  1.0000 0.9532029074
S   S5        1.0  0.95570  0.92135  0.06553  1.0000 1.0014191907
S   S6        1.0  0.45220  0.91571  0.00456  1.0000 0.9937907498
S   S7        1.0  0.60600  0.65657  0.97829  1.0000 0.9532029074
S   S8        1.0  0.45570  0.57865  0.56553  1.0000 1.0014191907
S   S9        1.0  0.95220  0.58429  0.50456  1.0000 0.9937907498
S   S10       1.0  0.89400  0.15657  0.52171  1.0000 0.9532029074
S   S11       1.0  0.04430  0.07865  0.93447  1.0000 1.0014191907
S   S12       1.0  0.54780  0.08429  0.99544  1.0000 0.9937907498
O   O1        1.0  0.53860  0.15570  0.22650  1.0000 -0.5310022577
O   O2        1.0  0.35280  0.12930  0.19780  1.0000 -0.6284294758
O   O3        1.0  0.42410  0.56530  0.18750  1.0000 -0.5825030986
O   O4        1.0  0.22740  0.54780  0.18240  1.0000 -0.6284294758
O   O5        1.0  0.51100  0.34920  0.00070  1.0000 -0.5310022577
O   O6        1.0  0.28500  0.33670  0.98250  1.0000 -0.5310022577
O   O7        1.0  0.39810  0.17750  0.33000  1.0000 -0.5906028185
O   O8        1.0  0.59280  0.16490  0.35350  1.0000 -0.5825030986
O   O9        1.0  0.81330  0.55130  0.23000  1.0000 -0.60806274
O   O10       1.0  0.96940  0.52640  0.29350  1.0000 -0.6039567251
O   O11       1.0  0.42850  0.44490  0.42440  1.0000 -0.5494225213
O   O12       1.0  0.60850  0.42190  0.49240  1.0000 -0.5494225213
O   O13       1.0  0.06890  0.18720  0.34470  1.0000 -0.5906028185
O   O14       1.0  0.12190  0.24470  0.27920  1.0000 -0.5310022577
O   O15       1.0  0.45410  0.35630  0.72220  1.0000 -0.5494225213
O   O16       1.0  0.57280  0.39370  0.66410  1.0000 -0.60806274
O   O17       1.0  0.07040  0.46340  0.46420  1.0000 -0.4929161925
O   O18       1.0  0.96140  0.65570  0.27350  1.0000 -0.5310022577
O   O19       1.0  0.14720  0.62930  0.30220  1.0000 -0.6284294758
O   O20       1.0  0.07590  0.06530  0.31250  1.0000 -0.5825030986
O   O21       1.0  0.27260  0.04780  0.31760  1.0000 -0.6284294758
O   O22       1.0  0.98900  0.84920  0.49930  1.0000 -0.5246024091
O   O23       1.0  0.21500  0.83670  0.51750  1.0000 -0.5310022577
O   O24       1.0  0.10190  0.67750  0.17000  1.0000 -0.5906028185
O   O25       1.0  0.90720  0.66490  0.14650  1.0000 -0.5825030986
O   O26       1.0  0.68670  0.05130  0.27000  1.0000 -0.60806274
O   O27       1.0  0.53060  0.02640  0.20650  1.0000 -0.6039567251
O   O28       1.0  0.07150  0.94490  0.07560  1.0000 -0.5494225213
O   O29       1.0  0.89150  0.92190  0.00760  1.0000 -0.5421516407
O   O30       1.0  0.43110  0.68720  0.15530  1.0000 -0.5906028185
O   O31       1.0  0.37810  0.74470  0.22080  1.0000 -0.5310022577
O   O32       1.0  0.04590  0.85630  0.77780  1.0000 -0.5494225213
O   O33       1.0  0.92720  0.89370  0.83590  1.0000 -0.60806274
O   O34       1.0  0.55710  0.91060  0.97600  1.0000 -0.5494225213
O   O35       1.0  0.42960  0.96340  0.03580  1.0000 -0.5494225213
O   O36       1.0  0.46140  0.84430  0.77350  1.0000 -0.5310022577
O   O37       1.0  0.64720  0.87070  0.80220  1.0000 -0.6284294758
O   O38       1.0  0.57590  0.43470  0.81250  1.0000 -0.5825030986
O   O39       1.0  0.77260  0.45220  0.81760  1.0000 -0.6284294758
O   O40       1.0  0.48900  0.65080  0.99930  1.0000 -0.5246024091
O   O41       1.0  0.71500  0.66330  0.01750  1.0000 -0.5310022577
O   O42       1.0  0.60190  0.82250  0.67000  1.0000 -0.5906028185
O   O43       1.0  0.40720  0.83510  0.64650  1.0000 -0.5825030986
O   O44       1.0  0.18670  0.44870  0.77000  1.0000 -0.6039567251
O   O45       1.0  0.03060  0.47360  0.70650  1.0000 -0.6039567251
O   O46       1.0  0.57150  0.55510  0.57560  1.0000 -0.5494225213
O   O47       1.0  0.39150  0.57810  0.50760  1.0000 -0.5421516407
O   O48       1.0  0.93110  0.81280  0.65530  1.0000 -0.5906028185
O   O49       1.0  0.87810  0.75530  0.72080  1.0000 -0.5310022577
O   O50       1.0  0.54590  0.64370  0.27780  1.0000 -0.5494225213
O   O51       1.0  0.42720  0.60630  0.33590  1.0000 -0.60806274
O   O52       1.0  0.05710  0.58940  0.47600  1.0000 -0.5421516407
O   O53       1.0  0.92960  0.53660  0.53580  1.0000 -0.5605730373
O   O54       1.0  0.03860  0.34430  0.72650  1.0000 -0.5310022577
O   O55       1.0  0.85280  0.37070  0.69780  1.0000 -0.6284294758
O   O56       1.0  0.92410  0.93470  0.68750  1.0000 -0.5825030986
O   O57       1.0  0.72740  0.95220  0.68240  1.0000 -0.6284294758
O   O58       1.0  0.01100  0.15080  0.50070  1.0000 -0.5310022577
O   O59       1.0  0.78500  0.16330  0.48250  1.0000 -0.5310022577
O   O60       1.0  0.89810  0.32250  0.83000  1.0000 -0.5906028185
O   O61       1.0  0.09280  0.33510  0.85350  1.0000 -0.5825030986
O   O62       1.0  0.31330  0.94870  0.73000  1.0000 -0.6039567251
O   O63       1.0  0.46940  0.97360  0.79350  1.0000 -0.6039567251
O   O64       1.0  0.92850  0.05510  0.92440  1.0000 -0.5494225213
O   O65       1.0  0.10850  0.07810  0.99240  1.0000 -0.5421516407
O   O66       1.0  0.56890  0.31280  0.84470  1.0000 -0.5906028185
O   O67       1.0  0.62190  0.25530  0.77920  1.0000 -0.5310022577
O   O68       1.0  0.95410  0.14370  0.22220  1.0000 -0.5494225213
O   O69       1.0  0.07280  0.10630  0.16410  1.0000 -0.60806274
O   O70       1.0  0.44290  0.08940  0.02400  1.0000 -0.5494225213
O   O71       1.0  0.57040  0.03660  0.96420  1.0000 -0.5494225213
