# DDEC6 charges by PACMAN v1.1 (https://github.com/mtap-research/PACMAN-charge/)
data_2012[Zn][nan]3[ION]3
_chemical_formula_sum              "Zn12 H80 C96 N16 O48"
_cell_length_a       18.8292
_cell_length_b       18.8292
_cell_length_c       18.8292
_cell_angle_alpha    111.239
_cell_angle_beta     111.239
_cell_angle_gamma    105.99

_symmetry_space_group_name_H-M    "P 1"
_symmetry_Int_Tables_number       1

loop_
  _symmetry_equiv_pos_as_xyz
  'x, y, z'

loop_
  _atom_site_type_symbol
  _atom_site_label
  _atom_site_symmetry_multiplicity
  _atom_site_fract_x
  _atom_site_fract_y
  _atom_site_fract_z
  _atom_site_occupancy
  _atom_site_charge
Zn  Zn1       1.0  0.68875  0.54213  0.48444  1.0000 0.8542475191
Zn  Zn2       1.0  0.05769  0.20431  0.51556  1.0000 0.8542475191
Zn  Zn3       1.0  0.54213  0.05769  0.85338  1.0000 0.8542475191
Zn  Zn4       1.0  0.20431  0.68875  0.14662  1.0000 0.8542475191
Zn  Zn5       1.0  0.31125  0.45787  0.51556  1.0000 0.8542475191
Zn  Zn6       1.0  0.94231  0.79569  0.48444  1.0000 0.8542475191
Zn  Zn7       1.0  0.45787  0.94231  0.14662  1.0000 0.8542475191
Zn  Zn8       1.0  0.79569  0.31125  0.85338  1.0000 0.8542475191
Zn  Zn9       1.0  0.62035  0.27130  0.89165  1.0000 0.9177003441
Zn  Zn10      1.0  0.37965  0.72870  0.10835  1.0000 0.9177003441
Zn  Zn11      1.0  0.27130  0.37965  0.65095  1.0000 0.9177003441
Zn  Zn12      1.0  0.72870  0.62035  0.34905  1.0000 0.9177003441
H   H1        1.0  0.50700  0.35410  0.71990  1.0000 0.1412828257
H   H2        1.0  0.63420  0.78710  0.28010  1.0000 0.1412828257
H   H3        1.0  0.35410  0.63420  0.84710  1.0000 0.1412828257
H   H4        1.0  0.78710  0.50700  0.15290  1.0000 0.1412828257
H   H5        1.0  0.49300  0.64590  0.28010  1.0000 0.1412828257
H   H6        1.0  0.36580  0.21290  0.71990  1.0000 0.1412828257
H   H7        1.0  0.64590  0.36580  0.15290  1.0000 0.1412828257
H   H8        1.0  0.21290  0.49300  0.84710  1.0000 0.1412828257
H   H9        1.0  0.53280  0.46300  0.57800  1.0000 0.1412828257
H   H10       1.0  0.88500  0.95480  0.42200  1.0000 0.1412828257
H   H11       1.0  0.46300  0.88500  0.93020  1.0000 0.1412828257
H   H12       1.0  0.95480  0.53280  0.06980  1.0000 0.1412828257
H   H13       1.0  0.46720  0.53700  0.42200  1.0000 0.1412828257
H   H14       1.0  0.11500  0.04520  0.57800  1.0000 0.1412828257
H   H15       1.0  0.53700  0.11500  0.06980  1.0000 0.1412828257
H   H16       1.0  0.04520  0.46720  0.93020  1.0000 0.1412828257
H   H17       1.0  0.66360  0.00460  0.77180  1.0000 0.1412828257
H   H18       1.0  0.23280  0.89180  0.22820  1.0000 0.1412828257
H   H19       1.0  0.00460  0.23280  0.34100  1.0000 0.1412828257
H   H20       1.0  0.89180  0.66360  0.65900  1.0000 0.1412828257
H   H21       1.0  0.33640  0.99540  0.22820  1.0000 0.1412828257
H   H22       1.0  0.76720  0.10820  0.77180  1.0000 0.1412828257
H   H23       1.0  0.99540  0.76720  0.65900  1.0000 0.1412828257
H   H24       1.0  0.10820  0.33640  0.34100  1.0000 0.1412828257
H   H25       1.0  0.71910  0.41270  0.69680  1.0000 0.1229936419
H   H26       1.0  0.71590  0.02230  0.30320  1.0000 0.1229936419
H   H27       1.0  0.41270  0.71590  0.69360  1.0000 0.1229936419
H   H28       1.0  0.02230  0.71910  0.30640  1.0000 0.1229936419
H   H29       1.0  0.28090  0.58730  0.30320  1.0000 0.1229936419
H   H30       1.0  0.28410  0.97770  0.69680  1.0000 0.1229936419
H   H31       1.0  0.58730  0.28410  0.30640  1.0000 0.1229936419
H   H32       1.0  0.97770  0.28090  0.69360  1.0000 0.1229936419
H   H33       1.0  0.00140  0.60260  0.47500  1.0000 0.130471735
H   H34       1.0  0.12760  0.52640  0.52500  1.0000 0.130471735
H   H35       1.0  0.06530  0.63570  0.57460  1.0000 0.130471735
H   H36       1.0  0.06110  0.49070  0.42540  1.0000 0.130471735
H   H37       1.0  0.06960  0.70020  0.54000  1.0000 0.1412828257
H   H38       1.0  0.16020  0.52960  0.46000  1.0000 0.1412828257
H   H39       1.0  0.05110  0.59630  0.37340  1.0000 0.130471735
H   H40       1.0  0.22290  0.67770  0.62660  1.0000 0.130471735
H   H41       1.0  0.11700  0.69440  0.43940  1.0000 0.1412828257
H   H42       1.0  0.25500  0.67760  0.56060  1.0000 0.1412828257
H   H43       1.0  0.14890  0.62810  0.40440  1.0000 0.1412828257
H   H44       1.0  0.22370  0.74450  0.59560  1.0000 0.1412828257
H   H45       1.0  0.52640  0.00140  0.39880  1.0000 0.130471735
H   H46       1.0  0.60260  0.12760  0.60120  1.0000 0.130471735
H   H47       1.0  0.49070  0.06530  0.42960  1.0000 0.130471735
H   H48       1.0  0.63570  0.06110  0.57040  1.0000 0.130471735
H   H49       1.0  0.52960  0.06960  0.36940  1.0000 0.1412828257
H   H50       1.0  0.70020  0.16020  0.63060  1.0000 0.1412828257
H   H51       1.0  0.67770  0.05110  0.45480  1.0000 0.130471735
H   H52       1.0  0.59630  0.22290  0.54520  1.0000 0.130471735
H   H53       1.0  0.67760  0.11700  0.42260  1.0000 0.1412828257
H   H54       1.0  0.69440  0.25500  0.57740  1.0000 0.1412828257
H   H55       1.0  0.74450  0.14890  0.52080  1.0000 0.1412828257
H   H56       1.0  0.62810  0.22370  0.47920  1.0000 0.1412828257
H   H57       1.0  0.99860  0.39740  0.52500  1.0000 0.130471735
H   H58       1.0  0.87240  0.47360  0.47500  1.0000 0.130471735
H   H59       1.0  0.93470  0.36430  0.42540  1.0000 0.130471735
H   H60       1.0  0.93890  0.50930  0.57460  1.0000 0.130471735
H   H61       1.0  0.93040  0.29980  0.46000  1.0000 0.1412828257
H   H62       1.0  0.83980  0.47040  0.54000  1.0000 0.1412828257
H   H63       1.0  0.94890  0.40370  0.62660  1.0000 0.130471735
H   H64       1.0  0.77710  0.32230  0.37340  1.0000 0.130471735
H   H65       1.0  0.88300  0.30560  0.56060  1.0000 0.1412828257
H   H66       1.0  0.74500  0.32240  0.43940  1.0000 0.1412828257
H   H67       1.0  0.85110  0.37190  0.59560  1.0000 0.1412828257
H   H68       1.0  0.77630  0.25550  0.40440  1.0000 0.1412828257
H   H69       1.0  0.47360  0.99860  0.60120  1.0000 0.130471735
H   H70       1.0  0.39740  0.87240  0.39880  1.0000 0.130471735
H   H71       1.0  0.50930  0.93470  0.57040  1.0000 0.130471735
H   H72       1.0  0.36430  0.93890  0.42960  1.0000 0.130471735
H   H73       1.0  0.47040  0.93040  0.63060  1.0000 0.1412828257
H   H74       1.0  0.29980  0.83980  0.36940  1.0000 0.1412828257
H   H75       1.0  0.32230  0.94890  0.54520  1.0000 0.130471735
H   H76       1.0  0.40370  0.77710  0.45480  1.0000 0.130471735
H   H77       1.0  0.32240  0.88300  0.57740  1.0000 0.1412828257
H   H78       1.0  0.30560  0.74500  0.42260  1.0000 0.1412828257
H   H79       1.0  0.25550  0.85110  0.47920  1.0000 0.1412828257
H   H80       1.0  0.37190  0.77630  0.52080  1.0000 0.1412828257
C   C1        1.0  0.53730  0.37410  0.69580  1.0000 -0.0793512106
C   C2        1.0  0.67830  0.84150  0.30420  1.0000 -0.0793512106
C   C3        1.0  0.37410  0.67830  0.83680  1.0000 -0.0793512106
C   C4        1.0  0.84150  0.53730  0.16320  1.0000 -0.0793512106
C   C5        1.0  0.46270  0.62590  0.30420  1.0000 -0.0793512106
C   C6        1.0  0.32170  0.15850  0.69580  1.0000 -0.0793512106
C   C7        1.0  0.62590  0.32170  0.16320  1.0000 -0.0793512106
C   C8        1.0  0.15850  0.46270  0.83680  1.0000 -0.0793512106
C   C9        1.0  0.61680  0.37500  0.71480  1.0000 -0.0316010762
C   C10       1.0  0.66020  0.90200  0.28520  1.0000 -0.0316010762
C   C11       1.0  0.37500  0.66020  0.75820  1.0000 -0.0316010762
C   C12       1.0  0.90200  0.61680  0.24180  1.0000 -0.0316010762
C   C13       1.0  0.38320  0.62500  0.28520  1.0000 -0.0316010762
C   C14       1.0  0.33980  0.09800  0.71480  1.0000 -0.0316010762
C   C15       1.0  0.62500  0.33980  0.24180  1.0000 -0.0316010762
C   C16       1.0  0.09800  0.38320  0.75820  1.0000 -0.0316010762
C   C17       1.0  0.63350  0.44270  0.63020  1.0000 -0.0564878989
C   C18       1.0  0.81250  0.00330  0.36980  1.0000 -0.0564878989
C   C19       1.0  0.44270  0.81250  0.80920  1.0000 -0.0564878989
C   C20       1.0  0.00330  0.63350  0.19080  1.0000 -0.0564878989
C   C21       1.0  0.36650  0.55730  0.36980  1.0000 -0.0564878989
C   C22       1.0  0.18750  0.99670  0.63020  1.0000 -0.0564878989
C   C23       1.0  0.55730  0.18750  0.19080  1.0000 -0.0564878989
C   C24       1.0  0.99670  0.36650  0.80920  1.0000 -0.0564878989
C   C25       1.0  0.50510  0.40340  0.64110  1.0000 -0.0508562146
C   C26       1.0  0.76230  0.86400  0.35890  1.0000 -0.0508562146
C   C27       1.0  0.40340  0.76230  0.89830  1.0000 -0.0508562146
C   C28       1.0  0.86400  0.50510  0.10170  1.0000 -0.0508562146
C   C29       1.0  0.49490  0.59660  0.35890  1.0000 -0.0508562146
C   C30       1.0  0.23770  0.13600  0.64110  1.0000 -0.0508562146
C   C31       1.0  0.59660  0.23770  0.10170  1.0000 -0.0508562146
C   C32       1.0  0.13600  0.49490  0.89830  1.0000 -0.0508562146
C   C33       1.0  0.55400  0.43970  0.61150  1.0000 -0.0793512106
C   C34       1.0  0.82820  0.94250  0.38850  1.0000 -0.0793512106
C   C35       1.0  0.43970  0.82820  0.88570  1.0000 -0.0793512106
C   C36       1.0  0.94250  0.55400  0.11430  1.0000 -0.0793512106
C   C37       1.0  0.44600  0.56030  0.38850  1.0000 -0.0793512106
C   C38       1.0  0.17180  0.05750  0.61150  1.0000 -0.0793512106
C   C39       1.0  0.56030  0.17180  0.11430  1.0000 -0.0793512106
C   C40       1.0  0.05750  0.44600  0.88570  1.0000 -0.0793512106
C   C41       1.0  0.67430  0.06150  0.79240  1.0000 -0.0316010762
C   C42       1.0  0.26910  0.88190  0.20760  1.0000 -0.0316010762
C   C43       1.0  0.06150  0.26910  0.38720  1.0000 -0.0316010762
C   C44       1.0  0.88190  0.67430  0.61280  1.0000 -0.0316010762
C   C45       1.0  0.32570  0.93850  0.20760  1.0000 -0.0316010762
C   C46       1.0  0.73090  0.11810  0.79240  1.0000 -0.0316010762
C   C47       1.0  0.93850  0.73090  0.61280  1.0000 -0.0316010762
C   C48       1.0  0.11810  0.32570  0.38720  1.0000 -0.0316010762
C   C49       1.0  0.66560  0.41090  0.68250  1.0000 -0.1015442234
C   C50       1.0  0.72840  0.98310  0.31750  1.0000 -0.1015442234
C   C51       1.0  0.41090  0.72840  0.74530  1.0000 -0.1015442234
C   C52       1.0  0.98310  0.66560  0.25470  1.0000 -0.1015442234
C   C53       1.0  0.33440  0.58910  0.31750  1.0000 -0.1015442234
C   C54       1.0  0.27160  0.01690  0.68250  1.0000 -0.1015442234
C   C55       1.0  0.58910  0.27160  0.25470  1.0000 -0.1015442234
C   C56       1.0  0.01690  0.33440  0.74530  1.0000 -0.1015442234
C   C57       1.0  0.65220  0.34000  0.77120  1.0000 0.5870094535
C   C58       1.0  0.56880  0.88100  0.22880  1.0000 0.5870094535
C   C59       1.0  0.34000  0.56880  0.68780  1.0000 0.5870094535
C   C60       1.0  0.88100  0.65220  0.31220  1.0000 0.5870094535
C   C61       1.0  0.34780  0.66000  0.22880  1.0000 0.5870094535
C   C62       1.0  0.43120  0.11900  0.77120  1.0000 0.5870094535
C   C63       1.0  0.66000  0.43120  0.31220  1.0000 0.5870094535
C   C64       1.0  0.11900  0.34780  0.68780  1.0000 0.5870094535
C   C65       1.0  0.68350  0.47770  0.59700  1.0000 0.548577079
C   C66       1.0  0.88070  0.08650  0.40300  1.0000 0.548577079
C   C67       1.0  0.47770  0.88070  0.79420  1.0000 0.548577079
C   C68       1.0  0.08650  0.68350  0.20580  1.0000 0.548577079
C   C69       1.0  0.31650  0.52230  0.40300  1.0000 0.548577079
C   C70       1.0  0.11930  0.91350  0.59700  1.0000 0.548577079
C   C71       1.0  0.52230  0.11930  0.20580  1.0000 0.548577079
C   C72       1.0  0.91350  0.31650  0.79420  1.0000 0.548577079
C   C73       1.0  0.42300  0.40550  0.61930  1.0000 0.6016798107
C   C74       1.0  0.78620  0.80370  0.38070  1.0000 0.6016798107
C   C75       1.0  0.40550  0.78620  0.98250  1.0000 0.6016798107
C   C76       1.0  0.80370  0.42300  0.01750  1.0000 0.6016798107
C   C77       1.0  0.57700  0.59450  0.38070  1.0000 0.6016798107
C   C78       1.0  0.21380  0.19630  0.61930  1.0000 0.6016798107
C   C79       1.0  0.59450  0.21380  0.01750  1.0000 0.6016798107
C   C80       1.0  0.19630  0.57700  0.98250  1.0000 0.6016798107
C   C81       1.0  0.05890  0.64220  0.52470  1.0000 -0.3809680852
C   C82       1.0  0.11750  0.53420  0.47530  1.0000 -0.3809680852
C   C83       1.0  0.10880  0.63680  0.42220  1.0000 -0.3680143492
C   C84       1.0  0.21460  0.68660  0.57780  1.0000 -0.3680143492
C   C85       1.0  0.53420  0.05890  0.41670  1.0000 -0.3809680852
C   C86       1.0  0.64220  0.11750  0.58330  1.0000 -0.3809680852
C   C87       1.0  0.68660  0.10880  0.47200  1.0000 -0.3680143492
C   C88       1.0  0.63680  0.21460  0.52800  1.0000 -0.3680143492
C   C89       1.0  0.94110  0.35780  0.47530  1.0000 -0.3809680852
C   C90       1.0  0.88250  0.46580  0.52470  1.0000 -0.3809680852
C   C91       1.0  0.89120  0.36320  0.57780  1.0000 -0.3680143492
C   C92       1.0  0.78540  0.31340  0.42220  1.0000 -0.3680143492
C   C93       1.0  0.46580  0.94110  0.58330  1.0000 -0.3809680852
C   C94       1.0  0.35780  0.88250  0.41670  1.0000 -0.3809680852
C   C95       1.0  0.31340  0.89120  0.52800  1.0000 -0.3680143492
C   C96       1.0  0.36320  0.78540  0.47200  1.0000 -0.3680143492
N   N1        1.0  0.66620  0.18020  0.84640  1.0000 -0.1422096255
N   N2        1.0  0.33380  0.81980  0.15360  1.0000 -0.1422096255
N   N3        1.0  0.18020  0.33380  0.51400  1.0000 -0.1422096255
N   N4        1.0  0.81980  0.66620  0.48600  1.0000 -0.1422096255
N   N5        1.0  0.63370  0.09590  0.82580  1.0000 -0.1974377303
N   N6        1.0  0.27010  0.80790  0.17420  1.0000 -0.1974377303
N   N7        1.0  0.09590  0.27010  0.46220  1.0000 -0.1974377303
N   N8        1.0  0.80790  0.63370  0.53780  1.0000 -0.1974377303
N   N9        1.0  0.36630  0.90410  0.17420  1.0000 -0.1974377303
N   N10       1.0  0.72990  0.19210  0.82580  1.0000 -0.1974377303
N   N11       1.0  0.90410  0.72990  0.53780  1.0000 -0.1974377303
N   N12       1.0  0.19210  0.36630  0.46220  1.0000 -0.1974377303
N   N13       1.0  0.12360  0.62360  0.50000  1.0000 0.3211765451
N   N14       1.0  0.62360  0.12360  0.50000  1.0000 0.3211765451
N   N15       1.0  0.87640  0.37640  0.50000  1.0000 0.3211765451
N   N16       1.0  0.37640  0.87640  0.50000  1.0000 0.3211765451
O   O1        1.0  0.61480  0.31260  0.80380  1.0000 -0.5155860396
O   O2        1.0  0.50880  0.81100  0.19620  1.0000 -0.512798753
O   O3        1.0  0.31260  0.50880  0.69780  1.0000 -0.5155860396
O   O4        1.0  0.81100  0.61480  0.30220  1.0000 -0.5155860396
O   O5        1.0  0.38520  0.68740  0.19620  1.0000 -0.5155860396
O   O6        1.0  0.49120  0.18900  0.80380  1.0000 -0.512798753
O   O7        1.0  0.68740  0.49120  0.30220  1.0000 -0.5155860396
O   O8        1.0  0.18900  0.38520  0.69780  1.0000 -0.5155860396
O   O9        1.0  0.65230  0.51050  0.55380  1.0000 -0.512798753
O   O10       1.0  0.95670  0.09850  0.44620  1.0000 -0.512798753
O   O11       1.0  0.51050  0.95670  0.85820  1.0000 -0.512798753
O   O12       1.0  0.09850  0.65230  0.14180  1.0000 -0.512798753
O   O13       1.0  0.34770  0.48950  0.44620  1.0000 -0.512798753
O   O14       1.0  0.04330  0.90150  0.55380  1.0000 -0.512798753
O   O15       1.0  0.48950  0.04330  0.14180  1.0000 -0.512798753
O   O16       1.0  0.90150  0.34770  0.85820  1.0000 -0.512798753
O   O17       1.0  0.38530  0.39120  0.65810  1.0000 -0.4964636477
O   O18       1.0  0.73310  0.72720  0.34190  1.0000 -0.4964636477
O   O19       1.0  0.39120  0.73310  0.00590  1.0000 -0.4964636477
O   O20       1.0  0.72720  0.38530  0.99410  1.0000 -0.4964636477
O   O21       1.0  0.61470  0.60880  0.34190  1.0000 -0.4964636477
O   O22       1.0  0.26690  0.27280  0.65810  1.0000 -0.4964636477
O   O23       1.0  0.60880  0.26690  0.99410  1.0000 -0.4964636477
O   O24       1.0  0.27280  0.61470  0.00590  1.0000 -0.4964636477
O   O25       1.0  0.38950  0.41370  0.55420  1.0000 -0.525605044
O   O26       1.0  0.85950  0.83530  0.44580  1.0000 -0.525605044
O   O27       1.0  0.41370  0.85950  0.02420  1.0000 -0.525605044
O   O28       1.0  0.83530  0.38950  0.97580  1.0000 -0.525605044
O   O29       1.0  0.61050  0.58630  0.44580  1.0000 -0.525605044
O   O30       1.0  0.14050  0.16470  0.55420  1.0000 -0.525605044
O   O31       1.0  0.58630  0.14050  0.97580  1.0000 -0.525605044
O   O32       1.0  0.16470  0.61050  0.02420  1.0000 -0.525605044
O   O33       1.0  0.72470  0.34270  0.78240  1.0000 -0.5597459289
O   O34       1.0  0.56030  0.94230  0.21760  1.0000 -0.5597459289
O   O35       1.0  0.34270  0.56030  0.61800  1.0000 -0.5597459289
O   O36       1.0  0.94230  0.72470  0.38200  1.0000 -0.5597459289
O   O37       1.0  0.27530  0.65730  0.21760  1.0000 -0.5597459289
O   O38       1.0  0.43970  0.05770  0.78240  1.0000 -0.5597459289
O   O39       1.0  0.65730  0.43970  0.38200  1.0000 -0.5597459289
O   O40       1.0  0.05770  0.27530  0.61800  1.0000 -0.5597459289
O   O41       1.0  0.74950  0.47613  0.60663  1.0000 -0.5155860396
O   O42       1.0  0.86950  0.14287  0.39337  1.0000 -0.5155860396
O   O43       1.0  0.47613  0.86950  0.72663  1.0000 -0.5155860396
O   O44       1.0  0.14287  0.74950  0.27337  1.0000 -0.5155860396
O   O45       1.0  0.25050  0.52387  0.39337  1.0000 -0.5155860396
O   O46       1.0  0.13050  0.85713  0.60663  1.0000 -0.5155860396
O   O47       1.0  0.52387  0.13050  0.27337  1.0000 -0.512798753
O   O48       1.0  0.85713  0.25050  0.72663  1.0000 -0.5155860396
