# DDEC6 charges by PACMAN v1.1 (https://github.com/mtap-research/PACMAN-charge/)
data_2012[MnNaCu][nan]3[ION]2
_chemical_formula_sum              "Na8 Mn16 Cu24 H168 C312 N48 O152"
_cell_length_a       36.332
_cell_length_b       36.332
_cell_length_c       15.208
_cell_angle_alpha    90
_cell_angle_beta     90
_cell_angle_gamma    90

_symmetry_space_group_name_H-M    "P 1"
_symmetry_Int_Tables_number       1

loop_
  _symmetry_equiv_pos_as_xyz
  'x, y, z'

loop_
  _atom_site_type_symbol
  _atom_site_label
  _atom_site_symmetry_multiplicity
  _atom_site_fract_x
  _atom_site_fract_y
  _atom_site_fract_z
  _atom_site_occupancy
  _atom_site_charge
Na  Na1       1.0  0.27250  0.27250  0.43010  1.0000 0.5717984398
Na  Na2       1.0  0.72750  0.72750  0.43010  1.0000 0.5717984398
Na  Na3       1.0  0.72750  0.27250  0.43010  1.0000 0.5717984398
Na  Na4       1.0  0.27250  0.72750  0.43010  1.0000 0.5717984398
Na  Na5       1.0  0.72750  0.27250  0.56990  1.0000 0.5717984398
Na  Na6       1.0  0.27250  0.72750  0.56990  1.0000 0.5717984398
Na  Na7       1.0  0.27250  0.27250  0.56990  1.0000 0.5717984398
Na  Na8       1.0  0.72750  0.72750  0.56990  1.0000 0.5717984398
Mn  Mn1       1.0  0.14727  0.35212  0.24824  1.0000 1.0035458846
Mn  Mn2       1.0  0.85273  0.64788  0.24824  1.0000 1.0056036053
Mn  Mn3       1.0  0.64788  0.14727  0.24824  1.0000 1.0035458846
Mn  Mn4       1.0  0.35212  0.85273  0.24824  1.0000 1.0035458846
Mn  Mn5       1.0  0.85273  0.35212  0.75176  1.0000 1.0056036053
Mn  Mn6       1.0  0.14727  0.64788  0.75176  1.0000 1.0035458846
Mn  Mn7       1.0  0.35212  0.14727  0.75176  1.0000 1.0035458846
Mn  Mn8       1.0  0.64788  0.85273  0.75176  1.0000 1.0056036053
Mn  Mn9       1.0  0.85273  0.64788  0.75176  1.0000 1.0056036053
Mn  Mn10      1.0  0.14727  0.35212  0.75176  1.0000 1.0035458846
Mn  Mn11      1.0  0.35212  0.85273  0.75176  1.0000 1.0035458846
Mn  Mn12      1.0  0.64788  0.14727  0.75176  1.0000 1.0056036053
Mn  Mn13      1.0  0.14727  0.64788  0.24824  1.0000 1.0035458846
Mn  Mn14      1.0  0.85273  0.35212  0.24824  1.0000 1.0056036053
Mn  Mn15      1.0  0.64788  0.85273  0.24824  1.0000 1.0056036053
Mn  Mn16      1.0  0.35212  0.14727  0.24824  1.0000 1.0035458846
Cu  Cu1       1.0  0.00000  0.33259  0.27366  1.0000 0.6473585201
Cu  Cu2       1.0  0.00000  0.66741  0.27366  1.0000 0.6473585201
Cu  Cu3       1.0  0.66741  0.00000  0.27366  1.0000 0.6473585201
Cu  Cu4       1.0  0.33259  0.00000  0.27366  1.0000 0.6473585201
Cu  Cu5       1.0  0.00000  0.33259  0.72634  1.0000 0.6473585201
Cu  Cu6       1.0  0.00000  0.66741  0.72634  1.0000 0.6473585201
Cu  Cu7       1.0  0.33259  0.00000  0.72634  1.0000 0.6473585201
Cu  Cu8       1.0  0.66741  0.00000  0.72634  1.0000 0.6473585201
Cu  Cu9       1.0  0.15185  0.50000  0.26938  1.0000 0.6968360652
Cu  Cu10      1.0  0.84815  0.50000  0.26938  1.0000 0.6968360652
Cu  Cu11      1.0  0.50000  0.15185  0.26938  1.0000 0.6968360652
Cu  Cu12      1.0  0.50000  0.84815  0.26938  1.0000 0.6968360652
Cu  Cu13      1.0  0.84815  0.50000  0.73062  1.0000 0.6968360652
Cu  Cu14      1.0  0.15185  0.50000  0.73062  1.0000 0.6968360652
Cu  Cu15      1.0  0.50000  0.15185  0.73062  1.0000 0.6968360652
Cu  Cu16      1.0  0.50000  0.84815  0.73062  1.0000 0.6968360652
Cu  Cu17      1.0  0.24230  0.24230  0.23092  1.0000 0.6436377674
Cu  Cu18      1.0  0.75770  0.75770  0.23092  1.0000 0.6473585201
Cu  Cu19      1.0  0.75770  0.24230  0.23092  1.0000 0.6436377674
Cu  Cu20      1.0  0.24230  0.75770  0.23092  1.0000 0.6436377674
Cu  Cu21      1.0  0.75770  0.24230  0.76908  1.0000 0.6473585201
Cu  Cu22      1.0  0.24230  0.75770  0.76908  1.0000 0.6473585201
Cu  Cu23      1.0  0.24230  0.24230  0.76908  1.0000 0.6473585201
Cu  Cu24      1.0  0.75770  0.75770  0.76908  1.0000 0.6473585201
H   H1        1.0  0.07380  0.45050  0.28650  1.0000 0.15059242
H   H2        1.0  0.03930  0.46870  0.33090  1.0000 0.1404210717
H   H3        1.0  0.04460  0.42590  0.33460  1.0000 0.156395938
H   H4        1.0  0.05070  0.25440  0.28670  1.0000 0.15059242
H   H5        1.0  0.03210  0.21990  0.32990  1.0000 0.1404210717
H   H6        1.0  0.07490  0.22500  0.33510  1.0000 0.15059242
H   H7        1.0  0.12100  0.19410  0.14890  1.0000 0.1297019399
H   H8        1.0  0.13400  0.22840  0.20300  1.0000 0.156395938
H   H9        1.0  0.16030  0.19460  0.19100  1.0000 0.1297019399
H   H10       1.0  0.92620  0.54950  0.28650  1.0000 0.15059242
H   H11       1.0  0.96070  0.53130  0.33090  1.0000 0.1404210717
H   H12       1.0  0.95540  0.57410  0.33460  1.0000 0.156395938
H   H13       1.0  0.94930  0.74560  0.28670  1.0000 0.15059242
H   H14       1.0  0.96790  0.78010  0.32990  1.0000 0.1404210717
H   H15       1.0  0.92510  0.77500  0.33510  1.0000 0.15059242
H   H16       1.0  0.87900  0.80590  0.14890  1.0000 0.1297019399
H   H17       1.0  0.86600  0.77160  0.20300  1.0000 0.156395938
H   H18       1.0  0.83970  0.80540  0.19100  1.0000 0.1297019399
H   H19       1.0  0.54950  0.07380  0.28650  1.0000 0.15059242
H   H20       1.0  0.53130  0.03930  0.33090  1.0000 0.1404210717
H   H21       1.0  0.57410  0.04460  0.33460  1.0000 0.156395938
H   H22       1.0  0.74560  0.05070  0.28670  1.0000 0.15059242
H   H23       1.0  0.78010  0.03210  0.32990  1.0000 0.1404210717
H   H24       1.0  0.77500  0.07490  0.33510  1.0000 0.15059242
H   H25       1.0  0.80590  0.12100  0.14890  1.0000 0.1297019399
H   H26       1.0  0.77160  0.13400  0.20300  1.0000 0.156395938
H   H27       1.0  0.80540  0.16030  0.19100  1.0000 0.1297019399
H   H28       1.0  0.45050  0.92620  0.28650  1.0000 0.15059242
H   H29       1.0  0.46870  0.96070  0.33090  1.0000 0.1404210717
H   H30       1.0  0.42590  0.95540  0.33460  1.0000 0.156395938
H   H31       1.0  0.25440  0.94930  0.28670  1.0000 0.15059242
H   H32       1.0  0.21990  0.96790  0.32990  1.0000 0.1404210717
H   H33       1.0  0.22500  0.92510  0.33510  1.0000 0.15059242
H   H34       1.0  0.19410  0.87900  0.14890  1.0000 0.1297019399
H   H35       1.0  0.22840  0.86600  0.20300  1.0000 0.156395938
H   H36       1.0  0.19460  0.83970  0.19100  1.0000 0.1297019399
H   H37       1.0  0.92620  0.45050  0.71350  1.0000 0.15059242
H   H38       1.0  0.96070  0.46870  0.66910  1.0000 0.1404210717
H   H39       1.0  0.95540  0.42590  0.66540  1.0000 0.156395938
H   H40       1.0  0.94930  0.25440  0.71330  1.0000 0.15059242
H   H41       1.0  0.96790  0.21990  0.67010  1.0000 0.1404210717
H   H42       1.0  0.92510  0.22500  0.66490  1.0000 0.15059242
H   H43       1.0  0.87900  0.19410  0.85110  1.0000 0.1297019399
H   H44       1.0  0.86600  0.22840  0.79700  1.0000 0.156395938
H   H45       1.0  0.83970  0.19460  0.80900  1.0000 0.1297019399
H   H46       1.0  0.07380  0.54950  0.71350  1.0000 0.15059242
H   H47       1.0  0.03930  0.53130  0.66910  1.0000 0.1404210717
H   H48       1.0  0.04460  0.57410  0.66540  1.0000 0.156395938
H   H49       1.0  0.05070  0.74560  0.71330  1.0000 0.15059242
H   H50       1.0  0.03210  0.78010  0.67010  1.0000 0.1404210717
H   H51       1.0  0.07490  0.77500  0.66490  1.0000 0.15059242
H   H52       1.0  0.12100  0.80590  0.85110  1.0000 0.1297019399
H   H53       1.0  0.13400  0.77160  0.79700  1.0000 0.156395938
H   H54       1.0  0.16030  0.80540  0.80900  1.0000 0.1297019399
H   H55       1.0  0.45050  0.07380  0.71350  1.0000 0.15059242
H   H56       1.0  0.46870  0.03930  0.66910  1.0000 0.1404210717
H   H57       1.0  0.42590  0.04460  0.66540  1.0000 0.156395938
H   H58       1.0  0.25440  0.05070  0.71330  1.0000 0.15059242
H   H59       1.0  0.21990  0.03210  0.67010  1.0000 0.1404210717
H   H60       1.0  0.22500  0.07490  0.66490  1.0000 0.15059242
H   H61       1.0  0.19410  0.12100  0.85110  1.0000 0.1297019399
H   H62       1.0  0.22840  0.13400  0.79700  1.0000 0.156395938
H   H63       1.0  0.19460  0.16030  0.80900  1.0000 0.1297019399
H   H64       1.0  0.54950  0.92620  0.71350  1.0000 0.15059242
H   H65       1.0  0.53130  0.96070  0.66910  1.0000 0.1404210717
H   H66       1.0  0.57410  0.95540  0.66540  1.0000 0.156395938
H   H67       1.0  0.74560  0.94930  0.71330  1.0000 0.15059242
H   H68       1.0  0.78010  0.96790  0.67010  1.0000 0.1404210717
H   H69       1.0  0.77500  0.92510  0.66490  1.0000 0.15059242
H   H70       1.0  0.80590  0.87900  0.85110  1.0000 0.1297019399
H   H71       1.0  0.77160  0.86600  0.79700  1.0000 0.156395938
H   H72       1.0  0.80540  0.83970  0.80900  1.0000 0.1297019399
H   H73       1.0  0.92620  0.54950  0.71350  1.0000 0.15059242
H   H74       1.0  0.96070  0.53130  0.66910  1.0000 0.1404210717
H   H75       1.0  0.95540  0.57410  0.66540  1.0000 0.156395938
H   H76       1.0  0.94930  0.74560  0.71330  1.0000 0.15059242
H   H77       1.0  0.96790  0.78010  0.67010  1.0000 0.1404210717
H   H78       1.0  0.92510  0.77500  0.66490  1.0000 0.15059242
H   H79       1.0  0.87900  0.80590  0.85110  1.0000 0.1297019399
H   H80       1.0  0.86600  0.77160  0.79700  1.0000 0.156395938
H   H81       1.0  0.83970  0.80540  0.80900  1.0000 0.1297019399
H   H82       1.0  0.07380  0.45050  0.71350  1.0000 0.15059242
H   H83       1.0  0.03930  0.46870  0.66910  1.0000 0.1404210717
H   H84       1.0  0.04460  0.42590  0.66540  1.0000 0.156395938
H   H85       1.0  0.05070  0.25440  0.71330  1.0000 0.15059242
H   H86       1.0  0.03210  0.21990  0.67010  1.0000 0.1404210717
H   H87       1.0  0.07490  0.22500  0.66490  1.0000 0.15059242
H   H88       1.0  0.12100  0.19410  0.85110  1.0000 0.1297019399
H   H89       1.0  0.13400  0.22840  0.79700  1.0000 0.156395938
H   H90       1.0  0.16030  0.19460  0.80900  1.0000 0.1297019399
H   H91       1.0  0.45050  0.92620  0.71350  1.0000 0.15059242
H   H92       1.0  0.46870  0.96070  0.66910  1.0000 0.1404210717
H   H93       1.0  0.42590  0.95540  0.66540  1.0000 0.156395938
H   H94       1.0  0.25440  0.94930  0.71330  1.0000 0.15059242
H   H95       1.0  0.21990  0.96790  0.67010  1.0000 0.1404210717
H   H96       1.0  0.22500  0.92510  0.66490  1.0000 0.15059242
H   H97       1.0  0.19410  0.87900  0.85110  1.0000 0.1297019399
H   H98       1.0  0.22840  0.86600  0.79700  1.0000 0.156395938
H   H99       1.0  0.19460  0.83970  0.80900  1.0000 0.1297019399
H   H100      1.0  0.54950  0.07380  0.71350  1.0000 0.15059242
H   H101      1.0  0.53130  0.03930  0.66910  1.0000 0.1404210717
H   H102      1.0  0.57410  0.04460  0.66540  1.0000 0.156395938
H   H103      1.0  0.74560  0.05070  0.71330  1.0000 0.15059242
H   H104      1.0  0.78010  0.03210  0.67010  1.0000 0.1404210717
H   H105      1.0  0.77500  0.07490  0.66490  1.0000 0.15059242
H   H106      1.0  0.80590  0.12100  0.85110  1.0000 0.1297019399
H   H107      1.0  0.77160  0.13400  0.79700  1.0000 0.156395938
H   H108      1.0  0.80540  0.16030  0.80900  1.0000 0.1297019399
H   H109      1.0  0.07380  0.54950  0.28650  1.0000 0.15059242
H   H110      1.0  0.03930  0.53130  0.33090  1.0000 0.1404210717
H   H111      1.0  0.04460  0.57410  0.33460  1.0000 0.156395938
H   H112      1.0  0.05070  0.74560  0.28670  1.0000 0.15059242
H   H113      1.0  0.03210  0.78010  0.32990  1.0000 0.1404210717
H   H114      1.0  0.07490  0.77500  0.33510  1.0000 0.15059242
H   H115      1.0  0.12100  0.80590  0.14890  1.0000 0.1297019399
H   H116      1.0  0.13400  0.77160  0.20300  1.0000 0.156395938
H   H117      1.0  0.16030  0.80540  0.19100  1.0000 0.1297019399
H   H118      1.0  0.92620  0.45050  0.28650  1.0000 0.15059242
H   H119      1.0  0.96070  0.46870  0.33090  1.0000 0.1404210717
H   H120      1.0  0.95540  0.42590  0.33460  1.0000 0.156395938
H   H121      1.0  0.94930  0.25440  0.28670  1.0000 0.15059242
H   H122      1.0  0.96790  0.21990  0.32990  1.0000 0.1404210717
H   H123      1.0  0.92510  0.22500  0.33510  1.0000 0.15059242
H   H124      1.0  0.87900  0.19410  0.14890  1.0000 0.1297019399
H   H125      1.0  0.86600  0.22840  0.20300  1.0000 0.156395938
H   H126      1.0  0.83970  0.19460  0.19100  1.0000 0.1297019399
H   H127      1.0  0.54950  0.92620  0.28650  1.0000 0.15059242
H   H128      1.0  0.53130  0.96070  0.33090  1.0000 0.1404210717
H   H129      1.0  0.57410  0.95540  0.33460  1.0000 0.156395938
H   H130      1.0  0.74560  0.94930  0.28670  1.0000 0.15059242
H   H131      1.0  0.78010  0.96790  0.32990  1.0000 0.1404210717
H   H132      1.0  0.77500  0.92510  0.33510  1.0000 0.15059242
H   H133      1.0  0.80590  0.87900  0.14890  1.0000 0.1297019399
H   H134      1.0  0.77160  0.86600  0.20300  1.0000 0.156395938
H   H135      1.0  0.80540  0.83970  0.19100  1.0000 0.1297019399
H   H136      1.0  0.45050  0.07380  0.28650  1.0000 0.15059242
H   H137      1.0  0.46870  0.03930  0.33090  1.0000 0.1404210717
H   H138      1.0  0.42590  0.04460  0.33460  1.0000 0.156395938
H   H139      1.0  0.25440  0.05070  0.28670  1.0000 0.15059242
H   H140      1.0  0.21990  0.03210  0.32990  1.0000 0.1404210717
H   H141      1.0  0.22500  0.07490  0.33510  1.0000 0.15059242
H   H142      1.0  0.19410  0.12100  0.14890  1.0000 0.1297019399
H   H143      1.0  0.22840  0.13400  0.20300  1.0000 0.156395938
H   H144      1.0  0.19460  0.16030  0.19100  1.0000 0.1297019399
H   H145      1.0  0.05350  0.21450  0.50000  1.0000 0.1297019399
H   H146      1.0  0.03440  0.44910  0.50000  1.0000 0.1297019399
H   H147      1.0  0.94650  0.78550  0.50000  1.0000 0.1297019399
H   H148      1.0  0.96560  0.55090  0.50000  1.0000 0.1297019399
H   H149      1.0  0.78550  0.05350  0.50000  1.0000 0.1297019399
H   H150      1.0  0.55090  0.03440  0.50000  1.0000 0.1297019399
H   H151      1.0  0.21450  0.94650  0.50000  1.0000 0.1297019399
H   H152      1.0  0.44910  0.96560  0.50000  1.0000 0.1297019399
H   H153      1.0  0.94650  0.21450  0.50000  1.0000 0.1297019399
H   H154      1.0  0.96560  0.44910  0.50000  1.0000 0.1297019399
H   H155      1.0  0.05350  0.78550  0.50000  1.0000 0.1297019399
H   H156      1.0  0.03440  0.55090  0.50000  1.0000 0.1297019399
H   H157      1.0  0.21450  0.05350  0.50000  1.0000 0.1297019399
H   H158      1.0  0.44910  0.03440  0.50000  1.0000 0.1297019399
H   H159      1.0  0.78550  0.94650  0.50000  1.0000 0.1297019399
H   H160      1.0  0.55090  0.96560  0.50000  1.0000 0.1297019399
H   H161      1.0  0.12430  0.19360  0.00000  1.0000 0.1297019399
H   H162      1.0  0.87570  0.80640  0.00000  1.0000 0.1297019399
H   H163      1.0  0.80640  0.12430  0.00000  1.0000 0.1297019399
H   H164      1.0  0.19360  0.87570  0.00000  1.0000 0.1297019399
H   H165      1.0  0.87570  0.19360  0.00000  1.0000 0.1297019399
H   H166      1.0  0.12430  0.80640  0.00000  1.0000 0.1297019399
H   H167      1.0  0.19360  0.12430  0.00000  1.0000 0.1297019399
H   H168      1.0  0.80640  0.87570  0.00000  1.0000 0.1297019399
C   C1        1.0  0.06980  0.35210  0.22260  1.0000 0.4697784033
C   C2        1.0  0.07370  0.32680  0.30160  1.0000 0.3488109426
C   C3        1.0  0.14570  0.42570  0.30380  1.0000 0.3953334332
C   C4        1.0  0.16320  0.43050  0.21350  1.0000 0.4837295708
C   C5        1.0  0.20600  0.30490  0.27970  1.0000 0.491855364
C   C6        1.0  0.18760  0.29170  0.19230  1.0000 0.369537275
C   C7        1.0  0.04560  0.29730  0.42180  1.0000 0.1297019399
C   C8        1.0  0.04730  0.25850  0.42010  1.0000 0.0986532473
C   C9        1.0  0.11610  0.45460  0.42240  1.0000 0.1297019399
C   C10       1.0  0.18500  0.24900  0.07840  1.0000 0.0986532473
C   C11       1.0  0.15720  0.22660  0.07930  1.0000 0.0853635303
C   C12       1.0  0.07810  0.45310  0.41940  1.0000 0.0986532473
C   C13       1.0  0.05710  0.44920  0.33530  1.0000 -0.4212181561
C   C14       1.0  0.05170  0.23760  0.33530  1.0000 -0.4127193683
C   C15       1.0  0.14170  0.20930  0.16340  1.0000 -0.3985619734
C   C16       1.0  0.93020  0.64790  0.22260  1.0000 0.4697784033
C   C17       1.0  0.92630  0.67320  0.30160  1.0000 0.3488109426
C   C18       1.0  0.85430  0.57430  0.30380  1.0000 0.3953334332
C   C19       1.0  0.83680  0.56950  0.21350  1.0000 0.4837295708
C   C20       1.0  0.79400  0.69510  0.27970  1.0000 0.491855364
C   C21       1.0  0.81240  0.70830  0.19230  1.0000 0.369537275
C   C22       1.0  0.95440  0.70270  0.42180  1.0000 0.1297019399
C   C23       1.0  0.95270  0.74150  0.42010  1.0000 0.0986532473
C   C24       1.0  0.88390  0.54540  0.42240  1.0000 0.1297019399
C   C25       1.0  0.81500  0.75100  0.07840  1.0000 0.0986532473
C   C26       1.0  0.84280  0.77340  0.07930  1.0000 0.0853635303
C   C27       1.0  0.92190  0.54690  0.41940  1.0000 0.0986532473
C   C28       1.0  0.94290  0.55080  0.33530  1.0000 -0.4212181561
C   C29       1.0  0.94830  0.76240  0.33530  1.0000 -0.4127193683
C   C30       1.0  0.85830  0.79070  0.16340  1.0000 -0.3985619734
C   C31       1.0  0.64790  0.06980  0.22260  1.0000 0.4697784033
C   C32       1.0  0.67320  0.07370  0.30160  1.0000 0.3488109426
C   C33       1.0  0.57430  0.14570  0.30380  1.0000 0.3953334332
C   C34       1.0  0.56950  0.16320  0.21350  1.0000 0.4837295708
C   C35       1.0  0.69510  0.20600  0.27970  1.0000 0.491855364
C   C36       1.0  0.70830  0.18760  0.19230  1.0000 0.369537275
C   C37       1.0  0.70270  0.04560  0.42180  1.0000 0.1297019399
C   C38       1.0  0.74150  0.04730  0.42010  1.0000 0.0986532473
C   C39       1.0  0.54540  0.11610  0.42240  1.0000 0.1297019399
C   C40       1.0  0.75100  0.18500  0.07840  1.0000 0.0986532473
C   C41       1.0  0.77340  0.15720  0.07930  1.0000 0.0853635303
C   C42       1.0  0.54690  0.07810  0.41940  1.0000 0.0986532473
C   C43       1.0  0.55080  0.05710  0.33530  1.0000 -0.4212181561
C   C44       1.0  0.76240  0.05170  0.33530  1.0000 -0.4127193683
C   C45       1.0  0.79070  0.14170  0.16340  1.0000 -0.3985619734
C   C46       1.0  0.35210  0.93020  0.22260  1.0000 0.4697784033
C   C47       1.0  0.32680  0.92630  0.30160  1.0000 0.3488109426
C   C48       1.0  0.42570  0.85430  0.30380  1.0000 0.3953334332
C   C49       1.0  0.43050  0.83680  0.21350  1.0000 0.4837295708
C   C50       1.0  0.30490  0.79400  0.27970  1.0000 0.491855364
C   C51       1.0  0.29170  0.81240  0.19230  1.0000 0.369537275
C   C52       1.0  0.29730  0.95440  0.42180  1.0000 0.1297019399
C   C53       1.0  0.25850  0.95270  0.42010  1.0000 0.0986532473
C   C54       1.0  0.45460  0.88390  0.42240  1.0000 0.1297019399
C   C55       1.0  0.24900  0.81500  0.07840  1.0000 0.0986532473
C   C56       1.0  0.22660  0.84280  0.07930  1.0000 0.0853635303
C   C57       1.0  0.45310  0.92190  0.41940  1.0000 0.0986532473
C   C58       1.0  0.44920  0.94290  0.33530  1.0000 -0.4212181561
C   C59       1.0  0.23760  0.94830  0.33530  1.0000 -0.4127193683
C   C60       1.0  0.20930  0.85830  0.16340  1.0000 -0.3985619734
C   C61       1.0  0.93020  0.35210  0.77740  1.0000 0.4697784033
C   C62       1.0  0.92630  0.32680  0.69840  1.0000 0.3488109426
C   C63       1.0  0.85430  0.42570  0.69620  1.0000 0.3953334332
C   C64       1.0  0.83680  0.43050  0.78650  1.0000 0.4837295708
C   C65       1.0  0.79400  0.30490  0.72030  1.0000 0.491855364
C   C66       1.0  0.81240  0.29170  0.80770  1.0000 0.369537275
C   C67       1.0  0.95440  0.29730  0.57820  1.0000 0.1297019399
C   C68       1.0  0.95270  0.25850  0.57990  1.0000 0.0986532473
C   C69       1.0  0.88390  0.45460  0.57760  1.0000 0.1297019399
C   C70       1.0  0.81500  0.24900  0.92160  1.0000 0.0986532473
C   C71       1.0  0.84280  0.22660  0.92070  1.0000 0.0853635303
C   C72       1.0  0.92190  0.45310  0.58060  1.0000 0.0986532473
C   C73       1.0  0.94290  0.44920  0.66470  1.0000 -0.4212181561
C   C74       1.0  0.94830  0.23760  0.66470  1.0000 -0.4127193683
C   C75       1.0  0.85830  0.20930  0.83660  1.0000 -0.3985619734
C   C76       1.0  0.06980  0.64790  0.77740  1.0000 0.4697784033
C   C77       1.0  0.07370  0.67320  0.69840  1.0000 0.3488109426
C   C78       1.0  0.14570  0.57430  0.69620  1.0000 0.3953334332
C   C79       1.0  0.16320  0.56950  0.78650  1.0000 0.4837295708
C   C80       1.0  0.20600  0.69510  0.72030  1.0000 0.491855364
C   C81       1.0  0.18760  0.70830  0.80770  1.0000 0.369537275
C   C82       1.0  0.04560  0.70270  0.57820  1.0000 0.1297019399
C   C83       1.0  0.04730  0.74150  0.57990  1.0000 0.0986532473
C   C84       1.0  0.11610  0.54540  0.57760  1.0000 0.1297019399
C   C85       1.0  0.18500  0.75100  0.92160  1.0000 0.0986532473
C   C86       1.0  0.15720  0.77340  0.92070  1.0000 0.0853635303
C   C87       1.0  0.07810  0.54690  0.58060  1.0000 0.0986532473
C   C88       1.0  0.05710  0.55080  0.66470  1.0000 -0.4212181561
C   C89       1.0  0.05170  0.76240  0.66470  1.0000 -0.4127193683
C   C90       1.0  0.14170  0.79070  0.83660  1.0000 -0.3985619734
C   C91       1.0  0.35210  0.06980  0.77740  1.0000 0.4697784033
C   C92       1.0  0.32680  0.07370  0.69840  1.0000 0.3488109426
C   C93       1.0  0.42570  0.14570  0.69620  1.0000 0.3953334332
C   C94       1.0  0.43050  0.16320  0.78650  1.0000 0.4837295708
C   C95       1.0  0.30490  0.20600  0.72030  1.0000 0.491855364
C   C96       1.0  0.29170  0.18760  0.80770  1.0000 0.369537275
C   C97       1.0  0.29730  0.04560  0.57820  1.0000 0.1297019399
C   C98       1.0  0.25850  0.04730  0.57990  1.0000 0.0986532473
C   C99       1.0  0.45460  0.11610  0.57760  1.0000 0.1297019399
C   C100      1.0  0.24900  0.18500  0.92160  1.0000 0.0986532473
C   C101      1.0  0.22660  0.15720  0.92070  1.0000 0.0853635303
C   C102      1.0  0.45310  0.07810  0.58060  1.0000 0.0986532473
C   C103      1.0  0.44920  0.05710  0.66470  1.0000 -0.4212181561
C   C104      1.0  0.23760  0.05170  0.66470  1.0000 -0.4127193683
C   C105      1.0  0.20930  0.14170  0.83660  1.0000 -0.3985619734
C   C106      1.0  0.64790  0.93020  0.77740  1.0000 0.4697784033
C   C107      1.0  0.67320  0.92630  0.69840  1.0000 0.3488109426
C   C108      1.0  0.57430  0.85430  0.69620  1.0000 0.3953334332
C   C109      1.0  0.56950  0.83680  0.78650  1.0000 0.4837295708
C   C110      1.0  0.69510  0.79400  0.72030  1.0000 0.491855364
C   C111      1.0  0.70830  0.81240  0.80770  1.0000 0.369537275
C   C112      1.0  0.70270  0.95440  0.57820  1.0000 0.1297019399
C   C113      1.0  0.74150  0.95270  0.57990  1.0000 0.0986532473
C   C114      1.0  0.54540  0.88390  0.57760  1.0000 0.1297019399
C   C115      1.0  0.75100  0.81500  0.92160  1.0000 0.0986532473
C   C116      1.0  0.77340  0.84280  0.92070  1.0000 0.0853635303
C   C117      1.0  0.54690  0.92190  0.58060  1.0000 0.0986532473
C   C118      1.0  0.55080  0.94290  0.66470  1.0000 -0.4212181561
C   C119      1.0  0.76240  0.94830  0.66470  1.0000 -0.4127193683
C   C120      1.0  0.79070  0.85830  0.83660  1.0000 -0.3985619734
C   C121      1.0  0.93020  0.64790  0.77740  1.0000 0.4697784033
C   C122      1.0  0.92630  0.67320  0.69840  1.0000 0.3488109426
C   C123      1.0  0.85430  0.57430  0.69620  1.0000 0.3953334332
C   C124      1.0  0.83680  0.56950  0.78650  1.0000 0.4837295708
C   C125      1.0  0.79400  0.69510  0.72030  1.0000 0.491855364
C   C126      1.0  0.81240  0.70830  0.80770  1.0000 0.369537275
C   C127      1.0  0.95440  0.70270  0.57820  1.0000 0.1297019399
C   C128      1.0  0.95270  0.74150  0.57990  1.0000 0.0986532473
C   C129      1.0  0.88390  0.54540  0.57760  1.0000 0.1297019399
C   C130      1.0  0.81500  0.75100  0.92160  1.0000 0.0986532473
C   C131      1.0  0.84280  0.77340  0.92070  1.0000 0.0853635303
C   C132      1.0  0.92190  0.54690  0.58060  1.0000 0.0986532473
C   C133      1.0  0.94290  0.55080  0.66470  1.0000 -0.4212181561
C   C134      1.0  0.94830  0.76240  0.66470  1.0000 -0.4127193683
C   C135      1.0  0.85830  0.79070  0.83660  1.0000 -0.3985619734
C   C136      1.0  0.06980  0.35210  0.77740  1.0000 0.4697784033
C   C137      1.0  0.07370  0.32680  0.69840  1.0000 0.3488109426
C   C138      1.0  0.14570  0.42570  0.69620  1.0000 0.3953334332
C   C139      1.0  0.16320  0.43050  0.78650  1.0000 0.4837295708
C   C140      1.0  0.20600  0.30490  0.72030  1.0000 0.491855364
C   C141      1.0  0.18760  0.29170  0.80770  1.0000 0.369537275
C   C142      1.0  0.04560  0.29730  0.57820  1.0000 0.1297019399
C   C143      1.0  0.04730  0.25850  0.57990  1.0000 0.0986532473
C   C144      1.0  0.11610  0.45460  0.57760  1.0000 0.1297019399
C   C145      1.0  0.18500  0.24900  0.92160  1.0000 0.0986532473
C   C146      1.0  0.15720  0.22660  0.92070  1.0000 0.0853635303
C   C147      1.0  0.07810  0.45310  0.58060  1.0000 0.0986532473
C   C148      1.0  0.05710  0.44920  0.66470  1.0000 -0.4212181561
C   C149      1.0  0.05170  0.23760  0.66470  1.0000 -0.4127193683
C   C150      1.0  0.14170  0.20930  0.83660  1.0000 -0.3985619734
C   C151      1.0  0.35210  0.93020  0.77740  1.0000 0.4697784033
C   C152      1.0  0.32680  0.92630  0.69840  1.0000 0.3488109426
C   C153      1.0  0.42570  0.85430  0.69620  1.0000 0.3953334332
C   C154      1.0  0.43050  0.83680  0.78650  1.0000 0.4837295708
C   C155      1.0  0.30490  0.79400  0.72030  1.0000 0.491855364
C   C156      1.0  0.29170  0.81240  0.80770  1.0000 0.369537275
C   C157      1.0  0.29730  0.95440  0.57820  1.0000 0.1297019399
C   C158      1.0  0.25850  0.95270  0.57990  1.0000 0.0986532473
C   C159      1.0  0.45460  0.88390  0.57760  1.0000 0.1297019399
C   C160      1.0  0.24900  0.81500  0.92160  1.0000 0.0986532473
C   C161      1.0  0.22660  0.84280  0.92070  1.0000 0.0853635303
C   C162      1.0  0.45310  0.92190  0.58060  1.0000 0.0986532473
C   C163      1.0  0.44920  0.94290  0.66470  1.0000 -0.4212181561
C   C164      1.0  0.23760  0.94830  0.66470  1.0000 -0.4127193683
C   C165      1.0  0.20930  0.85830  0.83660  1.0000 -0.3985619734
C   C166      1.0  0.64790  0.06980  0.77740  1.0000 0.4697784033
C   C167      1.0  0.67320  0.07370  0.69840  1.0000 0.3488109426
C   C168      1.0  0.57430  0.14570  0.69620  1.0000 0.3953334332
C   C169      1.0  0.56950  0.16320  0.78650  1.0000 0.4837295708
C   C170      1.0  0.69510  0.20600  0.72030  1.0000 0.491855364
C   C171      1.0  0.70830  0.18760  0.80770  1.0000 0.369537275
C   C172      1.0  0.70270  0.04560  0.57820  1.0000 0.1297019399
C   C173      1.0  0.74150  0.04730  0.57990  1.0000 0.0986532473
C   C174      1.0  0.54540  0.11610  0.57760  1.0000 0.1297019399
C   C175      1.0  0.75100  0.18500  0.92160  1.0000 0.0986532473
C   C176      1.0  0.77340  0.15720  0.92070  1.0000 0.0853635303
C   C177      1.0  0.54690  0.07810  0.58060  1.0000 0.0986532473
C   C178      1.0  0.55080  0.05710  0.66470  1.0000 -0.4212181561
C   C179      1.0  0.76240  0.05170  0.66470  1.0000 -0.4127193683
C   C180      1.0  0.79070  0.14170  0.83660  1.0000 -0.3985619734
C   C181      1.0  0.06980  0.64790  0.22260  1.0000 0.4697784033
C   C182      1.0  0.07370  0.67320  0.30160  1.0000 0.3488109426
C   C183      1.0  0.14570  0.57430  0.30380  1.0000 0.3953334332
C   C184      1.0  0.16320  0.56950  0.21350  1.0000 0.4837295708
C   C185      1.0  0.20600  0.69510  0.27970  1.0000 0.491855364
C   C186      1.0  0.18760  0.70830  0.19230  1.0000 0.369537275
C   C187      1.0  0.04560  0.70270  0.42180  1.0000 0.1297019399
C   C188      1.0  0.04730  0.74150  0.42010  1.0000 0.0986532473
C   C189      1.0  0.11610  0.54540  0.42240  1.0000 0.1297019399
C   C190      1.0  0.18500  0.75100  0.07840  1.0000 0.0986532473
C   C191      1.0  0.15720  0.77340  0.07930  1.0000 0.0853635303
C   C192      1.0  0.07810  0.54690  0.41940  1.0000 0.0986532473
C   C193      1.0  0.05710  0.55080  0.33530  1.0000 -0.4212181561
C   C194      1.0  0.05170  0.76240  0.33530  1.0000 -0.4127193683
C   C195      1.0  0.14170  0.79070  0.16340  1.0000 -0.3985619734
C   C196      1.0  0.93020  0.35210  0.22260  1.0000 0.4697784033
C   C197      1.0  0.92630  0.32680  0.30160  1.0000 0.3488109426
C   C198      1.0  0.85430  0.42570  0.30380  1.0000 0.3953334332
C   C199      1.0  0.83680  0.43050  0.21350  1.0000 0.4837295708
C   C200      1.0  0.79400  0.30490  0.27970  1.0000 0.491855364
C   C201      1.0  0.81240  0.29170  0.19230  1.0000 0.369537275
C   C202      1.0  0.95440  0.29730  0.42180  1.0000 0.1297019399
C   C203      1.0  0.95270  0.25850  0.42010  1.0000 0.0986532473
C   C204      1.0  0.88390  0.45460  0.42240  1.0000 0.1297019399
C   C205      1.0  0.81500  0.24900  0.07840  1.0000 0.0986532473
C   C206      1.0  0.84280  0.22660  0.07930  1.0000 0.0853635303
C   C207      1.0  0.92190  0.45310  0.41940  1.0000 0.0986532473
C   C208      1.0  0.94290  0.44920  0.33530  1.0000 -0.4212181561
C   C209      1.0  0.94830  0.23760  0.33530  1.0000 -0.4127193683
C   C210      1.0  0.85830  0.20930  0.16340  1.0000 -0.3985619734
C   C211      1.0  0.64790  0.93020  0.22260  1.0000 0.4697784033
C   C212      1.0  0.67320  0.92630  0.30160  1.0000 0.3488109426
C   C213      1.0  0.57430  0.85430  0.30380  1.0000 0.3953334332
C   C214      1.0  0.56950  0.83680  0.21350  1.0000 0.4837295708
C   C215      1.0  0.69510  0.79400  0.27970  1.0000 0.491855364
C   C216      1.0  0.70830  0.81240  0.19230  1.0000 0.369537275
C   C217      1.0  0.70270  0.95440  0.42180  1.0000 0.1297019399
C   C218      1.0  0.74150  0.95270  0.42010  1.0000 0.0986532473
C   C219      1.0  0.54540  0.88390  0.42240  1.0000 0.1297019399
C   C220      1.0  0.75100  0.81500  0.07840  1.0000 0.0986532473
C   C221      1.0  0.77340  0.84280  0.07930  1.0000 0.0853635303
C   C222      1.0  0.54690  0.92190  0.41940  1.0000 0.0986532473
C   C223      1.0  0.55080  0.94290  0.33530  1.0000 -0.4212181561
C   C224      1.0  0.76240  0.94830  0.33530  1.0000 -0.4127193683
C   C225      1.0  0.79070  0.85830  0.16340  1.0000 -0.3985619734
C   C226      1.0  0.35210  0.06980  0.22260  1.0000 0.4697784033
C   C227      1.0  0.32680  0.07370  0.30160  1.0000 0.3488109426
C   C228      1.0  0.42570  0.14570  0.30380  1.0000 0.3953334332
C   C229      1.0  0.43050  0.16320  0.21350  1.0000 0.4837295708
C   C230      1.0  0.30490  0.20600  0.27970  1.0000 0.491855364
C   C231      1.0  0.29170  0.18760  0.19230  1.0000 0.369537275
C   C232      1.0  0.29730  0.04560  0.42180  1.0000 0.1297019399
C   C233      1.0  0.25850  0.04730  0.42010  1.0000 0.0986532473
C   C234      1.0  0.45460  0.11610  0.42240  1.0000 0.1297019399
C   C235      1.0  0.24900  0.18500  0.07840  1.0000 0.0986532473
C   C236      1.0  0.22660  0.15720  0.07930  1.0000 0.0853635303
C   C237      1.0  0.45310  0.07810  0.41940  1.0000 0.0986532473
C   C238      1.0  0.44920  0.05710  0.33530  1.0000 -0.4212181561
C   C239      1.0  0.23760  0.05170  0.33530  1.0000 -0.4127193683
C   C240      1.0  0.20930  0.14170  0.16340  1.0000 -0.3985619734
C   C241      1.0  0.04660  0.31680  0.50000  1.0000 -0.012433276
C   C242      1.0  0.05000  0.23990  0.50000  1.0000 -0.2248143743
C   C243      1.0  0.13730  0.45560  0.50000  1.0000 -0.012433276
C   C244      1.0  0.17830  0.45420  0.50000  1.0000 0.0307945472
C   C245      1.0  0.05990  0.45140  0.50000  1.0000 -0.2093231643
C   C246      1.0  0.04650  0.35860  0.50000  1.0000 -0.0442084598
C   C247      1.0  0.95340  0.68320  0.50000  1.0000 -0.012433276
C   C248      1.0  0.95000  0.76010  0.50000  1.0000 -0.2248143743
C   C249      1.0  0.86270  0.54440  0.50000  1.0000 -0.012433276
C   C250      1.0  0.82170  0.54580  0.50000  1.0000 0.0307945472
C   C251      1.0  0.94010  0.54860  0.50000  1.0000 -0.2093231643
C   C252      1.0  0.95350  0.64140  0.50000  1.0000 -0.0442084598
C   C253      1.0  0.68320  0.04660  0.50000  1.0000 -0.012433276
C   C254      1.0  0.76010  0.05000  0.50000  1.0000 -0.2248143743
C   C255      1.0  0.54440  0.13730  0.50000  1.0000 -0.012433276
C   C256      1.0  0.54580  0.17830  0.50000  1.0000 0.0307945472
C   C257      1.0  0.54860  0.05990  0.50000  1.0000 -0.2093231643
C   C258      1.0  0.64140  0.04650  0.50000  1.0000 -0.0442084598
C   C259      1.0  0.31680  0.95340  0.50000  1.0000 -0.012433276
C   C260      1.0  0.23990  0.95000  0.50000  1.0000 -0.2248143743
C   C261      1.0  0.45560  0.86270  0.50000  1.0000 -0.012433276
C   C262      1.0  0.45420  0.82170  0.50000  1.0000 0.0307945472
C   C263      1.0  0.45140  0.94010  0.50000  1.0000 -0.2093231643
C   C264      1.0  0.35860  0.95350  0.50000  1.0000 -0.0442084598
C   C265      1.0  0.95340  0.31680  0.50000  1.0000 -0.012433276
C   C266      1.0  0.95000  0.23990  0.50000  1.0000 -0.2248143743
C   C267      1.0  0.86270  0.45560  0.50000  1.0000 -0.012433276
C   C268      1.0  0.82170  0.45420  0.50000  1.0000 0.0307945472
C   C269      1.0  0.94010  0.45140  0.50000  1.0000 -0.2093231643
C   C270      1.0  0.95350  0.35860  0.50000  1.0000 -0.0442084598
C   C271      1.0  0.04660  0.68320  0.50000  1.0000 -0.012433276
C   C272      1.0  0.05000  0.76010  0.50000  1.0000 -0.2248143743
C   C273      1.0  0.13730  0.54440  0.50000  1.0000 -0.012433276
C   C274      1.0  0.17830  0.54580  0.50000  1.0000 0.0307945472
C   C275      1.0  0.05990  0.54860  0.50000  1.0000 -0.2093231643
C   C276      1.0  0.04650  0.64140  0.50000  1.0000 -0.0442084598
C   C277      1.0  0.31680  0.04660  0.50000  1.0000 -0.012433276
C   C278      1.0  0.23990  0.05000  0.50000  1.0000 -0.2248143743
C   C279      1.0  0.45560  0.13730  0.50000  1.0000 -0.012433276
C   C280      1.0  0.45420  0.17830  0.50000  1.0000 0.0307945472
C   C281      1.0  0.45140  0.05990  0.50000  1.0000 -0.2093231643
C   C282      1.0  0.35860  0.04650  0.50000  1.0000 -0.0442084598
C   C283      1.0  0.68320  0.95340  0.50000  1.0000 -0.012433276
C   C284      1.0  0.76010  0.95000  0.50000  1.0000 -0.2248143743
C   C285      1.0  0.54440  0.86270  0.50000  1.0000 -0.012433276
C   C286      1.0  0.54580  0.82170  0.50000  1.0000 0.0307945472
C   C287      1.0  0.54860  0.94010  0.50000  1.0000 -0.2093231643
C   C288      1.0  0.64140  0.95350  0.50000  1.0000 -0.0442084598
C   C289      1.0  0.19980  0.26320  0.00000  1.0000 -0.012433276
C   C290      1.0  0.22840  0.29210  0.00000  1.0000 0.0038453634
C   C291      1.0  0.14240  0.21170  0.00000  1.0000 -0.2028108205
C   C292      1.0  0.80020  0.73680  0.00000  1.0000 -0.012433276
C   C293      1.0  0.77160  0.70790  0.00000  1.0000 0.0038453634
C   C294      1.0  0.85760  0.78830  0.00000  1.0000 -0.2028108205
C   C295      1.0  0.73680  0.19980  0.00000  1.0000 -0.012433276
C   C296      1.0  0.70790  0.22840  0.00000  1.0000 0.0038453634
C   C297      1.0  0.78830  0.14240  0.00000  1.0000 -0.2028108205
C   C298      1.0  0.26320  0.80020  0.00000  1.0000 -0.012433276
C   C299      1.0  0.29210  0.77160  0.00000  1.0000 0.0038453634
C   C300      1.0  0.21170  0.85760  0.00000  1.0000 -0.2028108205
C   C301      1.0  0.80020  0.26320  0.00000  1.0000 -0.012433276
C   C302      1.0  0.77160  0.29210  0.00000  1.0000 0.0038453634
C   C303      1.0  0.85760  0.21170  0.00000  1.0000 -0.2028108205
C   C304      1.0  0.19980  0.73680  0.00000  1.0000 -0.012433276
C   C305      1.0  0.22840  0.70790  0.00000  1.0000 0.0038453634
C   C306      1.0  0.14240  0.78830  0.00000  1.0000 -0.2028108205
C   C307      1.0  0.26320  0.19980  0.00000  1.0000 -0.012433276
C   C308      1.0  0.29210  0.22840  0.00000  1.0000 0.0038453634
C   C309      1.0  0.21170  0.14240  0.00000  1.0000 -0.2028108205
C   C310      1.0  0.73680  0.80020  0.00000  1.0000 -0.012433276
C   C311      1.0  0.70790  0.77160  0.00000  1.0000 0.0038453634
C   C312      1.0  0.78830  0.85760  0.00000  1.0000 -0.2028108205
N   N1        1.0  0.04470  0.31680  0.34140  1.0000 -0.3726356442
N   N2        1.0  0.13700  0.45720  0.33930  1.0000 -0.4212181561
N   N3        1.0  0.20110  0.26273  0.16010  1.0000 -0.390064834
N   N4        1.0  0.95530  0.68320  0.34140  1.0000 -0.3726356442
N   N5        1.0  0.86300  0.54280  0.33930  1.0000 -0.4212181561
N   N6        1.0  0.79890  0.73727  0.16010  1.0000 -0.390064834
N   N7        1.0  0.68320  0.04470  0.34140  1.0000 -0.3726356442
N   N8        1.0  0.54280  0.13700  0.33930  1.0000 -0.4212181561
N   N9        1.0  0.73727  0.20110  0.16010  1.0000 -0.390064834
N   N10       1.0  0.31680  0.95530  0.34140  1.0000 -0.3726356442
N   N11       1.0  0.45720  0.86300  0.33930  1.0000 -0.4212181561
N   N12       1.0  0.26273  0.79890  0.16010  1.0000 -0.390064834
N   N13       1.0  0.95530  0.31680  0.65860  1.0000 -0.3726356442
N   N14       1.0  0.86300  0.45720  0.66070  1.0000 -0.4212181561
N   N15       1.0  0.79890  0.26273  0.83990  1.0000 -0.390064834
N   N16       1.0  0.04470  0.68320  0.65860  1.0000 -0.3726356442
N   N17       1.0  0.13700  0.54280  0.66070  1.0000 -0.4212181561
N   N18       1.0  0.20110  0.73727  0.83990  1.0000 -0.390064834
N   N19       1.0  0.31680  0.04470  0.65860  1.0000 -0.3726356442
N   N20       1.0  0.45720  0.13700  0.66070  1.0000 -0.4212181561
N   N21       1.0  0.26273  0.20110  0.83990  1.0000 -0.390064834
N   N22       1.0  0.68320  0.95530  0.65860  1.0000 -0.3726356442
N   N23       1.0  0.54280  0.86300  0.66070  1.0000 -0.4212181561
N   N24       1.0  0.73727  0.79890  0.83990  1.0000 -0.390064834
N   N25       1.0  0.95530  0.68320  0.65860  1.0000 -0.3726356442
N   N26       1.0  0.86300  0.54280  0.66070  1.0000 -0.4212181561
N   N27       1.0  0.79890  0.73727  0.83990  1.0000 -0.390064834
N   N28       1.0  0.04470  0.31680  0.65860  1.0000 -0.3726356442
N   N29       1.0  0.13700  0.45720  0.66070  1.0000 -0.4212181561
N   N30       1.0  0.20110  0.26273  0.83990  1.0000 -0.390064834
N   N31       1.0  0.31680  0.95530  0.65860  1.0000 -0.3726356442
N   N32       1.0  0.45720  0.86300  0.66070  1.0000 -0.4212181561
N   N33       1.0  0.26273  0.79890  0.83990  1.0000 -0.390064834
N   N34       1.0  0.68320  0.04470  0.65860  1.0000 -0.3726356442
N   N35       1.0  0.54280  0.13700  0.66070  1.0000 -0.4212181561
N   N36       1.0  0.73727  0.20110  0.83990  1.0000 -0.390064834
N   N37       1.0  0.04470  0.68320  0.34140  1.0000 -0.3726356442
N   N38       1.0  0.13700  0.54280  0.33930  1.0000 -0.4212181561
N   N39       1.0  0.20110  0.73727  0.16010  1.0000 -0.390064834
N   N40       1.0  0.95530  0.31680  0.34140  1.0000 -0.3726356442
N   N41       1.0  0.86300  0.45720  0.33930  1.0000 -0.4212181561
N   N42       1.0  0.79890  0.26273  0.16010  1.0000 -0.390064834
N   N43       1.0  0.68320  0.95530  0.34140  1.0000 -0.3726356442
N   N44       1.0  0.54280  0.86300  0.33930  1.0000 -0.4212181561
N   N45       1.0  0.73727  0.79890  0.16010  1.0000 -0.390064834
N   N46       1.0  0.31680  0.04470  0.34140  1.0000 -0.3726356442
N   N47       1.0  0.45720  0.13700  0.33930  1.0000 -0.4212181561
N   N48       1.0  0.26273  0.20110  0.16010  1.0000 -0.390064834
O   O1        1.0  0.03610  0.35770  0.19970  1.0000 -0.4485709729
O   O2        1.0  0.09710  0.36318  0.18280  1.0000 -0.4419246253
O   O3        1.0  0.10720  0.31900  0.32460  1.0000 -0.4567193876
O   O4        1.0  0.17110  0.46230  0.18930  1.0000 -0.4485709729
O   O5        1.0  0.17300  0.40002  0.17570  1.0000 -0.4772257621
O   O6        1.0  0.14020  0.39470  0.33240  1.0000 -0.4127193683
O   O7        1.0  0.16130  0.31152  0.16390  1.0000 -0.4419246253
O   O8        1.0  0.19320  0.33314  0.31500  1.0000 -0.4485709729
O   O9        1.0  0.23110  0.28504  0.30890  1.0000 -0.487036005
O   O10       1.0  0.96390  0.64230  0.19970  1.0000 -0.4485709729
O   O11       1.0  0.90290  0.63682  0.18280  1.0000 -0.4419246253
O   O12       1.0  0.89280  0.68100  0.32460  1.0000 -0.4567193876
O   O13       1.0  0.82890  0.53770  0.18930  1.0000 -0.4485709729
O   O14       1.0  0.82700  0.59998  0.17570  1.0000 -0.4772257621
O   O15       1.0  0.85980  0.60530  0.33240  1.0000 -0.4127193683
O   O16       1.0  0.83870  0.68848  0.16390  1.0000 -0.4419246253
O   O17       1.0  0.80680  0.66686  0.31500  1.0000 -0.4485709729
O   O18       1.0  0.76890  0.71496  0.30890  1.0000 -0.487036005
O   O19       1.0  0.64230  0.03610  0.19970  1.0000 -0.4485709729
O   O20       1.0  0.63682  0.09710  0.18280  1.0000 -0.4419246253
O   O21       1.0  0.68100  0.10720  0.32460  1.0000 -0.4567193876
O   O22       1.0  0.53770  0.17110  0.18930  1.0000 -0.4485709729
O   O23       1.0  0.59998  0.17300  0.17570  1.0000 -0.4772257621
O   O24       1.0  0.60530  0.14020  0.33240  1.0000 -0.4127193683
O   O25       1.0  0.68848  0.16130  0.16390  1.0000 -0.4419246253
O   O26       1.0  0.66686  0.19320  0.31500  1.0000 -0.4485709729
O   O27       1.0  0.71496  0.23110  0.30890  1.0000 -0.487036005
O   O28       1.0  0.35770  0.96390  0.19970  1.0000 -0.4485709729
O   O29       1.0  0.36318  0.90290  0.18280  1.0000 -0.4419246253
O   O30       1.0  0.31900  0.89280  0.32460  1.0000 -0.4567193876
O   O31       1.0  0.46230  0.82890  0.18930  1.0000 -0.4485709729
O   O32       1.0  0.40002  0.82700  0.17570  1.0000 -0.4772257621
O   O33       1.0  0.39470  0.85980  0.33240  1.0000 -0.4127193683
O   O34       1.0  0.31152  0.83870  0.16390  1.0000 -0.4419246253
O   O35       1.0  0.33314  0.80680  0.31500  1.0000 -0.4485709729
O   O36       1.0  0.28504  0.76890  0.30890  1.0000 -0.487036005
O   O37       1.0  0.96390  0.35770  0.80030  1.0000 -0.4567193876
O   O38       1.0  0.90290  0.36318  0.81720  1.0000 -0.4419246253
O   O39       1.0  0.89280  0.31900  0.67540  1.0000 -0.4567193876
O   O40       1.0  0.82890  0.46230  0.81070  1.0000 -0.4485709729
O   O41       1.0  0.82700  0.40002  0.82430  1.0000 -0.4772257621
O   O42       1.0  0.85980  0.39470  0.66760  1.0000 -0.4127193683
O   O43       1.0  0.83870  0.31152  0.83610  1.0000 -0.4419246253
O   O44       1.0  0.80680  0.33314  0.68500  1.0000 -0.4485709729
O   O45       1.0  0.76890  0.28504  0.69110  1.0000 -0.487036005
O   O46       1.0  0.03610  0.64230  0.80030  1.0000 -0.4567193876
O   O47       1.0  0.09710  0.63682  0.81720  1.0000 -0.4419246253
O   O48       1.0  0.10720  0.68100  0.67540  1.0000 -0.4567193876
O   O49       1.0  0.17110  0.53770  0.81070  1.0000 -0.4485709729
O   O50       1.0  0.17300  0.59998  0.82430  1.0000 -0.4772257621
O   O51       1.0  0.14020  0.60530  0.66760  1.0000 -0.4127193683
O   O52       1.0  0.16130  0.68848  0.83610  1.0000 -0.4419246253
O   O53       1.0  0.19320  0.66686  0.68500  1.0000 -0.4485709729
O   O54       1.0  0.23110  0.71496  0.69110  1.0000 -0.487036005
O   O55       1.0  0.35770  0.03610  0.80030  1.0000 -0.4567193876
O   O56       1.0  0.36318  0.09710  0.81720  1.0000 -0.4419246253
O   O57       1.0  0.31900  0.10720  0.67540  1.0000 -0.4567193876
O   O58       1.0  0.46230  0.17110  0.81070  1.0000 -0.4485709729
O   O59       1.0  0.40002  0.17300  0.82430  1.0000 -0.4772257621
O   O60       1.0  0.39470  0.14020  0.66760  1.0000 -0.4127193683
O   O61       1.0  0.31152  0.16130  0.83610  1.0000 -0.4419246253
O   O62       1.0  0.33314  0.19320  0.68500  1.0000 -0.4485709729
O   O63       1.0  0.28504  0.23110  0.69110  1.0000 -0.487036005
O   O64       1.0  0.64230  0.96390  0.80030  1.0000 -0.4567193876
O   O65       1.0  0.63682  0.90290  0.81720  1.0000 -0.4419246253
O   O66       1.0  0.68100  0.89280  0.67540  1.0000 -0.4567193876
O   O67       1.0  0.53770  0.82890  0.81070  1.0000 -0.4485709729
O   O68       1.0  0.59998  0.82700  0.82430  1.0000 -0.4772257621
O   O69       1.0  0.60530  0.85980  0.66760  1.0000 -0.4127193683
O   O70       1.0  0.68848  0.83870  0.83610  1.0000 -0.4419246253
O   O71       1.0  0.66686  0.80680  0.68500  1.0000 -0.4485709729
O   O72       1.0  0.71496  0.76890  0.69110  1.0000 -0.487036005
O   O73       1.0  0.96390  0.64230  0.80030  1.0000 -0.4567193876
O   O74       1.0  0.90290  0.63682  0.81720  1.0000 -0.4419246253
O   O75       1.0  0.89280  0.68100  0.67540  1.0000 -0.4567193876
O   O76       1.0  0.82890  0.53770  0.81070  1.0000 -0.4485709729
O   O77       1.0  0.82700  0.59998  0.82430  1.0000 -0.4772257621
O   O78       1.0  0.85980  0.60530  0.66760  1.0000 -0.4127193683
O   O79       1.0  0.83870  0.68848  0.83610  1.0000 -0.4419246253
O   O80       1.0  0.80680  0.66686  0.68500  1.0000 -0.4485709729
O   O81       1.0  0.76890  0.71496  0.69110  1.0000 -0.487036005
O   O82       1.0  0.03610  0.35770  0.80030  1.0000 -0.4567193876
O   O83       1.0  0.09710  0.36318  0.81720  1.0000 -0.4419246253
O   O84       1.0  0.10720  0.31900  0.67540  1.0000 -0.4567193876
O   O85       1.0  0.17110  0.46230  0.81070  1.0000 -0.4485709729
O   O86       1.0  0.17300  0.40002  0.82430  1.0000 -0.4772257621
O   O87       1.0  0.14020  0.39470  0.66760  1.0000 -0.4127193683
O   O88       1.0  0.16130  0.31152  0.83610  1.0000 -0.4419246253
O   O89       1.0  0.19320  0.33314  0.68500  1.0000 -0.4485709729
O   O90       1.0  0.23110  0.28504  0.69110  1.0000 -0.487036005
O   O91       1.0  0.35770  0.96390  0.80030  1.0000 -0.4567193876
O   O92       1.0  0.36318  0.90290  0.81720  1.0000 -0.4419246253
O   O93       1.0  0.31900  0.89280  0.67540  1.0000 -0.4567193876
O   O94       1.0  0.46230  0.82890  0.81070  1.0000 -0.4485709729
O   O95       1.0  0.40002  0.82700  0.82430  1.0000 -0.4772257621
O   O96       1.0  0.39470  0.85980  0.66760  1.0000 -0.4127193683
O   O97       1.0  0.31152  0.83870  0.83610  1.0000 -0.4419246253
O   O98       1.0  0.33314  0.80680  0.68500  1.0000 -0.4485709729
O   O99       1.0  0.28504  0.76890  0.69110  1.0000 -0.487036005
O   O100      1.0  0.64230  0.03610  0.80030  1.0000 -0.4567193876
O   O101      1.0  0.63682  0.09710  0.81720  1.0000 -0.4419246253
O   O102      1.0  0.68100  0.10720  0.67540  1.0000 -0.4567193876
O   O103      1.0  0.53770  0.17110  0.81070  1.0000 -0.4485709729
O   O104      1.0  0.59998  0.17300  0.82430  1.0000 -0.4772257621
O   O105      1.0  0.60530  0.14020  0.66760  1.0000 -0.4127193683
O   O106      1.0  0.68848  0.16130  0.83610  1.0000 -0.4419246253
O   O107      1.0  0.66686  0.19320  0.68500  1.0000 -0.4485709729
O   O108      1.0  0.71496  0.23110  0.69110  1.0000 -0.487036005
O   O109      1.0  0.03610  0.64230  0.19970  1.0000 -0.4485709729
O   O110      1.0  0.09710  0.63682  0.18280  1.0000 -0.4419246253
O   O111      1.0  0.10720  0.68100  0.32460  1.0000 -0.4567193876
O   O112      1.0  0.17110  0.53770  0.18930  1.0000 -0.4485709729
O   O113      1.0  0.17300  0.59998  0.17570  1.0000 -0.4772257621
O   O114      1.0  0.14020  0.60530  0.33240  1.0000 -0.4127193683
O   O115      1.0  0.16130  0.68848  0.16390  1.0000 -0.4419246253
O   O116      1.0  0.19320  0.66686  0.31500  1.0000 -0.4485709729
O   O117      1.0  0.23110  0.71496  0.30890  1.0000 -0.487036005
O   O118      1.0  0.96390  0.35770  0.19970  1.0000 -0.4485709729
O   O119      1.0  0.90290  0.36318  0.18280  1.0000 -0.4419246253
O   O120      1.0  0.89280  0.31900  0.32460  1.0000 -0.4567193876
O   O121      1.0  0.82890  0.46230  0.18930  1.0000 -0.4485709729
O   O122      1.0  0.82700  0.40002  0.17570  1.0000 -0.4772257621
O   O123      1.0  0.85980  0.39470  0.33240  1.0000 -0.4127193683
O   O124      1.0  0.83870  0.31152  0.16390  1.0000 -0.4419246253
O   O125      1.0  0.80680  0.33314  0.31500  1.0000 -0.4485709729
O   O126      1.0  0.76890  0.28504  0.30890  1.0000 -0.487036005
O   O127      1.0  0.64230  0.96390  0.19970  1.0000 -0.4485709729
O   O128      1.0  0.63682  0.90290  0.18280  1.0000 -0.4419246253
O   O129      1.0  0.68100  0.89280  0.32460  1.0000 -0.4567193876
O   O130      1.0  0.53770  0.82890  0.18930  1.0000 -0.4485709729
O   O131      1.0  0.59998  0.82700  0.17570  1.0000 -0.4772257621
O   O132      1.0  0.60530  0.85980  0.33240  1.0000 -0.4127193683
O   O133      1.0  0.68848  0.83870  0.16390  1.0000 -0.4419246253
O   O134      1.0  0.66686  0.80680  0.31500  1.0000 -0.4485709729
O   O135      1.0  0.71496  0.76890  0.30890  1.0000 -0.487036005
O   O136      1.0  0.35770  0.03610  0.19970  1.0000 -0.4485709729
O   O137      1.0  0.36318  0.09710  0.18280  1.0000 -0.4419246253
O   O138      1.0  0.31900  0.10720  0.32460  1.0000 -0.4567193876
O   O139      1.0  0.46230  0.17110  0.18930  1.0000 -0.4485709729
O   O140      1.0  0.40002  0.17300  0.17570  1.0000 -0.4772257621
O   O141      1.0  0.39470  0.14020  0.33240  1.0000 -0.4127193683
O   O142      1.0  0.31152  0.16130  0.16390  1.0000 -0.4419246253
O   O143      1.0  0.33314  0.19320  0.31500  1.0000 -0.4485709729
O   O144      1.0  0.28504  0.23110  0.30890  1.0000 -0.487036005
O   O145      1.0  0.25200  0.21350  0.50000  1.0000 -0.3178021575
O   O146      1.0  0.74800  0.78650  0.50000  1.0000 -0.3178021575
O   O147      1.0  0.78650  0.25200  0.50000  1.0000 -0.3178021575
O   O148      1.0  0.21350  0.74800  0.50000  1.0000 -0.3178021575
O   O149      1.0  0.74800  0.21350  0.50000  1.0000 -0.3178021575
O   O150      1.0  0.25200  0.78650  0.50000  1.0000 -0.3178021575
O   O151      1.0  0.21350  0.25200  0.50000  1.0000 -0.3178021575
O   O152      1.0  0.78650  0.74800  0.50000  1.0000 -0.3178021575
