# DDEC6 charges by PACMAN v1.1 (https://github.com/mtap-research/PACMAN-charge/)
data_2012[Cd][nan]3[ION]1
_chemical_formula_sum              "Cd4 H44 C32 S6 N8 O16"
_cell_length_a       7.8398
_cell_length_b       14.425
_cell_length_c       14.4884
_cell_angle_alpha    90.76
_cell_angle_beta     97.907
_cell_angle_gamma    105.506

_symmetry_space_group_name_H-M    "P 1"
_symmetry_Int_Tables_number       1

loop_
  _symmetry_equiv_pos_as_xyz
  'x, y, z'

loop_
  _atom_site_type_symbol
  _atom_site_label
  _atom_site_symmetry_multiplicity
  _atom_site_fract_x
  _atom_site_fract_y
  _atom_site_fract_z
  _atom_site_occupancy
  _atom_site_charge
Cd  Cd1       1.0  0.27558  0.03618  0.00659  1.0000 0.5651934143
Cd  Cd2       1.0  0.72442  0.96382  0.99341  1.0000 0.5651934143
Cd  Cd3       1.0  0.44139  0.52703  0.35357  1.0000 0.9806932803
Cd  Cd4       1.0  0.55861  0.47297  0.64643  1.0000 0.9806932803
H   H1        1.0  0.38080  0.24080  0.14560  1.0000 0.113377012
H   H2        1.0  0.61920  0.75920  0.85440  1.0000 0.113377012
H   H3        1.0  0.98880  0.36880  0.09560  1.0000 0.1280969462
H   H4        1.0  0.01120  0.63120  0.90440  1.0000 0.1280969462
H   H5        1.0  0.84780  0.25090  0.98040  1.0000 0.1280969462
H   H6        1.0  0.15220  0.74910  0.01960  1.0000 0.1280969462
H   H7        1.0  0.35670  0.22030  0.85950  1.0000 0.113377012
H   H8        1.0  0.64330  0.77970  0.14050  1.0000 0.113377012
H   H9        1.0  0.56700  0.13340  0.65170  1.0000 0.1280969462
H   H10       1.0  0.43300  0.86660  0.34830  1.0000 0.1280969462
H   H11       1.0  0.53300  0.98510  0.71660  1.0000 0.1358370181
H   H12       1.0  0.46700  0.01490  0.28340  1.0000 0.1358370181
H   H13       1.0  0.70320  0.30460  0.23820  1.0000 0.1190602403
H   H14       1.0  0.89900  0.36600  0.27450  1.0000 0.1280969462
H   H15       1.0  0.84080  0.25570  0.29210  1.0000 0.1280969462
H   H16       1.0  0.67900  0.20620  0.42810  1.0000 0.1190602403
H   H17       1.0  0.58570  0.27850  0.46770  1.0000 0.1358370181
H   H18       1.0  0.51900  0.23190  0.36630  1.0000 0.1280969462
H   H19       1.0  0.69560  0.38450  0.36890  1.0000 0.2668284174
H   H20       1.0  0.84440  0.35570  0.41970  1.0000 0.2595216479
H   H21       1.0  0.29680  0.69540  0.76180  1.0000 0.1190602403
H   H22       1.0  0.10100  0.63400  0.72550  1.0000 0.1280969462
H   H23       1.0  0.15920  0.74430  0.70790  1.0000 0.1280969462
H   H24       1.0  0.32100  0.79380  0.57190  1.0000 0.1190602403
H   H25       1.0  0.41430  0.72150  0.53230  1.0000 0.1358370181
H   H26       1.0  0.48100  0.76810  0.63370  1.0000 0.1280969462
H   H27       1.0  0.30440  0.61550  0.63110  1.0000 0.2668284174
H   H28       1.0  0.15560  0.64430  0.58030  1.0000 0.2595216479
H   H29       1.0  0.89720  0.75310  0.30810  1.0000 0.1280969462
H   H30       1.0  0.08010  0.78950  0.37440  1.0000 0.1280969462
H   H31       1.0  0.07650  0.78500  0.26590  1.0000 0.113377012
H   H32       1.0  0.06470  0.63210  0.19160  1.0000 0.1190602403
H   H33       1.0  0.98840  0.53870  0.24350  1.0000 0.1358370181
H   H34       1.0  0.86520  0.60480  0.20970  1.0000 0.1358370181
H   H35       1.0  0.97000  0.62610  0.36180  1.0000 0.2668284174
H   H36       1.0  0.15180  0.65920  0.34090  1.0000 0.2595216479
H   H37       1.0  0.10280  0.24690  0.69190  1.0000 0.1280969462
H   H38       1.0  0.91990  0.21050  0.62560  1.0000 0.1280969462
H   H39       1.0  0.92350  0.21500  0.73410  1.0000 0.113377012
H   H40       1.0  0.93530  0.36790  0.80840  1.0000 0.1190602403
H   H41       1.0  0.01160  0.46130  0.75650  1.0000 0.1358370181
H   H42       1.0  0.13480  0.39520  0.79030  1.0000 0.1358370181
H   H43       1.0  0.03000  0.37390  0.63820  1.0000 0.2668284174
H   H44       1.0  0.84820  0.34080  0.65910  1.0000 0.2595216479
C   C1        1.0  0.27190  0.24310  0.11230  1.0000 0.0492816788
C   C2        1.0  0.72810  0.75690  0.88770  1.0000 0.0492816788
C   C3        1.0  0.20360  0.31690  0.13400  1.0000 -0.0669162798
C   C4        1.0  0.79640  0.68310  0.86600  1.0000 -0.0669162798
C   C5        1.0  0.04020  0.31970  0.08320  1.0000 -0.0477146529
C   C6        1.0  0.95980  0.68030  0.91680  1.0000 -0.0477146529
C   C7        1.0  0.95630  0.24940  0.01480  1.0000 -0.1797947589
C   C8        1.0  0.04370  0.75060  0.98520  1.0000 -0.1797947589
C   C9        1.0  0.03290  0.17590  0.99670  1.0000 0.2435344305
C   C10       1.0  0.96710  0.82410  0.00330  1.0000 0.2435344305
C   C11       1.0  0.29890  0.39220  0.21080  1.0000 0.5426896807
C   C12       1.0  0.70110  0.60780  0.78920  1.0000 0.5426896807
C   C13       1.0  0.39550  0.17310  0.83080  1.0000 0.0594963577
C   C14       1.0  0.60450  0.82690  0.16920  1.0000 0.0594963577
C   C15       1.0  0.46750  0.19430  0.74980  1.0000 -0.0809527564
C   C16       1.0  0.53250  0.80570  0.25020  1.0000 -0.0809527564
C   C17       1.0  0.51910  0.12230  0.70700  1.0000 -0.0477146529
C   C18       1.0  0.48090  0.87770  0.29300  1.0000 -0.0477146529
C   C19       1.0  0.50010  0.03400  0.74590  1.0000 -0.1797947589
C   C20       1.0  0.49990  0.96600  0.25410  1.0000 -0.1797947589
C   C21       1.0  0.43050  0.01910  0.83010  1.0000 0.2544969466
C   C22       1.0  0.56950  0.98090  0.16990  1.0000 0.2544969466
C   C23       1.0  0.49340  0.29320  0.71270  1.0000 0.5426896807
C   C24       1.0  0.50660  0.70680  0.28730  1.0000 0.5426896807
C   C25       1.0  0.80220  0.31350  0.28760  1.0000 -0.3024772707
C   C26       1.0  0.62210  0.25640  0.41270  1.0000 -0.2756493691
C   C27       1.0  0.19780  0.68650  0.71240  1.0000 -0.3024772707
C   C28       1.0  0.37790  0.74360  0.58730  1.0000 -0.2756493691
C   C29       1.0  0.02140  0.75430  0.31690  1.0000 -0.2871884111
C   C30       1.0  0.98480  0.60400  0.23450  1.0000 -0.2674613002
C   C31       1.0  0.97860  0.24570  0.68310  1.0000 -0.2871884111
C   C32       1.0  0.01520  0.39600  0.76550  1.0000 -0.2674613002
S   S1        1.0  0.93636  0.08569  0.90914  1.0000 -0.3943540457
S   S2        1.0  0.06364  0.91431  0.09086  1.0000 -0.3943540457
S   S3        1.0  0.40639  0.91283  0.88891  1.0000 -0.4058685306
S   S4        1.0  0.59361  0.08717  0.11109  1.0000 -0.4058685306
S   S5        1.0  0.21752  0.43342  0.49727  1.0000 1.3004960414
S   S6        1.0  0.78248  0.56658  0.50273  1.0000 1.3004960414
N   N1        1.0  0.19100  0.17360  0.04570  1.0000 -0.2674613002
N   N2        1.0  0.80900  0.82640  0.95430  1.0000 -0.2674613002
N   N3        1.0  0.37810  0.08890  0.87080  1.0000 -0.257292122
N   N4        1.0  0.62190  0.91110  0.12920  1.0000 -0.257292122
N   N5        1.0  0.74610  0.33550  0.37670  1.0000 -0.1111853424
N   N6        1.0  0.25390  0.66450  0.62330  1.0000 -0.1111853424
N   N7        1.0  0.03720  0.65710  0.32020  1.0000 -0.0958476144
N   N8        1.0  0.96280  0.34290  0.67980  1.0000 -0.0958476144
O   O1        1.0  0.22670  0.45530  0.22970  1.0000 -0.5193600062
O   O2        1.0  0.77330  0.54470  0.77030  1.0000 -0.5193600062
O   O3        1.0  0.44570  0.38800  0.25270  1.0000 -0.5281025473
O   O4        1.0  0.55430  0.61200  0.74730  1.0000 -0.5281025473
O   O5        1.0  0.41860  0.34880  0.74520  1.0000 -0.5030388836
O   O6        1.0  0.58140  0.65120  0.25480  1.0000 -0.5030388836
O   O7        1.0  0.58900  0.31550  0.65000  1.0000 -0.5193600062
O   O8        1.0  0.41100  0.68450  0.35000  1.0000 -0.5193600062
O   O9        1.0  0.36920  0.40350  0.46910  1.0000 -0.6498613957
O   O10       1.0  0.63080  0.59650  0.53090  1.0000 -0.6498613957
O   O11       1.0  0.18680  0.51030  0.43840  1.0000 -0.6238690618
O   O12       1.0  0.81320  0.48970  0.56160  1.0000 -0.6238690618
O   O13       1.0  0.26930  0.47120  0.59641  1.0000 -0.6436934475
O   O14       1.0  0.73070  0.52880  0.40359  1.0000 -0.6436934475
O   O15       1.0  0.05820  0.35210  0.49170  1.0000 -0.6017485264
O   O16       1.0  0.94180  0.64790  0.50830  1.0000 -0.6017485264
