# DDEC6 charges by PACMAN v1.1 (https://github.com/mtap-research/PACMAN-charge/)
data_2012[Ag][pts]3[ION]1
_chemical_formula_sum              "Ag4 H72 C56 N26 O6"
_cell_length_a       6.5192
_cell_length_b       15.4818
_cell_length_c       16.9913
_cell_angle_alpha    89.23
_cell_angle_beta     84.607
_cell_angle_gamma    85.574

_symmetry_space_group_name_H-M    "P 1"
_symmetry_Int_Tables_number       1

loop_
  _symmetry_equiv_pos_as_xyz
  'x, y, z'

loop_
  _atom_site_type_symbol
  _atom_site_label
  _atom_site_symmetry_multiplicity
  _atom_site_fract_x
  _atom_site_fract_y
  _atom_site_fract_z
  _atom_site_occupancy
  _atom_site_charge
Ag  Ag1       1.0  0.72880  0.02035  0.05761  1.0000 0.2506288629
Ag  Ag2       1.0  0.27120  0.97965  0.94239  1.0000 0.2506288629
Ag  Ag3       1.0  0.74721  0.53013  0.43691  1.0000 0.2506288629
Ag  Ag4       1.0  0.25279  0.46987  0.56309  1.0000 0.2506288629
H   H1        1.0  0.46270  0.17990  0.16450  1.0000 0.1188535905
H   H2        1.0  0.53730  0.82010  0.83550  1.0000 0.1188535905
H   H3        1.0  0.07940  0.20200  0.99840  1.0000 0.1188535905
H   H4        1.0  0.92060  0.79800  0.00160  1.0000 0.1188535905
H   H5        1.0  0.46200  0.53000  0.27100  1.0000 0.1087508859
H   H6        1.0  0.53800  0.47000  0.72900  1.0000 0.1087508859
H   H7        1.0  0.16380  0.34940  0.38840  1.0000 0.1255920446
H   H8        1.0  0.83620  0.65060  0.61160  1.0000 0.1255920446
H   H9        1.0  0.23530  0.28090  0.24090  1.0000 0.1188535905
H   H10       1.0  0.76470  0.71910  0.75910  1.0000 0.1188535905
H   H11       1.0  0.40570  0.32720  0.18600  1.0000 0.1002691504
H   H12       1.0  0.59430  0.67280  0.81400  1.0000 0.1002691504
H   H13       1.0  0.35030  0.48690  0.15460  1.0000 0.1002691504
H   H14       1.0  0.64970  0.51310  0.84540  1.0000 0.1002691504
H   H15       1.0  0.14900  0.54160  0.19170  1.0000 0.1002691504
H   H16       1.0  0.85100  0.45840  0.80830  1.0000 0.1002691504
H   H17       1.0  0.10850  0.51030  0.05750  1.0000 0.0688226651
H   H18       1.0  0.89150  0.48970  0.94250  1.0000 0.0688226651
H   H19       1.0  0.12090  0.36310  0.01620  1.0000 0.1002691504
H   H20       1.0  0.87910  0.63690  0.98380  1.0000 0.1002691504
H   H21       1.0  0.33333  0.37910  0.05050  1.0000 0.1002691504
H   H22       1.0  0.66667  0.62090  0.94950  1.0000 0.1002691504
H   H23       1.0  0.89680  0.25560  0.19130  1.0000 0.1087508859
H   H24       1.0  0.10320  0.74440  0.80870  1.0000 0.1087508859
H   H25       1.0  0.84680  0.28520  0.10470  1.0000 0.1002691504
H   H26       1.0  0.15320  0.71480  0.89530  1.0000 0.1002691504
H   H27       1.0  0.67820  0.38840  0.19840  1.0000 0.0617370149
H   H28       1.0  0.32180  0.61160  0.80160  1.0000 0.0617370149
H   H29       1.0  0.88300  0.46650  0.27940  1.0000 0.0801550869
H   H30       1.0  0.11700  0.53350  0.72060  1.0000 0.0801550869
H   H31       1.0  0.91900  0.36580  0.29750  1.0000 0.1087508859
H   H32       1.0  0.08100  0.63420  0.70250  1.0000 0.1087508859
H   H33       1.0  0.80160  0.51500  0.14200  1.0000 0.1002691504
H   H34       1.0  0.19840  0.48500  0.85800  1.0000 0.1002691504
H   H35       1.0  0.79280  0.44570  0.07470  1.0000 0.1002691504
H   H36       1.0  0.20720  0.55430  0.92530  1.0000 0.1002691504
H   H37       1.0  0.65500  0.31090  0.48280  1.0000 0.1188535905
H   H38       1.0  0.34500  0.68910  0.51720  1.0000 0.1188535905
H   H39       1.0  0.98830  0.31640  0.66430  1.0000 0.1087508859
H   H40       1.0  0.01170  0.68360  0.33570  1.0000 0.1087508859
H   H41       1.0  0.60560  0.14710  0.87990  1.0000 0.1188535905
H   H42       1.0  0.39440  0.85290  0.12010  1.0000 0.1188535905
H   H43       1.0  0.02820  0.98200  0.77370  1.0000 0.1087508859
H   H44       1.0  0.97180  0.01800  0.22630  1.0000 0.1087508859
H   H45       1.0  0.92950  0.17700  0.69270  1.0000 0.1002691504
H   H46       1.0  0.07050  0.82300  0.30730  1.0000 0.1002691504
H   H47       1.0  0.72360  0.22500  0.73380  1.0000 0.1002691504
H   H48       1.0  0.27640  0.77500  0.26620  1.0000 0.1002691504
H   H49       1.0  0.93560  0.01700  0.65880  1.0000 0.1002691504
H   H50       1.0  0.06440  0.98300  0.34120  1.0000 0.1002691504
H   H51       1.0  0.73580  0.96590  0.68110  1.0000 0.1188535905
H   H52       1.0  0.26420  0.03410  0.31890  1.0000 0.1188535905
H   H53       1.0  0.76180  0.99930  0.54370  1.0000 0.0801550869
H   H54       1.0  0.23820  0.00070  0.45630  1.0000 0.0801550869
H   H55       1.0  0.94150  0.12780  0.55050  1.0000 0.1087508859
H   H56       1.0  0.05850  0.87220  0.44950  1.0000 0.1087508859
H   H57       1.0  0.74600  0.14730  0.50210  1.0000 0.1087508859
H   H58       1.0  0.25400  0.85270  0.49790  1.0000 0.1002691504
H   H59       1.0  0.41880  0.22670  0.56970  1.0000 0.1087508859
H   H60       1.0  0.58120  0.77330  0.43030  1.0000 0.1087508859
H   H61       1.0  0.41560  0.25590  0.65910  1.0000 0.1002691504
H   H62       1.0  0.58440  0.74410  0.34090  1.0000 0.1002691504
H   H63       1.0  0.23880  0.12660  0.65320  1.0000 0.0617370149
H   H64       1.0  0.76120  0.87340  0.34680  1.0000 0.0617370149
H   H65       1.0  0.41250  0.14120  0.76890  1.0000 0.1002691504
H   H66       1.0  0.58750  0.85880  0.23110  1.0000 0.1002691504
H   H67       1.0  0.41870  0.04160  0.74670  1.0000 0.1087508859
H   H68       1.0  0.58130  0.95840  0.25330  1.0000 0.1087508859
H   H69       1.0  0.42300  0.99730  0.60480  1.0000 0.1002691504
H   H70       1.0  0.57700  0.00270  0.39520  1.0000 0.1002691504
H   H71       1.0  0.42830  0.06840  0.53670  1.0000 0.1002691504
H   H72       1.0  0.57170  0.93160  0.46330  1.0000 0.1002691504
C   C1        1.0  0.39470  0.16960  0.11950  1.0000 0.0688226651
C   C2        1.0  0.60530  0.83040  0.88050  1.0000 0.0688226651
C   C3        1.0  0.18570  0.18130  0.02910  1.0000 0.0617370149
C   C4        1.0  0.81430  0.81870  0.97090  1.0000 0.0617370149
C   C5        1.0  0.41700  0.49150  0.31100  1.0000 0.0434540538
C   C6        1.0  0.58300  0.50850  0.68900  1.0000 0.0434540538
C   C7        1.0  0.25380  0.39310  0.37560  1.0000 0.0868618618
C   C8        1.0  0.74620  0.60690  0.62440  1.0000 0.0868618618
C   C9        1.0  0.14570  0.30620  0.12690  1.0000 0.2506288629
C   C10       1.0  0.85430  0.69380  0.87310  1.0000 0.2506288629
C   C11       1.0  0.25680  0.32600  0.20050  1.0000 -0.3493859553
C   C12       1.0  0.74320  0.67400  0.79950  1.0000 -0.3493859553
C   C13       1.0  0.16730  0.41440  0.23290  1.0000 0.2506288629
C   C14       1.0  0.83270  0.58560  0.76710  1.0000 0.2506288629
C   C15       1.0  0.20220  0.48490  0.17020  1.0000 -0.3179137939
C   C16       1.0  0.79780  0.51510  0.82980  1.0000 -0.3179137939
C   C17       1.0  0.08910  0.46440  0.09810  1.0000 0.0801550869
C   C18       1.0  0.91090  0.53560  0.90190  1.0000 0.0801550869
C   C19       1.0  0.18450  0.37640  0.06420  1.0000 -0.3096284255
C   C20       1.0  0.81550  0.62360  0.93580  1.0000 -0.3096284255
C   C21       1.0  0.91710  0.30030  0.15060  1.0000 -0.3179137939
C   C22       1.0  0.08290  0.69970  0.84940  1.0000 -0.3179137939
C   C23       1.0  0.82810  0.39010  0.18300  1.0000 0.0868618618
C   C24       1.0  0.17190  0.60990  0.81700  1.0000 0.0868618618
C   C25       1.0  0.94020  0.41080  0.25700  1.0000 -0.3179137939
C   C26       1.0  0.05980  0.58920  0.74300  1.0000 -0.3179137939
C   C27       1.0  0.86210  0.45890  0.12130  1.0000 -0.2995207989
C   C28       1.0  0.13790  0.54110  0.87870  1.0000 -0.2995207989
C   C29       1.0  0.74770  0.32810  0.51760  1.0000 0.0801550869
C   C30       1.0  0.25230  0.67190  0.48240  1.0000 0.0801550869
C   C31       1.0  0.93000  0.33060  0.61680  1.0000 0.0479809745
C   C32       1.0  0.07000  0.66940  0.38320  1.0000 0.0479809745
C   C33       1.0  0.72120  0.10720  0.87050  1.0000 0.0688226651
C   C34       1.0  0.27880  0.89280  0.12950  1.0000 0.0688226651
C   C35       1.0  0.95190  0.01730  0.81230  1.0000 0.0688226651
C   C36       1.0  0.04810  0.98270  0.18770  1.0000 0.0688226651
C   C37       1.0  0.70530  0.20310  0.61380  1.0000 0.2506288629
C   C38       1.0  0.29470  0.79690  0.38620  1.0000 0.2506288629
C   C39       1.0  0.77830  0.18020  0.69560  1.0000 -0.3493859553
C   C40       1.0  0.22170  0.81980  0.30440  1.0000 -0.3493859553
C   C41       1.0  0.70030  0.09260  0.72200  1.0000 0.2506288629
C   C42       1.0  0.29970  0.90740  0.27800  1.0000 0.2506288629
C   C43       1.0  0.78430  0.02180  0.66290  1.0000 -0.3096284255
C   C44       1.0  0.21570  0.97820  0.33710  1.0000 -0.3096284255
C   C45       1.0  0.70880  0.04490  0.58230  1.0000 0.0868618618
C   C46       1.0  0.29120  0.95510  0.41770  1.0000 0.0801550869
C   C47       1.0  0.79010  0.13240  0.55450  1.0000 -0.2995207989
C   C48       1.0  0.20990  0.86760  0.44550  1.0000 -0.2995207989
C   C49       1.0  0.46860  0.21080  0.62100  1.0000 -0.3096284255
C   C50       1.0  0.53140  0.78920  0.37900  1.0000 -0.3096284255
C   C51       1.0  0.39170  0.12270  0.64880  1.0000 0.0868618618
C   C52       1.0  0.60830  0.87730  0.35120  1.0000 0.0868618618
C   C53       1.0  0.46740  0.09770  0.72950  1.0000 -0.3179137939
C   C54       1.0  0.53260  0.90230  0.27050  1.0000 -0.3179137939
C   C55       1.0  0.47570  0.05300  0.58840  1.0000 -0.2754995161
C   C56       1.0  0.52430  0.94700  0.41160  1.0000 -0.2754995161
N   N1        1.0  0.43990  0.10340  0.07280  1.0000 -0.1674612521
N   N2        1.0  0.56010  0.89660  0.92720  1.0000 -0.1674612521
N   N3        1.0  0.30470  0.10970  0.01460  1.0000 -0.1831498677
N   N4        1.0  0.69530  0.89030  0.98540  1.0000 -0.1831498677
N   N5        1.0  0.23710  0.22130  0.09460  1.0000 -0.0687228786
N   N6        1.0  0.76290  0.77870  0.90540  1.0000 -0.0687228786
N   N7        1.0  0.48370  0.48640  0.38210  1.0000 -0.1674612521
N   N8        1.0  0.51630  0.51360  0.61790  1.0000 -0.1674612521
N   N9        1.0  0.37360  0.42280  0.42340  1.0000 -0.1926561827
N   N10       1.0  0.62640  0.57720  0.57660  1.0000 -0.1926561827
N   N11       1.0  0.27550  0.43400  0.30390  1.0000 -0.0687228786
N   N12       1.0  0.72450  0.56600  0.69610  1.0000 -0.0687228786
N   N13       1.0  0.85510  0.39500  0.50660  1.0000 -0.1979602212
N   N14       1.0  0.14490  0.60500  0.49340  1.0000 -0.1979602212
N   N15       1.0  0.97640  0.39670  0.57090  1.0000 -0.1674612521
N   N16       1.0  0.02360  0.60330  0.42910  1.0000 -0.1674612521
N   N17       1.0  0.78650  0.28620  0.58600  1.0000 -0.0687228786
N   N18       1.0  0.21350  0.71380  0.41400  1.0000 -0.0687228786
N   N19       1.0  0.84200  0.07970  0.92420  1.0000 -0.1979602212
N   N20       1.0  0.15800  0.92030  0.07580  1.0000 -0.1979602212
N   N21       1.0  0.99250  0.02210  0.88610  1.0000 -0.1617309982
N   N22       1.0  0.00750  0.97790  0.11390  1.0000 -0.1617309982
N   N23       1.0  0.78420  0.07070  0.79980  1.0000 -0.0600917683
N   N24       1.0  0.21580  0.92930  0.20020  1.0000 -0.0600917683
N   N25       1.0  0.29080  0.83020  0.68060  1.0000 0.642049498
N   N26       1.0  0.70920  0.16980  0.31940  1.0000 0.642049498
O   O1        1.0  0.11080  0.85250  0.67870  1.0000 -0.3904128009
O   O2        1.0  0.37530  0.77560  0.63720  1.0000 -0.3954615528
O   O3        1.0  0.38500  0.86740  0.72680  1.0000 -0.4179122829
O   O4        1.0  0.88920  0.14750  0.32130  1.0000 -0.3904128009
O   O5        1.0  0.62470  0.22440  0.36280  1.0000 -0.3954615528
O   O6        1.0  0.61500  0.13260  0.27320  1.0000 -0.4179122829
