# DDEC6 charges by PACMAN v1.1 (https://github.com/mtap-research/PACMAN-charge/)
data_2012[CoDy][nan]3[ION]1
_chemical_formula_sum              "Dy24 Co16 H368 C576 N96 Cl8 O264"
_cell_length_a       18.3965
_cell_length_b       18.5561
_cell_length_c       48.8513
_cell_angle_alpha    90
_cell_angle_beta     90
_cell_angle_gamma    90

_symmetry_space_group_name_H-M    "P 1"
_symmetry_Int_Tables_number       1

loop_
  _symmetry_equiv_pos_as_xyz
  'x, y, z'

loop_
  _atom_site_type_symbol
  _atom_site_label
  _atom_site_symmetry_multiplicity
  _atom_site_fract_x
  _atom_site_fract_y
  _atom_site_fract_z
  _atom_site_occupancy
  _atom_site_charge
Dy  Dy1       1.0  0.79993  0.57146  0.12174  1.0000 2.1378742512
Dy  Dy2       1.0  0.29993  0.42854  0.37826  1.0000 2.1378742512
Dy  Dy3       1.0  0.20007  0.92854  0.62174  1.0000 2.1378742512
Dy  Dy4       1.0  0.70007  0.07146  0.87826  1.0000 2.1378742512
Dy  Dy5       1.0  0.20007  0.42854  0.87826  1.0000 2.1378742512
Dy  Dy6       1.0  0.70007  0.57146  0.62174  1.0000 2.1378742512
Dy  Dy7       1.0  0.79993  0.07146  0.37826  1.0000 2.1378742512
Dy  Dy8       1.0  0.29993  0.92854  0.12174  1.0000 2.1378742512
Dy  Dy9       1.0  0.63108  0.40166  0.12226  1.0000 2.1378742512
Dy  Dy10      1.0  0.13108  0.59834  0.37774  1.0000 2.1378742512
Dy  Dy11      1.0  0.36892  0.09834  0.62226  1.0000 2.1378742512
Dy  Dy12      1.0  0.86892  0.90166  0.87774  1.0000 2.1378742512
Dy  Dy13      1.0  0.36892  0.59834  0.87774  1.0000 2.1378742512
Dy  Dy14      1.0  0.86892  0.40166  0.62226  1.0000 2.1378742512
Dy  Dy15      1.0  0.63108  0.90166  0.37774  1.0000 2.1378742512
Dy  Dy16      1.0  0.13108  0.09834  0.12226  1.0000 2.1378742512
Dy  Dy17      1.0  0.68263  0.51288  0.37598  1.0000 1.9824687
Dy  Dy18      1.0  0.18263  0.48712  0.12402  1.0000 1.9824687
Dy  Dy19      1.0  0.31737  0.98712  0.87598  1.0000 1.9824687
Dy  Dy20      1.0  0.81737  0.01288  0.62402  1.0000 1.9824687
Dy  Dy21      1.0  0.31737  0.48712  0.62402  1.0000 1.9824687
Dy  Dy22      1.0  0.81737  0.51288  0.87598  1.0000 1.9824687
Dy  Dy23      1.0  0.68263  0.01288  0.12402  1.0000 1.9824687
Dy  Dy24      1.0  0.18263  0.98712  0.37598  1.0000 1.9824687
Co  Co1       1.0  0.10867  0.74748  0.00210  1.0000 0.4645009395
Co  Co2       1.0  0.60867  0.25252  0.49790  1.0000 0.4645009395
Co  Co3       1.0  0.89133  0.75252  0.50210  1.0000 0.4653975423
Co  Co4       1.0  0.39133  0.24748  0.99790  1.0000 0.4653975423
Co  Co5       1.0  0.89133  0.25252  0.99790  1.0000 0.4653975423
Co  Co6       1.0  0.39133  0.74748  0.50210  1.0000 0.4653975423
Co  Co7       1.0  0.10867  0.24748  0.49790  1.0000 0.4645009395
Co  Co8       1.0  0.60867  0.75252  0.00210  1.0000 0.4645009395
Co  Co9       1.0  0.45475  0.61441  0.24483  1.0000 0.5605011321
Co  Co10      1.0  0.95475  0.38559  0.25517  1.0000 0.5605011321
Co  Co11      1.0  0.54525  0.88559  0.74483  1.0000 0.5605011321
Co  Co12      1.0  0.04525  0.11441  0.75517  1.0000 0.5544785019
Co  Co13      1.0  0.54525  0.38559  0.75517  1.0000 0.5605011321
Co  Co14      1.0  0.04525  0.61441  0.74483  1.0000 0.5605011321
Co  Co15      1.0  0.45475  0.11441  0.25517  1.0000 0.5605011321
Co  Co16      1.0  0.95475  0.88559  0.24483  1.0000 0.5605011321
H   H1        1.0  0.96230  0.54490  0.13180  1.0000 0.3808141705
H   H2        1.0  0.46230  0.45510  0.36820  1.0000 0.3808141705
H   H3        1.0  0.03770  0.95510  0.63180  1.0000 0.3808141705
H   H4        1.0  0.53770  0.04490  0.86820  1.0000 0.3808141705
H   H5        1.0  0.03770  0.45510  0.86820  1.0000 0.3808141705
H   H6        1.0  0.53770  0.54490  0.63180  1.0000 0.3808141705
H   H7        1.0  0.96230  0.04490  0.36820  1.0000 0.3808141705
H   H8        1.0  0.46230  0.95510  0.13180  1.0000 0.3808141705
H   H9        1.0  0.93530  0.47560  0.12760  1.0000 0.3551617619
H   H10       1.0  0.43530  0.52440  0.37240  1.0000 0.3551617619
H   H11       1.0  0.06470  0.02440  0.62760  1.0000 0.3551617619
H   H12       1.0  0.56470  0.97560  0.87240  1.0000 0.3551617619
H   H13       1.0  0.06470  0.52440  0.87240  1.0000 0.3551617619
H   H14       1.0  0.56470  0.47560  0.62760  1.0000 0.3551617619
H   H15       1.0  0.93530  0.97560  0.37240  1.0000 0.3551617619
H   H16       1.0  0.43530  0.02440  0.12760  1.0000 0.3551617619
H   H17       1.0  0.79680  0.72290  0.11140  1.0000 0.3746199068
H   H18       1.0  0.29680  0.27710  0.38860  1.0000 0.3746199068
H   H19       1.0  0.20320  0.77710  0.61140  1.0000 0.3808141705
H   H20       1.0  0.70320  0.22290  0.88860  1.0000 0.3746199068
H   H21       1.0  0.20320  0.27710  0.88860  1.0000 0.3746199068
H   H22       1.0  0.70320  0.72290  0.61140  1.0000 0.3746199068
H   H23       1.0  0.79680  0.22290  0.38860  1.0000 0.3746199068
H   H24       1.0  0.29680  0.77710  0.11140  1.0000 0.3808141705
H   H25       1.0  0.75340  0.72160  0.13420  1.0000 0.3535815831
H   H26       1.0  0.25340  0.27840  0.36580  1.0000 0.3535815831
H   H27       1.0  0.24660  0.77840  0.63420  1.0000 0.3535815831
H   H28       1.0  0.74660  0.22160  0.86580  1.0000 0.3535815831
H   H29       1.0  0.24660  0.27840  0.86580  1.0000 0.3535815831
H   H30       1.0  0.74660  0.72160  0.63420  1.0000 0.3535815831
H   H31       1.0  0.75340  0.22160  0.36580  1.0000 0.3535815831
H   H32       1.0  0.25340  0.77840  0.13420  1.0000 0.3535815831
H   H33       1.0  0.00490  0.74310  0.05180  1.0000 0.1198201852
H   H34       1.0  0.50490  0.25690  0.44820  1.0000 0.1198201852
H   H35       1.0  0.99510  0.75690  0.55180  1.0000 0.1198201852
H   H36       1.0  0.49510  0.24310  0.94820  1.0000 0.1198201852
H   H37       1.0  0.99510  0.25690  0.94820  1.0000 0.1198201852
H   H38       1.0  0.49510  0.74310  0.55180  1.0000 0.1198201852
H   H39       1.0  0.00490  0.24310  0.44820  1.0000 0.1198201852
H   H40       1.0  0.50490  0.75690  0.05180  1.0000 0.1198201852
H   H41       1.0  0.87430  0.57580  0.03600  1.0000 0.1300390578
H   H42       1.0  0.37430  0.42420  0.46400  1.0000 0.1300390578
H   H43       1.0  0.12570  0.92420  0.53600  1.0000 0.1300390578
H   H44       1.0  0.62570  0.07580  0.96400  1.0000 0.1300390578
H   H45       1.0  0.12570  0.42420  0.96400  1.0000 0.1300390578
H   H46       1.0  0.62570  0.57580  0.53600  1.0000 0.1300390578
H   H47       1.0  0.87430  0.07580  0.46400  1.0000 0.1300390578
H   H48       1.0  0.37430  0.92420  0.03600  1.0000 0.1300390578
H   H49       1.0  0.53040  0.50200  0.05980  1.0000 0.1198201852
H   H50       1.0  0.03040  0.49800  0.44020  1.0000 0.1198201852
H   H51       1.0  0.46960  0.99800  0.55980  1.0000 0.1198201852
H   H52       1.0  0.96960  0.00200  0.94020  1.0000 0.1198201852
H   H53       1.0  0.46960  0.49800  0.94020  1.0000 0.1198201852
H   H54       1.0  0.96960  0.50200  0.55980  1.0000 0.1198201852
H   H55       1.0  0.53040  0.00200  0.44020  1.0000 0.1198201852
H   H56       1.0  0.03040  0.99800  0.05980  1.0000 0.1198201852
H   H57       1.0  0.66700  0.66667  0.05010  1.0000 0.1300390578
H   H58       1.0  0.16700  0.33333  0.44990  1.0000 0.1300390578
H   H59       1.0  0.33300  0.83333  0.55010  1.0000 0.1300390578
H   H60       1.0  0.83300  0.16667  0.94990  1.0000 0.1300390578
H   H61       1.0  0.33300  0.33333  0.94990  1.0000 0.1300390578
H   H62       1.0  0.83300  0.66667  0.55010  1.0000 0.1300390578
H   H63       1.0  0.66700  0.16667  0.44990  1.0000 0.1300390578
H   H64       1.0  0.16700  0.83333  0.05010  1.0000 0.1300390578
H   H65       1.0  0.68180  0.68460  0.16770  1.0000 0.1300390578
H   H66       1.0  0.18180  0.31540  0.33230  1.0000 0.1300390578
H   H67       1.0  0.31820  0.81540  0.66770  1.0000 0.1300390578
H   H68       1.0  0.81820  0.18460  0.83230  1.0000 0.1300390578
H   H69       1.0  0.31820  0.31540  0.83230  1.0000 0.1300390578
H   H70       1.0  0.81820  0.68460  0.66770  1.0000 0.1300390578
H   H71       1.0  0.68180  0.18460  0.33230  1.0000 0.1300390578
H   H72       1.0  0.18180  0.81540  0.16770  1.0000 0.1300390578
H   H73       1.0  0.53210  0.54440  0.19380  1.0000 0.1198201852
H   H74       1.0  0.03210  0.45560  0.30620  1.0000 0.1198201852
H   H75       1.0  0.46790  0.95560  0.69380  1.0000 0.1198201852
H   H76       1.0  0.96790  0.04440  0.80620  1.0000 0.1198201852
H   H77       1.0  0.46790  0.45560  0.80620  1.0000 0.1198201852
H   H78       1.0  0.96790  0.54440  0.69380  1.0000 0.1198201852
H   H79       1.0  0.53210  0.04440  0.30620  1.0000 0.1198201852
H   H80       1.0  0.03210  0.95560  0.19380  1.0000 0.1198201852
H   H81       1.0  0.94300  0.79810  0.18910  1.0000 0.1103810028
H   H82       1.0  0.44300  0.20190  0.31090  1.0000 0.1103810028
H   H83       1.0  0.05700  0.70190  0.68910  1.0000 0.1103810028
H   H84       1.0  0.55700  0.29810  0.81090  1.0000 0.1103810028
H   H85       1.0  0.05700  0.20190  0.81090  1.0000 0.1103810028
H   H86       1.0  0.55700  0.79810  0.68910  1.0000 0.1103810028
H   H87       1.0  0.94300  0.29810  0.31090  1.0000 0.1103810028
H   H88       1.0  0.44300  0.70190  0.18910  1.0000 0.1103810028
H   H89       1.0  0.80220  0.63750  0.20030  1.0000 0.1300390578
H   H90       1.0  0.30220  0.36250  0.29970  1.0000 0.1300390578
H   H91       1.0  0.19780  0.86250  0.70030  1.0000 0.1300390578
H   H92       1.0  0.69780  0.13750  0.79970  1.0000 0.1300390578
H   H93       1.0  0.19780  0.36250  0.79970  1.0000 0.1300390578
H   H94       1.0  0.69780  0.63750  0.70030  1.0000 0.1300390578
H   H95       1.0  0.80220  0.13750  0.29970  1.0000 0.1300390578
H   H96       1.0  0.30220  0.86250  0.20030  1.0000 0.1300390578
H   H97       1.0  0.93840  0.55370  0.99670  1.0000 0.1398630474
H   H98       1.0  0.43840  0.44630  0.50330  1.0000 0.1398630474
H   H99       1.0  0.06160  0.94630  0.49670  1.0000 0.1398630474
H   H100      1.0  0.56160  0.05370  0.00330  1.0000 0.1398630474
H   H101      1.0  0.06160  0.44630  0.00330  1.0000 0.1398630474
H   H102      1.0  0.56160  0.55370  0.49670  1.0000 0.1398630474
H   H103      1.0  0.93840  0.05370  0.50330  1.0000 0.1398630474
H   H104      1.0  0.43840  0.94630  0.99670  1.0000 0.1398630474
H   H105      1.0  0.46200  0.54490  0.02230  1.0000 0.1398630474
H   H106      1.0  0.96200  0.45510  0.47770  1.0000 0.1398630474
H   H107      1.0  0.53800  0.95510  0.52230  1.0000 0.1398630474
H   H108      1.0  0.03800  0.04490  0.97770  1.0000 0.1398630474
H   H109      1.0  0.53800  0.45510  0.97770  1.0000 0.1398630474
H   H110      1.0  0.03800  0.54490  0.52230  1.0000 0.1398630474
H   H111      1.0  0.46200  0.04490  0.47770  1.0000 0.1398630474
H   H112      1.0  0.96200  0.95510  0.02230  1.0000 0.1398630474
H   H113      1.0  0.65550  0.75740  0.20560  1.0000 0.1300390578
H   H114      1.0  0.15550  0.24260  0.29440  1.0000 0.1300390578
H   H115      1.0  0.34450  0.74260  0.70560  1.0000 0.1300390578
H   H116      1.0  0.84450  0.25740  0.79440  1.0000 0.1300390578
H   H117      1.0  0.34450  0.24260  0.79440  1.0000 0.1300390578
H   H118      1.0  0.84450  0.75740  0.70560  1.0000 0.1300390578
H   H119      1.0  0.65550  0.25740  0.29440  1.0000 0.1300390578
H   H120      1.0  0.15550  0.74260  0.20560  1.0000 0.1300390578
H   H121      1.0  0.77940  0.68200  0.24400  1.0000 0.1300390578
H   H122      1.0  0.27940  0.31800  0.25600  1.0000 0.1300390578
H   H123      1.0  0.22060  0.81800  0.74400  1.0000 0.1300390578
H   H124      1.0  0.72060  0.18200  0.75600  1.0000 0.1300390578
H   H125      1.0  0.22060  0.31800  0.75600  1.0000 0.1300390578
H   H126      1.0  0.72060  0.68200  0.74400  1.0000 0.1300390578
H   H127      1.0  0.77940  0.18200  0.25600  1.0000 0.1300390578
H   H128      1.0  0.27940  0.81800  0.24400  1.0000 0.1300390578
H   H129      1.0  0.20820  0.68610  0.95660  1.0000 0.1198201852
H   H130      1.0  0.70820  0.31390  0.54340  1.0000 0.1198201852
H   H131      1.0  0.79180  0.81390  0.45660  1.0000 0.1198201852
H   H132      1.0  0.29180  0.18610  0.04340  1.0000 0.1198201852
H   H133      1.0  0.79180  0.31390  0.04340  1.0000 0.1198201852
H   H134      1.0  0.29180  0.68610  0.45660  1.0000 0.1198201852
H   H135      1.0  0.20820  0.18610  0.54340  1.0000 0.1198201852
H   H136      1.0  0.70820  0.81390  0.95660  1.0000 0.1198201852
H   H137      1.0  0.00780  0.53940  0.95990  1.0000 0.1300390578
H   H138      1.0  0.50780  0.46060  0.54010  1.0000 0.1300390578
H   H139      1.0  0.99220  0.96060  0.45990  1.0000 0.1300390578
H   H140      1.0  0.49220  0.03940  0.04010  1.0000 0.1300390578
H   H141      1.0  0.99220  0.46060  0.04010  1.0000 0.1300390578
H   H142      1.0  0.49220  0.53940  0.45990  1.0000 0.1300390578
H   H143      1.0  0.00780  0.03940  0.54010  1.0000 0.1300390578
H   H144      1.0  0.50780  0.96060  0.95990  1.0000 0.1300390578
H   H145      1.0  0.40960  0.59210  0.98490  1.0000 0.1300390578
H   H146      1.0  0.90960  0.40790  0.51510  1.0000 0.1300390578
H   H147      1.0  0.59040  0.90790  0.48490  1.0000 0.1300390578
H   H148      1.0  0.09040  0.09210  0.01510  1.0000 0.1300390578
H   H149      1.0  0.59040  0.40790  0.01510  1.0000 0.1300390578
H   H150      1.0  0.09040  0.59210  0.48490  1.0000 0.1300390578
H   H151      1.0  0.40960  0.09210  0.51510  1.0000 0.1300390578
H   H152      1.0  0.90960  0.90790  0.98490  1.0000 0.1300390578
H   H153      1.0  0.53810  0.77530  0.94530  1.0000 0.1103810028
H   H154      1.0  0.03810  0.22470  0.55470  1.0000 0.1103810028
H   H155      1.0  0.46190  0.72470  0.44530  1.0000 0.1103810028
H   H156      1.0  0.96190  0.27530  0.05470  1.0000 0.1103810028
H   H157      1.0  0.46190  0.22470  0.05470  1.0000 0.1103810028
H   H158      1.0  0.96190  0.77530  0.44530  1.0000 0.1103810028
H   H159      1.0  0.53810  0.27530  0.55470  1.0000 0.1103810028
H   H160      1.0  0.03810  0.72470  0.94530  1.0000 0.1103810028
H   H161      1.0  0.64410  0.80430  0.24640  1.0000 0.1300390578
H   H162      1.0  0.14410  0.19570  0.25360  1.0000 0.1300390578
H   H163      1.0  0.35590  0.69570  0.74640  1.0000 0.1300390578
H   H164      1.0  0.85590  0.30430  0.75360  1.0000 0.1300390578
H   H165      1.0  0.35590  0.19570  0.75360  1.0000 0.1300390578
H   H166      1.0  0.85590  0.80430  0.74640  1.0000 0.1300390578
H   H167      1.0  0.64410  0.30430  0.25360  1.0000 0.1300390578
H   H168      1.0  0.14410  0.69570  0.24640  1.0000 0.1300390578
H   H169      1.0  0.47390  0.69890  0.30130  1.0000 0.1103810028
H   H170      1.0  0.97390  0.30110  0.19870  1.0000 0.1103810028
H   H171      1.0  0.52610  0.80110  0.80130  1.0000 0.1103810028
H   H172      1.0  0.02610  0.19890  0.69870  1.0000 0.1103810028
H   H173      1.0  0.52610  0.30110  0.69870  1.0000 0.1103810028
H   H174      1.0  0.02610  0.69890  0.80130  1.0000 0.1103810028
H   H175      1.0  0.47390  0.19890  0.19870  1.0000 0.1103810028
H   H176      1.0  0.97390  0.80110  0.30130  1.0000 0.1103810028
H   H177      1.0  0.54940  0.57540  0.29520  1.0000 0.1198201852
H   H178      1.0  0.04940  0.42460  0.20480  1.0000 0.1198201852
H   H179      1.0  0.45060  0.92460  0.79520  1.0000 0.1198201852
H   H180      1.0  0.95060  0.07540  0.70480  1.0000 0.1198201852
H   H181      1.0  0.45060  0.42460  0.70480  1.0000 0.1198201852
H   H182      1.0  0.95060  0.57540  0.79520  1.0000 0.1198201852
H   H183      1.0  0.54940  0.07540  0.20480  1.0000 0.1198201852
H   H184      1.0  0.04940  0.92460  0.29520  1.0000 0.1198201852
H   H185      1.0  0.35460  0.57740  0.19520  1.0000 0.1198201852
H   H186      1.0  0.85460  0.42260  0.30480  1.0000 0.1198201852
H   H187      1.0  0.64540  0.92260  0.69520  1.0000 0.1198201852
H   H188      1.0  0.14540  0.07740  0.80480  1.0000 0.1198201852
H   H189      1.0  0.64540  0.42260  0.80480  1.0000 0.1198201852
H   H190      1.0  0.14540  0.57740  0.69520  1.0000 0.1198201852
H   H191      1.0  0.35460  0.07740  0.30480  1.0000 0.1198201852
H   H192      1.0  0.85460  0.92260  0.19520  1.0000 0.1198201852
H   H193      1.0  0.76280  0.73040  0.28420  1.0000 0.1300390578
H   H194      1.0  0.26280  0.26960  0.21580  1.0000 0.1300390578
H   H195      1.0  0.23720  0.76960  0.78420  1.0000 0.1300390578
H   H196      1.0  0.73720  0.23040  0.71580  1.0000 0.1300390578
H   H197      1.0  0.23720  0.26960  0.71580  1.0000 0.1300390578
H   H198      1.0  0.73720  0.73040  0.78420  1.0000 0.1300390578
H   H199      1.0  0.76280  0.23040  0.21580  1.0000 0.1300390578
H   H200      1.0  0.26280  0.76960  0.28420  1.0000 0.1300390578
H   H201      1.0  0.87420  0.94830  0.29740  1.0000 0.1198201852
H   H202      1.0  0.37420  0.05170  0.20260  1.0000 0.1198201852
H   H203      1.0  0.12580  0.55170  0.79740  1.0000 0.1198201852
H   H204      1.0  0.62580  0.44830  0.70260  1.0000 0.1198201852
H   H205      1.0  0.12580  0.05170  0.70260  1.0000 0.1198201852
H   H206      1.0  0.62580  0.94830  0.79740  1.0000 0.1198201852
H   H207      1.0  0.87420  0.44830  0.20260  1.0000 0.1198201852
H   H208      1.0  0.37420  0.55170  0.29740  1.0000 0.1198201852
H   H209      1.0  0.09030  0.52480  0.92500  1.0000 0.1300390578
H   H210      1.0  0.59030  0.47520  0.57500  1.0000 0.1300390578
H   H211      1.0  0.90970  0.97520  0.42500  1.0000 0.1300390578
H   H212      1.0  0.40970  0.02480  0.07500  1.0000 0.1300390578
H   H213      1.0  0.90970  0.47520  0.07500  1.0000 0.1300390578
H   H214      1.0  0.40970  0.52480  0.42500  1.0000 0.1300390578
H   H215      1.0  0.09030  0.02480  0.57500  1.0000 0.1300390578
H   H216      1.0  0.59030  0.97520  0.92500  1.0000 0.1300390578
H   H217      1.0  0.37210  0.63810  0.94260  1.0000 0.1300390578
H   H218      1.0  0.87210  0.36190  0.55740  1.0000 0.1300390578
H   H219      1.0  0.62790  0.86190  0.44260  1.0000 0.1300390578
H   H220      1.0  0.12790  0.13810  0.05740  1.0000 0.1300390578
H   H221      1.0  0.62790  0.36190  0.05740  1.0000 0.1300390578
H   H222      1.0  0.12790  0.63810  0.44260  1.0000 0.1300390578
H   H223      1.0  0.37210  0.13810  0.55740  1.0000 0.1300390578
H   H224      1.0  0.87210  0.86190  0.94260  1.0000 0.1300390578
H   H225      1.0  0.62690  0.85000  0.28940  1.0000 0.1300390578
H   H226      1.0  0.12690  0.15000  0.21060  1.0000 0.1300390578
H   H227      1.0  0.37310  0.65000  0.78940  1.0000 0.1300390578
H   H228      1.0  0.87310  0.35000  0.71060  1.0000 0.1300390578
H   H229      1.0  0.37310  0.15000  0.71060  1.0000 0.1300390578
H   H230      1.0  0.87310  0.85000  0.78940  1.0000 0.1300390578
H   H231      1.0  0.62690  0.35000  0.21060  1.0000 0.1300390578
H   H232      1.0  0.12690  0.65000  0.28940  1.0000 0.1300390578
H   H233      1.0  0.47360  0.35380  0.26610  1.0000 0.1198201852
H   H234      1.0  0.97360  0.64620  0.23390  1.0000 0.1198201852
H   H235      1.0  0.52640  0.14620  0.76610  1.0000 0.1198201852
H   H236      1.0  0.02640  0.85380  0.73390  1.0000 0.1198201852
H   H237      1.0  0.52640  0.64620  0.73390  1.0000 0.1198201852
H   H238      1.0  0.02640  0.35380  0.76610  1.0000 0.1198201852
H   H239      1.0  0.47360  0.85380  0.23390  1.0000 0.1198201852
H   H240      1.0  0.97360  0.14620  0.26610  1.0000 0.1198201852
H   H241      1.0  0.42580  0.35390  0.22390  1.0000 0.1198201852
H   H242      1.0  0.92580  0.64610  0.27610  1.0000 0.1198201852
H   H243      1.0  0.57420  0.14610  0.72390  1.0000 0.1198201852
H   H244      1.0  0.07420  0.85390  0.77610  1.0000 0.1198201852
H   H245      1.0  0.57420  0.64610  0.77610  1.0000 0.1198201852
H   H246      1.0  0.07420  0.35390  0.72390  1.0000 0.1198201852
H   H247      1.0  0.42580  0.85390  0.27610  1.0000 0.1198201852
H   H248      1.0  0.92580  0.14610  0.22390  1.0000 0.1198201852
H   H249      1.0  0.73900  0.79590  0.32350  1.0000 0.1398630474
H   H250      1.0  0.23900  0.20410  0.17650  1.0000 0.1398630474
H   H251      1.0  0.26100  0.70410  0.82350  1.0000 0.1398630474
H   H252      1.0  0.76100  0.29590  0.67650  1.0000 0.1398630474
H   H253      1.0  0.26100  0.20410  0.67650  1.0000 0.1398630474
H   H254      1.0  0.76100  0.79590  0.82350  1.0000 0.1398630474
H   H255      1.0  0.73900  0.29590  0.17650  1.0000 0.1398630474
H   H256      1.0  0.23900  0.70410  0.32350  1.0000 0.1398630474
H   H257      1.0  0.53830  0.36260  0.30650  1.0000 0.1300390578
H   H258      1.0  0.03830  0.63740  0.19350  1.0000 0.1300390578
H   H259      1.0  0.46170  0.13740  0.80650  1.0000 0.1300390578
H   H260      1.0  0.96170  0.86260  0.69350  1.0000 0.1300390578
H   H261      1.0  0.46170  0.63740  0.69350  1.0000 0.1300390578
H   H262      1.0  0.96170  0.36260  0.80650  1.0000 0.1300390578
H   H263      1.0  0.53830  0.86260  0.19350  1.0000 0.1300390578
H   H264      1.0  0.03830  0.13740  0.30650  1.0000 0.1300390578
H   H265      1.0  0.35610  0.36380  0.18430  1.0000 0.1300390578
H   H266      1.0  0.85610  0.63620  0.31570  1.0000 0.1300390578
H   H267      1.0  0.64390  0.13620  0.68430  1.0000 0.1300390578
H   H268      1.0  0.14390  0.86380  0.81570  1.0000 0.1300390578
H   H269      1.0  0.64390  0.63620  0.81570  1.0000 0.1300390578
H   H270      1.0  0.14390  0.36380  0.68430  1.0000 0.1300390578
H   H271      1.0  0.35610  0.86380  0.31570  1.0000 0.1300390578
H   H272      1.0  0.85610  0.13620  0.18430  1.0000 0.1300390578
H   H273      1.0  0.63280  0.66680  0.37450  1.0000 0.4066909309
H   H274      1.0  0.13280  0.33320  0.12550  1.0000 0.4066909309
H   H275      1.0  0.36720  0.83320  0.87450  1.0000 0.4066909309
H   H276      1.0  0.86720  0.16680  0.62550  1.0000 0.4066909309
H   H277      1.0  0.36720  0.33320  0.62550  1.0000 0.4066909309
H   H278      1.0  0.86720  0.66680  0.87450  1.0000 0.4066909309
H   H279      1.0  0.63280  0.16680  0.12550  1.0000 0.4066909309
H   H280      1.0  0.13280  0.83320  0.37450  1.0000 0.4066909309
H   H281      1.0  0.70660  0.67160  0.36710  1.0000 0.4022387657
H   H282      1.0  0.20660  0.32840  0.13290  1.0000 0.4022387657
H   H283      1.0  0.29340  0.82840  0.86710  1.0000 0.4022387657
H   H284      1.0  0.79340  0.17160  0.63290  1.0000 0.4022387657
H   H285      1.0  0.29340  0.32840  0.63290  1.0000 0.4022387657
H   H286      1.0  0.79340  0.67160  0.86710  1.0000 0.4022387657
H   H287      1.0  0.70660  0.17160  0.13290  1.0000 0.4022387657
H   H288      1.0  0.20660  0.82840  0.36710  1.0000 0.4022387657
H   H289      1.0  0.52010  0.54730  0.39370  1.0000 0.3535815831
H   H290      1.0  0.02010  0.45270  0.10630  1.0000 0.3535815831
H   H291      1.0  0.47990  0.95270  0.89370  1.0000 0.3535815831
H   H292      1.0  0.97990  0.04730  0.60630  1.0000 0.3535815831
H   H293      1.0  0.47990  0.45270  0.60630  1.0000 0.3535815831
H   H294      1.0  0.97990  0.54730  0.89370  1.0000 0.3535815831
H   H295      1.0  0.52010  0.04730  0.10630  1.0000 0.3535815831
H   H296      1.0  0.02010  0.95270  0.39370  1.0000 0.3535815831
H   H297      1.0  0.57070  0.53130  0.41340  1.0000 0.3535815831
H   H298      1.0  0.07070  0.46870  0.08660  1.0000 0.3535815831
H   H299      1.0  0.42930  0.96870  0.91340  1.0000 0.3535815831
H   H300      1.0  0.92930  0.03130  0.58660  1.0000 0.3535815831
H   H301      1.0  0.42930  0.46870  0.58660  1.0000 0.3535815831
H   H302      1.0  0.92930  0.53130  0.91340  1.0000 0.3535815831
H   H303      1.0  0.57070  0.03130  0.08660  1.0000 0.3535815831
H   H304      1.0  0.07070  0.96870  0.41340  1.0000 0.3535815831
H   H305      1.0  0.86490  0.63860  0.46030  1.0000 0.1198201852
H   H306      1.0  0.36490  0.36140  0.03970  1.0000 0.1198201852
H   H307      1.0  0.13510  0.86140  0.96030  1.0000 0.1198201852
H   H308      1.0  0.63510  0.13860  0.53970  1.0000 0.1198201852
H   H309      1.0  0.13510  0.36140  0.53970  1.0000 0.1198201852
H   H310      1.0  0.63510  0.63860  0.96030  1.0000 0.1198201852
H   H311      1.0  0.86490  0.13860  0.03970  1.0000 0.1198201852
H   H312      1.0  0.36490  0.86140  0.46030  1.0000 0.1198201852
H   H313      1.0  0.64840  0.63160  0.45170  1.0000 0.1300390578
H   H314      1.0  0.14840  0.36840  0.04830  1.0000 0.1300390578
H   H315      1.0  0.35160  0.86840  0.95170  1.0000 0.1300390578
H   H316      1.0  0.85160  0.13160  0.54830  1.0000 0.1300390578
H   H317      1.0  0.35160  0.36840  0.54830  1.0000 0.1300390578
H   H318      1.0  0.85160  0.63160  0.95170  1.0000 0.1300390578
H   H319      1.0  0.64840  0.13160  0.04830  1.0000 0.1300390578
H   H320      1.0  0.14840  0.86840  0.45170  1.0000 0.1300390578
H   H321      1.0  0.63730  0.71320  0.48720  1.0000 0.1300390578
H   H322      1.0  0.13730  0.28680  0.01280  1.0000 0.1300390578
H   H323      1.0  0.36270  0.78680  0.98720  1.0000 0.1300390578
H   H324      1.0  0.86270  0.21320  0.51280  1.0000 0.1300390578
H   H325      1.0  0.36270  0.28680  0.51280  1.0000 0.1300390578
H   H326      1.0  0.86270  0.71320  0.98720  1.0000 0.1300390578
H   H327      1.0  0.63730  0.21320  0.01280  1.0000 0.1300390578
H   H328      1.0  0.13730  0.78680  0.48720  1.0000 0.1300390578
H   H329      1.0  0.64180  0.79150  0.52450  1.0000 0.1198201852
H   H330      1.0  0.14180  0.20850  0.97550  1.0000 0.1198201852
H   H331      1.0  0.35820  0.70850  0.02450  1.0000 0.1198201852
H   H332      1.0  0.85820  0.29150  0.47550  1.0000 0.1198201852
H   H333      1.0  0.35820  0.20850  0.47550  1.0000 0.1198201852
H   H334      1.0  0.85820  0.79150  0.02450  1.0000 0.1198201852
H   H335      1.0  0.64180  0.29150  0.97550  1.0000 0.1198201852
H   H336      1.0  0.14180  0.70850  0.52450  1.0000 0.1198201852
H   H337      1.0  0.87340  0.83680  0.55510  1.0000 0.1198201852
H   H338      1.0  0.37340  0.16320  0.94490  1.0000 0.1198201852
H   H339      1.0  0.12660  0.66320  0.05510  1.0000 0.1198201852
H   H340      1.0  0.62660  0.33680  0.44490  1.0000 0.1198201852
H   H341      1.0  0.12660  0.16320  0.44490  1.0000 0.1198201852
H   H342      1.0  0.62660  0.83680  0.05510  1.0000 0.1198201852
H   H343      1.0  0.87340  0.33680  0.94490  1.0000 0.1198201852
H   H344      1.0  0.37340  0.66320  0.55510  1.0000 0.1198201852
H   H345      1.0  0.65820  0.85970  0.56460  1.0000 0.1398630474
H   H346      1.0  0.15820  0.14030  0.93540  1.0000 0.1398630474
H   H347      1.0  0.34180  0.64030  0.06460  1.0000 0.1398630474
H   H348      1.0  0.84180  0.35970  0.43540  1.0000 0.1398630474
H   H349      1.0  0.34180  0.14030  0.43540  1.0000 0.1398630474
H   H350      1.0  0.84180  0.85970  0.06460  1.0000 0.1398630474
H   H351      1.0  0.65820  0.35970  0.93540  1.0000 0.1398630474
H   H352      1.0  0.15820  0.64030  0.56460  1.0000 0.1398630474
H   H353      1.0  0.46510  0.42520  0.10790  1.0000 0.4153760727
H   H354      1.0  0.96510  0.57480  0.39210  1.0000 0.4153760727
H   H355      1.0  0.53490  0.07480  0.60790  1.0000 0.4153760727
H   H356      1.0  0.03490  0.92520  0.89210  1.0000 0.4153760727
H   H357      1.0  0.53490  0.57480  0.89210  1.0000 0.4153760727
H   H358      1.0  0.03490  0.42520  0.60790  1.0000 0.4153760727
H   H359      1.0  0.46510  0.92520  0.39210  1.0000 0.4153760727
H   H360      1.0  0.96510  0.07480  0.10790  1.0000 0.4153760727
H   H361      1.0  0.51900  0.39400  0.09250  1.0000 0.3091736417
H   H362      1.0  0.01900  0.60600  0.40750  1.0000 0.3091736417
H   H363      1.0  0.48100  0.10600  0.59250  1.0000 0.3091736417
H   H364      1.0  0.98100  0.89400  0.90750  1.0000 0.3091736417
H   H365      1.0  0.48100  0.60600  0.90750  1.0000 0.3091736417
H   H366      1.0  0.98100  0.39400  0.59250  1.0000 0.3091736417
H   H367      1.0  0.51900  0.89400  0.40750  1.0000 0.3091736417
H   H368      1.0  0.01900  0.10600  0.09250  1.0000 0.3091736417
C   C1        1.0  0.89410  0.66950  0.07600  1.0000 0.5901902075
C   C2        1.0  0.39410  0.33050  0.42400  1.0000 0.5901902075
C   C3        1.0  0.10590  0.83050  0.57600  1.0000 0.5901902075
C   C4        1.0  0.60590  0.16950  0.92400  1.0000 0.5901902075
C   C5        1.0  0.10590  0.33050  0.92400  1.0000 0.5901902075
C   C6        1.0  0.60590  0.66950  0.57600  1.0000 0.5901902075
C   C7        1.0  0.89410  0.16950  0.42400  1.0000 0.5901902075
C   C8        1.0  0.39410  0.83050  0.07600  1.0000 0.5901902075
C   C9        1.0  0.65560  0.54950  0.08050  1.0000 0.6490452718
C   C10       1.0  0.15560  0.45050  0.41950  1.0000 0.6490452718
C   C11       1.0  0.34440  0.95050  0.58050  1.0000 0.6490452718
C   C12       1.0  0.84440  0.04950  0.91950  1.0000 0.6490452718
C   C13       1.0  0.34440  0.45050  0.91950  1.0000 0.6490452718
C   C14       1.0  0.84440  0.54950  0.58050  1.0000 0.6490452718
C   C15       1.0  0.65560  0.04950  0.41950  1.0000 0.6490452718
C   C16       1.0  0.15560  0.95050  0.08050  1.0000 0.6490452718
C   C17       1.0  0.63480  0.55190  0.15510  1.0000 0.6389577072
C   C18       1.0  0.13480  0.44810  0.34490  1.0000 0.6389577072
C   C19       1.0  0.36520  0.94810  0.65510  1.0000 0.6389577072
C   C20       1.0  0.86520  0.05190  0.84490  1.0000 0.6389577072
C   C21       1.0  0.36520  0.44810  0.84490  1.0000 0.6389577072
C   C22       1.0  0.86520  0.55190  0.65510  1.0000 0.6389577072
C   C23       1.0  0.63480  0.05190  0.34490  1.0000 0.6389577072
C   C24       1.0  0.13480  0.94810  0.15510  1.0000 0.6389577072
C   C25       1.0  0.89560  0.68930  0.16150  1.0000 0.5901902075
C   C26       1.0  0.39560  0.31070  0.33850  1.0000 0.5901902075
C   C27       1.0  0.10440  0.81070  0.66150  1.0000 0.5901902075
C   C28       1.0  0.60440  0.18930  0.83850  1.0000 0.5901902075
C   C29       1.0  0.10440  0.31070  0.83850  1.0000 0.5901902075
C   C30       1.0  0.60440  0.68930  0.66150  1.0000 0.5901902075
C   C31       1.0  0.89560  0.18930  0.33850  1.0000 0.5901902075
C   C32       1.0  0.39560  0.81070  0.16150  1.0000 0.5901902075
C   C33       1.0  0.93570  0.65920  0.04890  1.0000 -0.0396545557
C   C34       1.0  0.43570  0.34080  0.45110  1.0000 -0.0396545557
C   C35       1.0  0.06430  0.84080  0.54890  1.0000 -0.0396545557
C   C36       1.0  0.56430  0.15920  0.95110  1.0000 -0.0396545557
C   C37       1.0  0.06430  0.34080  0.95110  1.0000 -0.0396545557
C   C38       1.0  0.56430  0.65920  0.54890  1.0000 -0.0396545557
C   C39       1.0  0.93570  0.15920  0.45110  1.0000 -0.0396545557
C   C40       1.0  0.43570  0.84080  0.04890  1.0000 -0.0396545557
C   C41       1.0  0.60810  0.57770  0.05750  1.0000 -0.0396545557
C   C42       1.0  0.10810  0.42230  0.44250  1.0000 -0.0396545557
C   C43       1.0  0.39190  0.92230  0.55750  1.0000 -0.0396545557
C   C44       1.0  0.89190  0.07770  0.94250  1.0000 -0.0396545557
C   C45       1.0  0.39190  0.42230  0.94250  1.0000 -0.0396545557
C   C46       1.0  0.89190  0.57770  0.55750  1.0000 -0.0396545557
C   C47       1.0  0.60810  0.07770  0.44250  1.0000 -0.0396545557
C   C48       1.0  0.10810  0.92230  0.05750  1.0000 -0.0396545557
C   C49       1.0  0.61130  0.60460  0.17700  1.0000 -0.0499393821
C   C50       1.0  0.11130  0.39540  0.32300  1.0000 -0.0499393821
C   C51       1.0  0.38870  0.89540  0.67700  1.0000 -0.0499393821
C   C52       1.0  0.88870  0.10460  0.82300  1.0000 -0.0499393821
C   C53       1.0  0.38870  0.39540  0.82300  1.0000 -0.0499393821
C   C54       1.0  0.88870  0.60460  0.67700  1.0000 -0.0499393821
C   C55       1.0  0.61130  0.10460  0.32300  1.0000 -0.0499393821
C   C56       1.0  0.11130  0.89540  0.17700  1.0000 -0.0499393821
C   C57       1.0  0.87500  0.71310  0.19020  1.0000 -0.0615713008
C   C58       1.0  0.37500  0.28690  0.30980  1.0000 -0.0615713008
C   C59       1.0  0.12500  0.78690  0.69020  1.0000 -0.0615713008
C   C60       1.0  0.62500  0.21310  0.80980  1.0000 -0.0615713008
C   C61       1.0  0.12500  0.28690  0.80980  1.0000 -0.0615713008
C   C62       1.0  0.62500  0.71310  0.69020  1.0000 -0.0615713008
C   C63       1.0  0.87500  0.21310  0.30980  1.0000 -0.0615713008
C   C64       1.0  0.37500  0.78690  0.19020  1.0000 -0.0615713008
C   C65       1.0  0.99290  0.70350  0.04110  1.0000 0.017726073
C   C66       1.0  0.49290  0.29650  0.45890  1.0000 0.017726073
C   C67       1.0  0.00710  0.79650  0.54110  1.0000 0.017726073
C   C68       1.0  0.50710  0.20350  0.95890  1.0000 0.017726073
C   C69       1.0  0.00710  0.29650  0.95890  1.0000 0.017726073
C   C70       1.0  0.50710  0.70350  0.54110  1.0000 0.017726073
C   C71       1.0  0.99290  0.20350  0.45890  1.0000 0.017726073
C   C72       1.0  0.49290  0.79650  0.04110  1.0000 0.017726073
C   C73       1.0  0.91450  0.60390  0.03160  1.0000 -0.0499393821
C   C74       1.0  0.41450  0.39610  0.46840  1.0000 -0.0499393821
C   C75       1.0  0.08550  0.89610  0.53160  1.0000 -0.0499393821
C   C76       1.0  0.58550  0.10390  0.96840  1.0000 -0.0499393821
C   C77       1.0  0.08550  0.39610  0.96840  1.0000 -0.0499393821
C   C78       1.0  0.58550  0.60390  0.53160  1.0000 -0.0499393821
C   C79       1.0  0.91450  0.10390  0.46840  1.0000 -0.0499393821
C   C80       1.0  0.41450  0.89610  0.03160  1.0000 -0.0499393821
C   C81       1.0  0.54550  0.54250  0.05020  1.0000 -0.0396545557
C   C82       1.0  0.04550  0.45750  0.44980  1.0000 -0.0396545557
C   C83       1.0  0.45450  0.95750  0.55020  1.0000 -0.0396545557
C   C84       1.0  0.95450  0.04250  0.94980  1.0000 -0.0396545557
C   C85       1.0  0.45450  0.45750  0.94980  1.0000 -0.0396545557
C   C86       1.0  0.95450  0.54250  0.55020  1.0000 -0.0396545557
C   C87       1.0  0.54550  0.04250  0.44980  1.0000 -0.0396545557
C   C88       1.0  0.04550  0.95750  0.05020  1.0000 -0.0499393821
C   C89       1.0  0.62640  0.64110  0.04420  1.0000 0.0692528972
C   C90       1.0  0.12640  0.35890  0.45580  1.0000 0.0692528972
C   C91       1.0  0.37360  0.85890  0.54420  1.0000 0.0692528972
C   C92       1.0  0.87360  0.14110  0.95580  1.0000 0.0692528972
C   C93       1.0  0.37360  0.35890  0.95580  1.0000 0.0692528972
C   C94       1.0  0.87360  0.64110  0.54420  1.0000 0.0692528972
C   C95       1.0  0.62640  0.14110  0.45580  1.0000 0.0692528972
C   C96       1.0  0.12640  0.85890  0.04420  1.0000 0.0692528972
C   C97       1.0  0.64750  0.66990  0.18060  1.0000 -0.0499393821
C   C98       1.0  0.14750  0.33010  0.31940  1.0000 -0.0499393821
C   C99       1.0  0.35250  0.83010  0.68060  1.0000 -0.0499393821
C   C100      1.0  0.85250  0.16990  0.81940  1.0000 -0.0499393821
C   C101      1.0  0.35250  0.33010  0.81940  1.0000 -0.0499393821
C   C102      1.0  0.85250  0.66990  0.68060  1.0000 -0.0499393821
C   C103      1.0  0.64750  0.16990  0.31940  1.0000 -0.0499393821
C   C104      1.0  0.14750  0.83010  0.18060  1.0000 -0.0499393821
C   C105      1.0  0.55830  0.58670  0.19630  1.0000 0.0692528972
C   C106      1.0  0.05830  0.41330  0.30370  1.0000 0.0692528972
C   C107      1.0  0.44170  0.91330  0.69630  1.0000 0.0692528972
C   C108      1.0  0.94170  0.08670  0.80370  1.0000 0.0692528972
C   C109      1.0  0.44170  0.41330  0.80370  1.0000 0.0692528972
C   C110      1.0  0.94170  0.58670  0.69630  1.0000 0.0692528972
C   C111      1.0  0.55830  0.08670  0.30370  1.0000 0.0692528972
C   C112      1.0  0.05830  0.91330  0.19630  1.0000 0.0692528972
C   C113      1.0  0.90970  0.77470  0.20030  1.0000 0.0399362014
C   C114      1.0  0.40970  0.22530  0.29970  1.0000 0.0290892135
C   C115      1.0  0.09030  0.72530  0.70030  1.0000 0.0399362014
C   C116      1.0  0.59030  0.27470  0.79970  1.0000 0.0399362014
C   C117      1.0  0.09030  0.22530  0.79970  1.0000 0.0399362014
C   C118      1.0  0.59030  0.77470  0.70030  1.0000 0.0399362014
C   C119      1.0  0.90970  0.27470  0.29970  1.0000 0.0399362014
C   C120      1.0  0.40970  0.72530  0.20030  1.0000 0.0290892135
C   C121      1.0  0.82610  0.67850  0.20650  1.0000 -0.0615713008
C   C122      1.0  0.32610  0.32150  0.29350  1.0000 -0.0615713008
C   C123      1.0  0.17390  0.82150  0.70650  1.0000 -0.0615713008
C   C124      1.0  0.67390  0.17850  0.79350  1.0000 -0.0615713008
C   C125      1.0  0.17390  0.32150  0.79350  1.0000 -0.0615713008
C   C126      1.0  0.67390  0.67850  0.70650  1.0000 -0.0615713008
C   C127      1.0  0.82610  0.17850  0.29350  1.0000 -0.0615713008
C   C128      1.0  0.32610  0.82150  0.20650  1.0000 -0.0615713008
C   C129      1.0  0.95240  0.59080  0.00840  1.0000 -0.1704635415
C   C130      1.0  0.45240  0.40920  0.49160  1.0000 -0.1704635415
C   C131      1.0  0.04760  0.90920  0.50840  1.0000 -0.1704635415
C   C132      1.0  0.54760  0.09080  0.99160  1.0000 -0.1704635415
C   C133      1.0  0.04760  0.40920  0.99160  1.0000 -0.1704635415
C   C134      1.0  0.54760  0.59080  0.50840  1.0000 -0.1704635415
C   C135      1.0  0.95240  0.09080  0.49160  1.0000 -0.1704635415
C   C136      1.0  0.45240  0.90920  0.00840  1.0000 -0.1704635415
C   C137      1.0  0.50430  0.56820  0.02790  1.0000 -0.1520457282
C   C138      1.0  0.00430  0.43180  0.47210  1.0000 -0.1520457282
C   C139      1.0  0.49570  0.93180  0.52790  1.0000 -0.1520457282
C   C140      1.0  0.99570  0.06820  0.97210  1.0000 -0.1520457282
C   C141      1.0  0.49570  0.43180  0.97210  1.0000 -0.1520457282
C   C142      1.0  0.99570  0.56820  0.52790  1.0000 -0.1520457282
C   C143      1.0  0.50430  0.06820  0.47210  1.0000 -0.1520457282
C   C144      1.0  0.00430  0.93180  0.02790  1.0000 -0.1520457282
C   C145      1.0  0.63260  0.71310  0.20320  1.0000 -0.1809936143
C   C146      1.0  0.13260  0.28690  0.29680  1.0000 -0.1809936143
C   C147      1.0  0.36740  0.78690  0.70320  1.0000 -0.1809936143
C   C148      1.0  0.86740  0.21310  0.79680  1.0000 -0.1809936143
C   C149      1.0  0.36740  0.28690  0.79680  1.0000 -0.1809936143
C   C150      1.0  0.86740  0.71310  0.70320  1.0000 -0.1809936143
C   C151      1.0  0.63260  0.21310  0.29680  1.0000 -0.1809936143
C   C152      1.0  0.13260  0.78690  0.20320  1.0000 -0.1809936143
C   C153      1.0  0.81210  0.70520  0.23250  1.0000 -0.1903536562
C   C154      1.0  0.31210  0.29480  0.26750  1.0000 -0.1903536562
C   C155      1.0  0.18790  0.79480  0.73250  1.0000 -0.1903536562
C   C156      1.0  0.68790  0.20520  0.76750  1.0000 -0.1903536562
C   C157      1.0  0.18790  0.29480  0.76750  1.0000 -0.1903536562
C   C158      1.0  0.68790  0.70520  0.73250  1.0000 -0.1903536562
C   C159      1.0  0.81210  0.20520  0.26750  1.0000 -0.1903536562
C   C160      1.0  0.31210  0.79480  0.23250  1.0000 -0.1903536562
C   C161      1.0  0.01200  0.63300  0.00230  1.0000 0.1507006548
C   C162      1.0  0.51200  0.36700  0.49770  1.0000 0.1507006548
C   C163      1.0  0.98800  0.86700  0.50230  1.0000 0.1507006548
C   C164      1.0  0.48800  0.13300  0.99770  1.0000 0.1507006548
C   C165      1.0  0.98800  0.36700  0.99770  1.0000 0.1507006548
C   C166      1.0  0.48800  0.63300  0.50230  1.0000 0.1507006548
C   C167      1.0  0.01200  0.13300  0.49770  1.0000 0.1507006548
C   C168      1.0  0.51200  0.86700  0.00230  1.0000 0.1507006548
C   C169      1.0  0.52910  0.62990  0.01460  1.0000 0.1586928933
C   C170      1.0  0.02910  0.37010  0.48540  1.0000 0.1586928933
C   C171      1.0  0.47090  0.87010  0.51460  1.0000 0.1651240047
C   C172      1.0  0.97090  0.12990  0.98540  1.0000 0.1586928933
C   C173      1.0  0.47090  0.37010  0.98540  1.0000 0.1651240047
C   C174      1.0  0.97090  0.62990  0.51460  1.0000 0.1586928933
C   C175      1.0  0.52910  0.12990  0.48540  1.0000 0.1586928933
C   C176      1.0  0.02910  0.87010  0.01460  1.0000 0.1586928933
C   C177      1.0  0.58220  0.68760  0.22210  1.0000 0.1586928933
C   C178      1.0  0.08220  0.31240  0.27790  1.0000 0.1586928933
C   C179      1.0  0.41780  0.81240  0.72210  1.0000 0.1586928933
C   C180      1.0  0.91780  0.18760  0.77790  1.0000 0.1586928933
C   C181      1.0  0.41780  0.31240  0.77790  1.0000 0.1586928933
C   C182      1.0  0.91780  0.68760  0.72210  1.0000 0.1586928933
C   C183      1.0  0.58220  0.18760  0.27790  1.0000 0.1586928933
C   C184      1.0  0.08220  0.81240  0.22210  1.0000 0.1586928933
C   C185      1.0  0.84790  0.76730  0.24110  1.0000 0.1507006548
C   C186      1.0  0.34790  0.23270  0.25890  1.0000 0.1507006548
C   C187      1.0  0.15210  0.73270  0.74110  1.0000 0.1507006548
C   C188      1.0  0.65210  0.26730  0.75890  1.0000 0.1507006548
C   C189      1.0  0.15210  0.23270  0.75890  1.0000 0.1507006548
C   C190      1.0  0.65210  0.76730  0.74110  1.0000 0.1507006548
C   C191      1.0  0.84790  0.26730  0.25890  1.0000 0.1507006548
C   C192      1.0  0.34790  0.73270  0.24110  1.0000 0.1507006548
C   C193      1.0  0.06110  0.62060  0.97880  1.0000 0.1507006548
C   C194      1.0  0.56110  0.37940  0.52120  1.0000 0.1507006548
C   C195      1.0  0.93890  0.87940  0.47880  1.0000 0.1507006548
C   C196      1.0  0.43890  0.12060  0.02120  1.0000 0.1507006548
C   C197      1.0  0.93890  0.37940  0.02120  1.0000 0.1507006548
C   C198      1.0  0.43890  0.62060  0.47880  1.0000 0.1507006548
C   C199      1.0  0.06110  0.12060  0.52120  1.0000 0.1507006548
C   C200      1.0  0.56110  0.87940  0.97880  1.0000 0.1507006548
C   C201      1.0  0.49690  0.65660  0.98910  1.0000 0.1507006548
C   C202      1.0  0.99690  0.34340  0.51090  1.0000 0.1507006548
C   C203      1.0  0.50310  0.84340  0.48910  1.0000 0.1507006548
C   C204      1.0  0.00310  0.15660  0.01090  1.0000 0.1507006548
C   C205      1.0  0.50310  0.34340  0.01090  1.0000 0.1507006548
C   C206      1.0  0.00310  0.65660  0.48910  1.0000 0.1507006548
C   C207      1.0  0.49690  0.15660  0.51090  1.0000 0.1507006548
C   C208      1.0  0.99690  0.84340  0.98910  1.0000 0.1507006548
C   C209      1.0  0.57060  0.72480  0.24890  1.0000 0.1398630474
C   C210      1.0  0.07060  0.27520  0.25110  1.0000 0.1398630474
C   C211      1.0  0.42940  0.77520  0.74890  1.0000 0.1398630474
C   C212      1.0  0.92940  0.22480  0.75110  1.0000 0.1398630474
C   C213      1.0  0.42940  0.27520  0.75110  1.0000 0.1398630474
C   C214      1.0  0.92940  0.72480  0.74890  1.0000 0.1398630474
C   C215      1.0  0.57060  0.22480  0.25110  1.0000 0.1398630474
C   C216      1.0  0.07060  0.77520  0.24890  1.0000 0.1398630474
C   C217      1.0  0.83330  0.80260  0.26770  1.0000 0.1507006548
C   C218      1.0  0.33333  0.19740  0.23230  1.0000 0.1507006548
C   C219      1.0  0.16670  0.69740  0.76770  1.0000 0.1507006548
C   C220      1.0  0.66667  0.30260  0.73230  1.0000 0.1507006548
C   C221      1.0  0.16670  0.19740  0.73230  1.0000 0.1507006548
C   C222      1.0  0.66667  0.80260  0.76770  1.0000 0.1507006548
C   C223      1.0  0.83330  0.30260  0.23230  1.0000 0.1507006548
C   C224      1.0  0.33333  0.69740  0.26770  1.0000 0.1507006548
C   C225      1.0  0.16770  0.65620  0.95730  1.0000 0.0804694276
C   C226      1.0  0.66770  0.34380  0.54270  1.0000 0.0804694276
C   C227      1.0  0.83230  0.84380  0.45730  1.0000 0.0804694276
C   C228      1.0  0.33230  0.15620  0.04270  1.0000 0.0804694276
C   C229      1.0  0.83230  0.34380  0.04270  1.0000 0.0804694276
C   C230      1.0  0.33230  0.65620  0.45730  1.0000 0.0804694276
C   C231      1.0  0.16770  0.15620  0.54270  1.0000 0.0804694276
C   C232      1.0  0.66770  0.84380  0.95730  1.0000 0.0804694276
C   C233      1.0  0.04900  0.56840  0.95900  1.0000 -0.1704635415
C   C234      1.0  0.54900  0.43160  0.54100  1.0000 -0.1704635415
C   C235      1.0  0.95100  0.93160  0.45900  1.0000 -0.1704635415
C   C236      1.0  0.45100  0.06840  0.04100  1.0000 -0.1704635415
C   C237      1.0  0.95100  0.43160  0.04100  1.0000 -0.1704635415
C   C238      1.0  0.45100  0.56840  0.45900  1.0000 -0.1704635415
C   C239      1.0  0.04900  0.06840  0.54100  1.0000 -0.1704635415
C   C240      1.0  0.54900  0.93160  0.95900  1.0000 -0.1704635415
C   C241      1.0  0.43570  0.62900  0.97660  1.0000 -0.1563341138
C   C242      1.0  0.93570  0.37100  0.52340  1.0000 -0.1563341138
C   C243      1.0  0.56430  0.87100  0.47660  1.0000 -0.1563341138
C   C244      1.0  0.06430  0.12900  0.02340  1.0000 -0.1563341138
C   C245      1.0  0.56430  0.37100  0.02340  1.0000 -0.1563341138
C   C246      1.0  0.06430  0.62900  0.47660  1.0000 -0.1563341138
C   C247      1.0  0.43570  0.12900  0.52340  1.0000 -0.1563341138
C   C248      1.0  0.93570  0.87100  0.97660  1.0000 -0.1563341138
C   C249      1.0  0.51170  0.73820  0.95340  1.0000 0.0290892135
C   C250      1.0  0.01170  0.26180  0.54660  1.0000 0.0290892135
C   C251      1.0  0.48830  0.76180  0.45340  1.0000 0.0290892135
C   C252      1.0  0.98830  0.23820  0.04660  1.0000 0.0290892135
C   C253      1.0  0.48830  0.26180  0.04660  1.0000 0.0290892135
C   C254      1.0  0.98830  0.73820  0.45340  1.0000 0.0290892135
C   C255      1.0  0.51170  0.23820  0.54660  1.0000 0.0290892135
C   C256      1.0  0.01170  0.76180  0.95340  1.0000 0.0290892135
C   C257      1.0  0.61010  0.78310  0.25800  1.0000 -0.1809936143
C   C258      1.0  0.11010  0.21690  0.24200  1.0000 -0.1809936143
C   C259      1.0  0.38990  0.71690  0.75800  1.0000 -0.1809936143
C   C260      1.0  0.88990  0.28310  0.74200  1.0000 -0.1809936143
C   C261      1.0  0.38990  0.21690  0.74200  1.0000 -0.1809936143
C   C262      1.0  0.88990  0.78310  0.75800  1.0000 -0.1809936143
C   C263      1.0  0.61010  0.28310  0.24200  1.0000 -0.1809936143
C   C264      1.0  0.11010  0.71690  0.25800  1.0000 -0.1809936143
C   C265      1.0  0.50880  0.72020  0.29020  1.0000 0.0399362014
C   C266      1.0  0.00880  0.27980  0.20980  1.0000 0.0399362014
C   C267      1.0  0.49120  0.77980  0.79020  1.0000 0.0399362014
C   C268      1.0  0.99120  0.22020  0.70980  1.0000 0.0399362014
C   C269      1.0  0.49120  0.27980  0.70980  1.0000 0.0399362014
C   C270      1.0  0.99120  0.72020  0.79020  1.0000 0.0399362014
C   C271      1.0  0.50880  0.22020  0.20980  1.0000 0.0399362014
C   C272      1.0  0.00880  0.77980  0.29020  1.0000 0.0399362014
C   C273      1.0  0.53290  0.53040  0.28960  1.0000 0.0692528972
C   C274      1.0  0.03290  0.46960  0.21040  1.0000 0.0692528972
C   C275      1.0  0.46710  0.96960  0.78960  1.0000 0.0692528972
C   C276      1.0  0.96710  0.03040  0.71040  1.0000 0.0692528972
C   C277      1.0  0.46710  0.46960  0.71040  1.0000 0.0692528972
C   C278      1.0  0.96710  0.53040  0.78960  1.0000 0.0692528972
C   C279      1.0  0.53290  0.03040  0.21040  1.0000 0.0692528972
C   C280      1.0  0.03290  0.96960  0.28960  1.0000 0.0692528972
C   C281      1.0  0.47430  0.45980  0.25760  1.0000 0.1586928933
C   C282      1.0  0.97430  0.54020  0.24240  1.0000 0.1586928933
C   C283      1.0  0.52570  0.04020  0.75760  1.0000 0.1586928933
C   C284      1.0  0.02570  0.95980  0.74240  1.0000 0.1586928933
C   C285      1.0  0.52570  0.54020  0.74240  1.0000 0.1586928933
C   C286      1.0  0.02570  0.45980  0.75760  1.0000 0.1586928933
C   C287      1.0  0.47430  0.95980  0.24240  1.0000 0.1586928933
C   C288      1.0  0.97430  0.04020  0.25760  1.0000 0.1586928933
C   C289      1.0  0.43030  0.46050  0.23190  1.0000 0.1586928933
C   C290      1.0  0.93030  0.53950  0.26810  1.0000 0.1586928933
C   C291      1.0  0.56970  0.03950  0.73190  1.0000 0.1586928933
C   C292      1.0  0.06970  0.96050  0.76810  1.0000 0.1586928933
C   C293      1.0  0.56970  0.53950  0.76810  1.0000 0.1586928933
C   C294      1.0  0.06970  0.46050  0.73190  1.0000 0.1586928933
C   C295      1.0  0.43030  0.96050  0.26810  1.0000 0.1586928933
C   C296      1.0  0.93030  0.03950  0.23190  1.0000 0.1586928933
C   C297      1.0  0.36920  0.53190  0.20090  1.0000 0.0604145653
C   C298      1.0  0.86920  0.46810  0.29910  1.0000 0.0604145653
C   C299      1.0  0.63080  0.96810  0.70090  1.0000 0.0604145653
C   C300      1.0  0.13080  0.03190  0.79910  1.0000 0.0604145653
C   C301      1.0  0.63080  0.46810  0.79910  1.0000 0.0604145653
C   C302      1.0  0.13080  0.53190  0.70090  1.0000 0.0604145653
C   C303      1.0  0.36920  0.03190  0.29910  1.0000 0.0604145653
C   C304      1.0  0.86920  0.96810  0.20090  1.0000 0.0604145653
C   C305      1.0  0.78500  0.77480  0.28700  1.0000 -0.1809936143
C   C306      1.0  0.28500  0.22520  0.21300  1.0000 -0.1809936143
C   C307      1.0  0.21500  0.72520  0.78700  1.0000 -0.1809936143
C   C308      1.0  0.71500  0.27480  0.71300  1.0000 -0.1809936143
C   C309      1.0  0.21500  0.22520  0.71300  1.0000 -0.1809936143
C   C310      1.0  0.71500  0.77480  0.78700  1.0000 -0.1809936143
C   C311      1.0  0.78500  0.27480  0.21300  1.0000 -0.1809936143
C   C312      1.0  0.28500  0.72520  0.28700  1.0000 -0.1809936143
C   C313      1.0  0.85160  0.90400  0.29470  1.0000 0.0692528972
C   C314      1.0  0.35160  0.09600  0.20530  1.0000 0.0692528972
C   C315      1.0  0.14840  0.59600  0.79470  1.0000 0.0692528972
C   C316      1.0  0.64840  0.40400  0.70530  1.0000 0.0692528972
C   C317      1.0  0.14840  0.09600  0.70530  1.0000 0.0692528972
C   C318      1.0  0.64840  0.90400  0.79470  1.0000 0.0692528972
C   C319      1.0  0.85160  0.40400  0.20530  1.0000 0.0692528972
C   C320      1.0  0.35160  0.59600  0.29470  1.0000 0.0692528972
C   C321      1.0  0.15950  0.60250  0.93730  1.0000 -0.0324262402
C   C322      1.0  0.65950  0.39750  0.56270  1.0000 -0.0324262402
C   C323      1.0  0.84050  0.89750  0.43730  1.0000 -0.0324262402
C   C324      1.0  0.34050  0.10250  0.06270  1.0000 -0.0324262402
C   C325      1.0  0.84050  0.39750  0.06270  1.0000 -0.0324262402
C   C326      1.0  0.34050  0.60250  0.43730  1.0000 -0.0324262402
C   C327      1.0  0.15950  0.10250  0.56270  1.0000 -0.0324262402
C   C328      1.0  0.65950  0.89750  0.93730  1.0000 -0.0324262402
C   C329      1.0  0.09820  0.55970  0.93840  1.0000 -0.0499393821
C   C330      1.0  0.59820  0.44030  0.56160  1.0000 -0.0499393821
C   C331      1.0  0.90180  0.94030  0.43840  1.0000 -0.0499393821
C   C332      1.0  0.40180  0.05970  0.06160  1.0000 -0.0499393821
C   C333      1.0  0.90180  0.44030  0.06160  1.0000 -0.0499393821
C   C334      1.0  0.40180  0.55970  0.43840  1.0000 -0.0499393821
C   C335      1.0  0.09820  0.05970  0.56160  1.0000 -0.0499393821
C   C336      1.0  0.59820  0.94030  0.93840  1.0000 -0.0499393821
C   C337      1.0  0.41290  0.65660  0.95130  1.0000 -0.0860678758
C   C338      1.0  0.91290  0.34340  0.54870  1.0000 -0.0860678758
C   C339      1.0  0.58710  0.84340  0.45130  1.0000 -0.0860678758
C   C340      1.0  0.08710  0.15660  0.04870  1.0000 -0.0860678758
C   C341      1.0  0.58710  0.34340  0.04870  1.0000 -0.0860678758
C   C342      1.0  0.08710  0.65660  0.45130  1.0000 -0.0860678758
C   C343      1.0  0.41290  0.15660  0.54870  1.0000 -0.0860678758
C   C344      1.0  0.91290  0.84340  0.95130  1.0000 -0.0860678758
C   C345      1.0  0.45220  0.71180  0.93980  1.0000 -0.0674484502
C   C346      1.0  0.95220  0.28820  0.56020  1.0000 -0.0674484502
C   C347      1.0  0.54780  0.78820  0.43980  1.0000 -0.0674484502
C   C348      1.0  0.04780  0.21180  0.06020  1.0000 -0.0674484502
C   C349      1.0  0.54780  0.28820  0.06020  1.0000 -0.0674484502
C   C350      1.0  0.04780  0.71180  0.43980  1.0000 -0.0674484502
C   C351      1.0  0.45220  0.21180  0.56020  1.0000 -0.0674484502
C   C352      1.0  0.95220  0.78820  0.93980  1.0000 -0.0674484502
C   C353      1.0  0.60030  0.81030  0.28360  1.0000 -0.0615713008
C   C354      1.0  0.10030  0.18970  0.21640  1.0000 -0.0615713008
C   C355      1.0  0.39970  0.68970  0.78360  1.0000 -0.0615713008
C   C356      1.0  0.89970  0.31030  0.71640  1.0000 -0.0615713008
C   C357      1.0  0.39970  0.18970  0.71640  1.0000 -0.0615713008
C   C358      1.0  0.89970  0.81030  0.78360  1.0000 -0.0615713008
C   C359      1.0  0.60030  0.31030  0.21640  1.0000 -0.0615713008
C   C360      1.0  0.10030  0.68970  0.28360  1.0000 -0.0615713008
C   C361      1.0  0.54980  0.77780  0.30090  1.0000 -0.0615713008
C   C362      1.0  0.04980  0.22220  0.19910  1.0000 -0.0615713008
C   C363      1.0  0.45020  0.72220  0.80090  1.0000 -0.0615713008
C   C364      1.0  0.95020  0.27780  0.69910  1.0000 -0.0615713008
C   C365      1.0  0.45020  0.22220  0.69910  1.0000 -0.0615713008
C   C366      1.0  0.95020  0.77780  0.80090  1.0000 -0.0615713008
C   C367      1.0  0.54980  0.27780  0.19910  1.0000 -0.0615713008
C   C368      1.0  0.04980  0.72220  0.30090  1.0000 -0.0615713008
C   C369      1.0  0.55000  0.47000  0.30570  1.0000 -0.0396545557
C   C370      1.0  0.05000  0.53000  0.19430  1.0000 -0.0396545557
C   C371      1.0  0.45000  0.03000  0.80570  1.0000 -0.0396545557
C   C372      1.0  0.95000  0.97000  0.69430  1.0000 -0.0396545557
C   C373      1.0  0.45000  0.53000  0.69430  1.0000 -0.0396545557
C   C374      1.0  0.95000  0.47000  0.80570  1.0000 -0.0396545557
C   C375      1.0  0.55000  0.97000  0.19430  1.0000 -0.0396545557
C   C376      1.0  0.05000  0.03000  0.30570  1.0000 -0.0396545557
C   C377      1.0  0.48930  0.39850  0.27240  1.0000 -0.1704635415
C   C378      1.0  0.98930  0.60150  0.22760  1.0000 -0.1704635415
C   C379      1.0  0.51070  0.10150  0.77240  1.0000 -0.1704635415
C   C380      1.0  0.01070  0.89850  0.72760  1.0000 -0.1704635415
C   C381      1.0  0.51070  0.60150  0.72760  1.0000 -0.1704635415
C   C382      1.0  0.01070  0.39850  0.77240  1.0000 -0.1704635415
C   C383      1.0  0.48930  0.89850  0.22760  1.0000 -0.1704635415
C   C384      1.0  0.98930  0.10150  0.27240  1.0000 -0.1704635415
C   C385      1.0  0.41090  0.39890  0.21770  1.0000 -0.1809936143
C   C386      1.0  0.91090  0.60110  0.28230  1.0000 -0.1809936143
C   C387      1.0  0.58910  0.10110  0.71770  1.0000 -0.1809936143
C   C388      1.0  0.08910  0.89890  0.78230  1.0000 -0.1809936143
C   C389      1.0  0.58910  0.60110  0.78230  1.0000 -0.1809936143
C   C390      1.0  0.08910  0.39890  0.71770  1.0000 -0.1809936143
C   C391      1.0  0.41090  0.89890  0.28230  1.0000 -0.1809936143
C   C392      1.0  0.91090  0.10110  0.21770  1.0000 -0.1809936143
C   C393      1.0  0.34690  0.47230  0.18580  1.0000 -0.0324262402
C   C394      1.0  0.84690  0.52770  0.31420  1.0000 -0.0324262402
C   C395      1.0  0.65310  0.02770  0.68580  1.0000 -0.0324262402
C   C396      1.0  0.15310  0.97230  0.81420  1.0000 -0.0324262402
C   C397      1.0  0.65310  0.52770  0.81420  1.0000 -0.0324262402
C   C398      1.0  0.15310  0.47230  0.68580  1.0000 -0.0324262402
C   C399      1.0  0.34690  0.97230  0.31420  1.0000 -0.0324262402
C   C400      1.0  0.84690  0.02770  0.18580  1.0000 -0.0324262402
C   C401      1.0  0.77060  0.81410  0.31030  1.0000 -0.0396545557
C   C402      1.0  0.27060  0.18590  0.18970  1.0000 -0.0396545557
C   C403      1.0  0.22940  0.68590  0.81030  1.0000 -0.0396545557
C   C404      1.0  0.72940  0.31410  0.68970  1.0000 -0.0396545557
C   C405      1.0  0.22940  0.18590  0.68970  1.0000 -0.0396545557
C   C406      1.0  0.72940  0.81410  0.81030  1.0000 -0.0396545557
C   C407      1.0  0.77060  0.31410  0.18970  1.0000 -0.0396545557
C   C408      1.0  0.27060  0.68590  0.31030  1.0000 -0.0396545557
C   C409      1.0  0.80300  0.88040  0.31420  1.0000 -0.0674484502
C   C410      1.0  0.30300  0.11960  0.18580  1.0000 -0.0674484502
C   C411      1.0  0.19700  0.61960  0.81420  1.0000 -0.0674484502
C   C412      1.0  0.69700  0.38040  0.68580  1.0000 -0.0674484502
C   C413      1.0  0.19700  0.11960  0.68580  1.0000 -0.0674484502
C   C414      1.0  0.69700  0.88040  0.81420  1.0000 -0.0674484502
C   C415      1.0  0.80300  0.38040  0.18580  1.0000 -0.0674484502
C   C416      1.0  0.30300  0.61960  0.31420  1.0000 -0.0674484502
C   C417      1.0  0.21550  0.59020  0.91480  1.0000 0.6490452718
C   C418      1.0  0.71550  0.40980  0.58520  1.0000 0.6490452718
C   C419      1.0  0.78450  0.90980  0.41480  1.0000 0.6490452718
C   C420      1.0  0.28450  0.09020  0.08520  1.0000 0.6490452718
C   C421      1.0  0.78450  0.40980  0.08520  1.0000 0.6490452718
C   C422      1.0  0.28450  0.59020  0.41480  1.0000 0.6490452718
C   C423      1.0  0.21550  0.09020  0.58520  1.0000 0.6490452718
C   C424      1.0  0.71550  0.90980  0.91480  1.0000 0.6490452718
C   C425      1.0  0.42940  0.74660  0.91310  1.0000 0.6011897382
C   C426      1.0  0.92940  0.25340  0.58690  1.0000 0.6011897382
C   C427      1.0  0.57060  0.75340  0.41310  1.0000 0.6011897382
C   C428      1.0  0.07060  0.24660  0.08690  1.0000 0.6011897382
C   C429      1.0  0.57060  0.25340  0.08690  1.0000 0.6011897382
C   C430      1.0  0.07060  0.74660  0.41310  1.0000 0.6011897382
C   C431      1.0  0.42940  0.24660  0.58690  1.0000 0.6011897382
C   C432      1.0  0.92940  0.75340  0.91310  1.0000 0.6011897382
C   C433      1.0  0.53730  0.79960  0.33020  1.0000 0.6011897382
C   C434      1.0  0.03730  0.20040  0.16980  1.0000 0.6011897382
C   C435      1.0  0.46270  0.70040  0.83020  1.0000 0.6011897382
C   C436      1.0  0.96270  0.29960  0.66980  1.0000 0.6011897382
C   C437      1.0  0.46270  0.20040  0.66980  1.0000 0.6011897382
C   C438      1.0  0.96270  0.79960  0.83020  1.0000 0.6011897382
C   C439      1.0  0.53730  0.29960  0.16980  1.0000 0.6011897382
C   C440      1.0  0.03730  0.70040  0.33020  1.0000 0.6011897382
C   C441      1.0  0.59090  0.48290  0.33180  1.0000 0.5605011321
C   C442      1.0  0.09090  0.51710  0.16820  1.0000 0.5605011321
C   C443      1.0  0.40910  0.01710  0.83180  1.0000 0.5605011321
C   C444      1.0  0.90910  0.98290  0.66820  1.0000 0.5605011321
C   C445      1.0  0.40910  0.51710  0.66820  1.0000 0.5605011321
C   C446      1.0  0.90910  0.48290  0.83180  1.0000 0.5605011321
C   C447      1.0  0.59090  0.98290  0.16820  1.0000 0.5605011321
C   C448      1.0  0.09090  0.01710  0.33180  1.0000 0.5605011321
C   C449      1.0  0.52760  0.40380  0.29650  1.0000 -0.0499393821
C   C450      1.0  0.02760  0.59620  0.20350  1.0000 -0.0499393821
C   C451      1.0  0.47240  0.09620  0.79650  1.0000 -0.0499393821
C   C452      1.0  0.97240  0.90380  0.70350  1.0000 -0.0499393821
C   C453      1.0  0.47240  0.59620  0.70350  1.0000 -0.0499393821
C   C454      1.0  0.97240  0.40380  0.79650  1.0000 -0.0499393821
C   C455      1.0  0.52760  0.90380  0.20350  1.0000 -0.0499393821
C   C456      1.0  0.02760  0.09620  0.29650  1.0000 -0.0499393821
C   C457      1.0  0.36910  0.40460  0.19420  1.0000 -0.0499393821
C   C458      1.0  0.86910  0.59540  0.30580  1.0000 -0.0499393821
C   C459      1.0  0.63090  0.09540  0.69420  1.0000 -0.0499393821
C   C460      1.0  0.13090  0.90460  0.80580  1.0000 -0.0499393821
C   C461      1.0  0.63090  0.59540  0.80580  1.0000 -0.0499393821
C   C462      1.0  0.13090  0.40460  0.69420  1.0000 -0.0499393821
C   C463      1.0  0.36910  0.90460  0.30580  1.0000 -0.0499393821
C   C464      1.0  0.86910  0.09540  0.19420  1.0000 -0.0499393821
C   C465      1.0  0.29540  0.48140  0.16190  1.0000 0.5605011321
C   C466      1.0  0.79540  0.51860  0.33810  1.0000 0.5605011321
C   C467      1.0  0.70460  0.01860  0.66190  1.0000 0.5605011321
C   C468      1.0  0.20460  0.98140  0.83810  1.0000 0.5605011321
C   C469      1.0  0.70460  0.51860  0.83810  1.0000 0.5605011321
C   C470      1.0  0.20460  0.48140  0.66190  1.0000 0.5605011321
C   C471      1.0  0.29540  0.98140  0.33810  1.0000 0.5605011321
C   C472      1.0  0.79540  0.01860  0.16190  1.0000 0.5605011321
C   C473      1.0  0.78390  0.92630  0.33830  1.0000 0.6490452718
C   C474      1.0  0.28390  0.07370  0.16170  1.0000 0.6490452718
C   C475      1.0  0.21610  0.57370  0.83830  1.0000 0.6490452718
C   C476      1.0  0.71610  0.42630  0.66170  1.0000 0.6490452718
C   C477      1.0  0.21610  0.07370  0.66170  1.0000 0.6490452718
C   C478      1.0  0.71610  0.92630  0.83830  1.0000 0.6490452718
C   C479      1.0  0.78390  0.42630  0.16170  1.0000 0.6490452718
C   C480      1.0  0.28390  0.57370  0.33830  1.0000 0.6490452718
C   C481      1.0  0.77180  0.57100  0.42980  1.0000 0.6061553713
C   C482      1.0  0.27180  0.42900  0.07020  1.0000 0.6061553713
C   C483      1.0  0.22820  0.92900  0.92980  1.0000 0.6061553713
C   C484      1.0  0.72820  0.07100  0.57020  1.0000 0.6061553713
C   C485      1.0  0.22820  0.42900  0.57020  1.0000 0.6061553713
C   C486      1.0  0.72820  0.57100  0.92980  1.0000 0.6061553713
C   C487      1.0  0.77180  0.07100  0.07020  1.0000 0.6061553713
C   C488      1.0  0.27180  0.92900  0.42980  1.0000 0.6061553713
C   C489      1.0  0.75690  0.62590  0.45260  1.0000 -0.0324262402
C   C490      1.0  0.25690  0.37410  0.04740  1.0000 -0.0324262402
C   C491      1.0  0.24310  0.87410  0.95260  1.0000 -0.0324262402
C   C492      1.0  0.74310  0.12590  0.54740  1.0000 -0.0324262402
C   C493      1.0  0.24310  0.37410  0.54740  1.0000 -0.0324262402
C   C494      1.0  0.74310  0.62590  0.95260  1.0000 -0.0324262402
C   C495      1.0  0.75690  0.12590  0.04740  1.0000 -0.0324262402
C   C496      1.0  0.25690  0.87410  0.45260  1.0000 -0.0324262402
C   C497      1.0  0.81880  0.65400  0.46560  1.0000 0.0604145653
C   C498      1.0  0.31880  0.34600  0.03440  1.0000 0.0604145653
C   C499      1.0  0.18120  0.84600  0.96560  1.0000 0.0604145653
C   C500      1.0  0.68120  0.15400  0.53440  1.0000 0.0604145653
C   C501      1.0  0.18120  0.34600  0.53440  1.0000 0.0604145653
C   C502      1.0  0.68120  0.65400  0.96560  1.0000 0.0604145653
C   C503      1.0  0.81880  0.15400  0.03440  1.0000 0.0604145653
C   C504      1.0  0.31880  0.84600  0.46560  1.0000 0.0604145653
C   C505      1.0  0.68970  0.64900  0.46050  1.0000 -0.0499393821
C   C506      1.0  0.18970  0.35100  0.03950  1.0000 -0.0499393821
C   C507      1.0  0.31030  0.85100  0.96050  1.0000 -0.0396545557
C   C508      1.0  0.81030  0.14900  0.53950  1.0000 -0.0396545557
C   C509      1.0  0.31030  0.35100  0.53950  1.0000 -0.0499393821
C   C510      1.0  0.81030  0.64900  0.96050  1.0000 -0.0396545557
C   C511      1.0  0.68970  0.14900  0.03950  1.0000 -0.0499393821
C   C512      1.0  0.18970  0.85100  0.46050  1.0000 -0.0499393821
C   C513      1.0  0.68300  0.69820  0.48150  1.0000 -0.1563341138
C   C514      1.0  0.18300  0.30180  0.01850  1.0000 -0.1563341138
C   C515      1.0  0.31700  0.80180  0.98150  1.0000 -0.1563341138
C   C516      1.0  0.81700  0.19820  0.51850  1.0000 -0.1520457282
C   C517      1.0  0.31700  0.30180  0.51850  1.0000 -0.1563341138
C   C518      1.0  0.81700  0.69820  0.98150  1.0000 -0.1520457282
C   C519      1.0  0.68300  0.19820  0.01850  1.0000 -0.1520457282
C   C520      1.0  0.18300  0.80180  0.48150  1.0000 -0.1563341138
C   C521      1.0  0.74440  0.72500  0.49390  1.0000 0.1586928933
C   C522      1.0  0.24440  0.27500  0.00610  1.0000 0.1586928933
C   C523      1.0  0.25560  0.77500  0.99390  1.0000 0.1586928933
C   C524      1.0  0.75560  0.22500  0.50610  1.0000 0.1586928933
C   C525      1.0  0.25560  0.27500  0.50610  1.0000 0.1586928933
C   C526      1.0  0.75560  0.72500  0.99390  1.0000 0.1586928933
C   C527      1.0  0.74440  0.22500  0.00610  1.0000 0.1586928933
C   C528      1.0  0.24440  0.77500  0.49390  1.0000 0.1586928933
C   C529      1.0  0.74700  0.77450  0.51790  1.0000 0.1507006548
C   C530      1.0  0.24700  0.22550  0.98210  1.0000 0.1507006548
C   C531      1.0  0.25300  0.72550  0.01790  1.0000 0.1507006548
C   C532      1.0  0.75300  0.27450  0.48210  1.0000 0.1507006548
C   C533      1.0  0.25300  0.22550  0.48210  1.0000 0.1507006548
C   C534      1.0  0.75300  0.77450  0.01790  1.0000 0.1507006548
C   C535      1.0  0.74700  0.27450  0.98210  1.0000 0.1507006548
C   C536      1.0  0.24700  0.72550  0.51790  1.0000 0.1507006548
C   C537      1.0  0.68830  0.80050  0.53110  1.0000 -0.1520457282
C   C538      1.0  0.18830  0.19950  0.96890  1.0000 -0.1520457282
C   C539      1.0  0.31170  0.69950  0.03110  1.0000 -0.1520457282
C   C540      1.0  0.81170  0.30050  0.46890  1.0000 -0.1520457282
C   C541      1.0  0.31170  0.19950  0.46890  1.0000 -0.1520457282
C   C542      1.0  0.81170  0.80050  0.03110  1.0000 -0.1520457282
C   C543      1.0  0.68830  0.30050  0.96890  1.0000 -0.1520457282
C   C544      1.0  0.18830  0.69950  0.53110  1.0000 -0.1520457282
C   C545      1.0  0.82620  0.82760  0.54910  1.0000 0.0692528972
C   C546      1.0  0.32620  0.17240  0.95090  1.0000 0.0692528972
C   C547      1.0  0.17380  0.67240  0.04910  1.0000 0.0692528972
C   C548      1.0  0.67380  0.32760  0.45090  1.0000 0.0692528972
C   C549      1.0  0.17380  0.17240  0.45090  1.0000 0.0604145653
C   C550      1.0  0.67380  0.82760  0.04910  1.0000 0.0692528972
C   C551      1.0  0.82620  0.32760  0.95090  1.0000 0.0692528972
C   C552      1.0  0.32620  0.67240  0.54910  1.0000 0.0692528972
C   C553      1.0  0.69800  0.84140  0.55510  1.0000 -0.0203236526
C   C554      1.0  0.19800  0.15860  0.94490  1.0000 -0.0203236526
C   C555      1.0  0.30200  0.65860  0.05510  1.0000 -0.0203236526
C   C556      1.0  0.80200  0.34140  0.44490  1.0000 -0.0203236526
C   C557      1.0  0.30200  0.15860  0.44490  1.0000 -0.0203236526
C   C558      1.0  0.80200  0.84140  0.05510  1.0000 -0.0203236526
C   C559      1.0  0.69800  0.34140  0.94490  1.0000 -0.0203236526
C   C560      1.0  0.19800  0.65860  0.55510  1.0000 -0.0203236526
C   C561      1.0  0.76790  0.85350  0.56420  1.0000 -0.0203236526
C   C562      1.0  0.26790  0.14650  0.93580  1.0000 -0.0203236526
C   C563      1.0  0.23210  0.64650  0.06420  1.0000 -0.0203236526
C   C564      1.0  0.73210  0.35350  0.43580  1.0000 -0.0203236526
C   C565      1.0  0.23210  0.14650  0.43580  1.0000 -0.0203236526
C   C566      1.0  0.73210  0.85350  0.06420  1.0000 -0.0203236526
C   C567      1.0  0.76790  0.35350  0.93580  1.0000 -0.0203236526
C   C568      1.0  0.26790  0.64650  0.56420  1.0000 -0.0203236526
C   C569      1.0  0.78420  0.89720  0.58990  1.0000 0.5605011321
C   C570      1.0  0.28420  0.10280  0.91010  1.0000 0.5605011321
C   C571      1.0  0.21580  0.60280  0.08990  1.0000 0.5605011321
C   C572      1.0  0.71580  0.39720  0.41010  1.0000 0.5605011321
C   C573      1.0  0.21580  0.10280  0.41010  1.0000 0.5605011321
C   C574      1.0  0.71580  0.89720  0.08990  1.0000 0.5605011321
C   C575      1.0  0.78420  0.39720  0.91010  1.0000 0.5605011321
C   C576      1.0  0.28420  0.60280  0.58990  1.0000 0.5605011321
N   N1        1.0  0.03150  0.68970  0.01810  1.0000 -0.2157527898
N   N2        1.0  0.53150  0.31030  0.48190  1.0000 -0.2157527898
N   N3        1.0  0.96850  0.81030  0.51810  1.0000 -0.2157527898
N   N4        1.0  0.46850  0.18970  0.98190  1.0000 -0.2157527898
N   N5        1.0  0.96850  0.31030  0.98190  1.0000 -0.2157527898
N   N6        1.0  0.46850  0.68970  0.51810  1.0000 -0.2157527898
N   N7        1.0  0.03150  0.18970  0.48190  1.0000 -0.2157527898
N   N8        1.0  0.53150  0.81030  0.01810  1.0000 -0.2157527898
N   N9        1.0  0.58750  0.66680  0.02320  1.0000 -0.2093120436
N   N10       1.0  0.08750  0.33320  0.47680  1.0000 -0.2093120436
N   N11       1.0  0.41250  0.83320  0.52320  1.0000 -0.2093120436
N   N12       1.0  0.91250  0.16680  0.97680  1.0000 -0.2093120436
N   N13       1.0  0.41250  0.33320  0.97680  1.0000 -0.2093120436
N   N14       1.0  0.91250  0.66680  0.52320  1.0000 -0.2093120436
N   N15       1.0  0.58750  0.16680  0.47680  1.0000 -0.2093120436
N   N16       1.0  0.08750  0.83320  0.02320  1.0000 -0.2093120436
N   N17       1.0  0.54320  0.62700  0.21820  1.0000 -0.2416740963
N   N18       1.0  0.04320  0.37300  0.28180  1.0000 -0.2416740963
N   N19       1.0  0.45680  0.87300  0.71820  1.0000 -0.2416740963
N   N20       1.0  0.95680  0.12700  0.78180  1.0000 -0.2416740963
N   N21       1.0  0.45680  0.37300  0.78180  1.0000 -0.2416740963
N   N22       1.0  0.95680  0.62700  0.71820  1.0000 -0.2416740963
N   N23       1.0  0.54320  0.12700  0.28180  1.0000 -0.2416740963
N   N24       1.0  0.04320  0.87300  0.21820  1.0000 -0.2416740963
N   N25       1.0  0.89730  0.80170  0.22540  1.0000 -0.2493421715
N   N26       1.0  0.39730  0.19830  0.27460  1.0000 -0.2493421715
N   N27       1.0  0.10270  0.69830  0.72540  1.0000 -0.2493421715
N   N28       1.0  0.60270  0.30170  0.77460  1.0000 -0.2493421715
N   N29       1.0  0.10270  0.19830  0.77460  1.0000 -0.2493421715
N   N30       1.0  0.60270  0.80170  0.72540  1.0000 -0.2493421715
N   N31       1.0  0.89730  0.30170  0.27460  1.0000 -0.2493421715
N   N32       1.0  0.39730  0.69830  0.22540  1.0000 -0.2493421715
N   N33       1.0  0.11960  0.66580  0.97720  1.0000 -0.2093120436
N   N34       1.0  0.61960  0.33420  0.52280  1.0000 -0.2093120436
N   N35       1.0  0.88040  0.83420  0.47720  1.0000 -0.2093120436
N   N36       1.0  0.38040  0.16580  0.02280  1.0000 -0.2093120436
N   N37       1.0  0.88040  0.33420  0.02280  1.0000 -0.2093120436
N   N38       1.0  0.38040  0.66580  0.47720  1.0000 -0.2093120436
N   N39       1.0  0.11960  0.16580  0.52280  1.0000 -0.2093120436
N   N40       1.0  0.61960  0.83420  0.97720  1.0000 -0.2093120436
N   N41       1.0  0.81590  0.78970  0.52610  1.0000 -0.2093120436
N   N42       1.0  0.31590  0.21030  0.97390  1.0000 -0.2093120436
N   N43       1.0  0.18410  0.71030  0.02610  1.0000 -0.2093120436
N   N44       1.0  0.68410  0.28970  0.47390  1.0000 -0.2093120436
N   N45       1.0  0.18410  0.21030  0.47390  1.0000 -0.2093120436
N   N46       1.0  0.68410  0.78970  0.02610  1.0000 -0.2093120436
N   N47       1.0  0.81590  0.28970  0.97390  1.0000 -0.2093120436
N   N48       1.0  0.31590  0.71030  0.52610  1.0000 -0.2093120436
N   N49       1.0  0.81140  0.70290  0.48540  1.0000 -0.2093120436
N   N50       1.0  0.31140  0.29710  0.01460  1.0000 -0.2093120436
N   N51       1.0  0.18860  0.79710  0.98540  1.0000 -0.2093120436
N   N52       1.0  0.68860  0.20290  0.51460  1.0000 -0.2049929146
N   N53       1.0  0.18860  0.29710  0.51460  1.0000 -0.2093120436
N   N54       1.0  0.68860  0.70290  0.98540  1.0000 -0.2093120436
N   N55       1.0  0.81140  0.20290  0.01460  1.0000 -0.2093120436
N   N56       1.0  0.31140  0.79710  0.48540  1.0000 -0.2093120436
N   N57       1.0  0.53380  0.71260  0.97810  1.0000 -0.2270115055
N   N58       1.0  0.03380  0.28740  0.52190  1.0000 -0.2270115055
N   N59       1.0  0.46620  0.78740  0.47810  1.0000 -0.2270115055
N   N60       1.0  0.96620  0.21260  0.02190  1.0000 -0.2270115055
N   N61       1.0  0.46620  0.28740  0.02190  1.0000 -0.2270115055
N   N62       1.0  0.96620  0.71260  0.47810  1.0000 -0.2270115055
N   N63       1.0  0.53380  0.21260  0.52190  1.0000 -0.2270115055
N   N64       1.0  0.03380  0.78740  0.97810  1.0000 -0.2270115055
N   N65       1.0  0.51790  0.69480  0.26480  1.0000 -0.2493421715
N   N66       1.0  0.01790  0.30520  0.23520  1.0000 -0.2493421715
N   N67       1.0  0.48210  0.80520  0.76480  1.0000 -0.2493421715
N   N68       1.0  0.98210  0.19480  0.73520  1.0000 -0.2493421715
N   N69       1.0  0.48210  0.30520  0.73520  1.0000 -0.2493421715
N   N70       1.0  0.98210  0.69480  0.76480  1.0000 -0.2493421715
N   N71       1.0  0.51790  0.19480  0.23520  1.0000 -0.2493421715
N   N72       1.0  0.01790  0.80520  0.26480  1.0000 -0.2493421715
N   N73       1.0  0.49420  0.52590  0.26670  1.0000 -0.2416740963
N   N74       1.0  0.99420  0.47410  0.23330  1.0000 -0.2416740963
N   N75       1.0  0.50580  0.97410  0.76670  1.0000 -0.2416740963
N   N76       1.0  0.00580  0.02590  0.73330  1.0000 -0.2416740963
N   N77       1.0  0.50580  0.47410  0.73330  1.0000 -0.2416740963
N   N78       1.0  0.00580  0.52590  0.76670  1.0000 -0.2416740963
N   N79       1.0  0.49420  0.02590  0.23330  1.0000 -0.2416740963
N   N80       1.0  0.99420  0.97410  0.26670  1.0000 -0.2416740963
N   N81       1.0  0.41100  0.52670  0.22330  1.0000 -0.2416740963
N   N82       1.0  0.91100  0.47330  0.27670  1.0000 -0.2416740963
N   N83       1.0  0.58900  0.97330  0.72330  1.0000 -0.2416740963
N   N84       1.0  0.08900  0.02670  0.77670  1.0000 -0.2416740963
N   N85       1.0  0.58900  0.47330  0.77670  1.0000 -0.2416740963
N   N86       1.0  0.08900  0.52670  0.72330  1.0000 -0.2416740963
N   N87       1.0  0.41100  0.02670  0.27670  1.0000 -0.2416740963
N   N88       1.0  0.91100  0.97330  0.22330  1.0000 -0.2416740963
N   N89       1.0  0.86790  0.86690  0.27220  1.0000 -0.2416740963
N   N90       1.0  0.36790  0.13310  0.22780  1.0000 -0.2416740963
N   N91       1.0  0.13210  0.63310  0.77220  1.0000 -0.2416740963
N   N92       1.0  0.63210  0.36690  0.72780  1.0000 -0.2416740963
N   N93       1.0  0.13210  0.13310  0.72780  1.0000 -0.2416740963
N   N94       1.0  0.63210  0.86690  0.77220  1.0000 -0.2416740963
N   N95       1.0  0.86790  0.36690  0.22780  1.0000 -0.2416740963
N   N96       1.0  0.36790  0.63310  0.27220  1.0000 -0.2416740963
Cl  Cl1       1.0  0.22500  0.00590  0.00784  1.0000 1.2742246346
Cl  Cl2       1.0  0.72500  0.99410  0.49216  1.0000 1.2742246346
Cl  Cl3       1.0  0.77500  0.49410  0.50784  1.0000 1.2742246346
Cl  Cl4       1.0  0.27500  0.50590  0.99216  1.0000 1.2750199791
Cl  Cl5       1.0  0.77500  0.99410  0.99216  1.0000 1.2750199791
Cl  Cl6       1.0  0.27500  0.00590  0.50784  1.0000 1.2742246346
Cl  Cl7       1.0  0.22500  0.50590  0.49216  1.0000 1.2742246346
Cl  Cl8       1.0  0.72500  0.49410  0.00784  1.0000 1.2742246346
O   O1        1.0  0.86780  0.61290  0.08539  1.0000 -0.6585089807
O   O2        1.0  0.36780  0.38710  0.41461  1.0000 -0.6585089807
O   O3        1.0  0.13220  0.88710  0.58539  1.0000 -0.6585089807
O   O4        1.0  0.63220  0.11290  0.91461  1.0000 -0.6585089807
O   O5        1.0  0.13220  0.38710  0.91461  1.0000 -0.6585089807
O   O6        1.0  0.63220  0.61290  0.58539  1.0000 -0.6585089807
O   O7        1.0  0.86780  0.11290  0.41461  1.0000 -0.6585089807
O   O8        1.0  0.36780  0.88710  0.08539  1.0000 -0.6585089807
O   O9        1.0  0.71110  0.58590  0.08611  1.0000 -0.6304260586
O   O10       1.0  0.21110  0.41410  0.41389  1.0000 -0.6304260586
O   O11       1.0  0.28890  0.91410  0.58611  1.0000 -0.6304260586
O   O12       1.0  0.78890  0.08590  0.91389  1.0000 -0.6304260586
O   O13       1.0  0.28890  0.41410  0.91389  1.0000 -0.6304260586
O   O14       1.0  0.78890  0.58590  0.58611  1.0000 -0.6304260586
O   O15       1.0  0.71110  0.08590  0.41389  1.0000 -0.6304260586
O   O16       1.0  0.21110  0.91410  0.08611  1.0000 -0.6304260586
O   O17       1.0  0.69180  0.56780  0.14348  1.0000 -0.6793383602
O   O18       1.0  0.19180  0.43220  0.35652  1.0000 -0.6793383602
O   O19       1.0  0.30820  0.93220  0.64348  1.0000 -0.6793383602
O   O20       1.0  0.80820  0.06780  0.85652  1.0000 -0.6793383602
O   O21       1.0  0.30820  0.43220  0.85652  1.0000 -0.6793383602
O   O22       1.0  0.80820  0.56780  0.64348  1.0000 -0.6793383602
O   O23       1.0  0.69180  0.06780  0.35652  1.0000 -0.6793383602
O   O24       1.0  0.19180  0.93220  0.14348  1.0000 -0.6793383602
O   O25       1.0  0.86860  0.62940  0.15440  1.0000 -0.7102343682
O   O26       1.0  0.36860  0.37060  0.34560  1.0000 -0.7102343682
O   O27       1.0  0.13140  0.87060  0.65440  1.0000 -0.7102343682
O   O28       1.0  0.63140  0.12940  0.84560  1.0000 -0.7102343682
O   O29       1.0  0.13140  0.37060  0.84560  1.0000 -0.7102343682
O   O30       1.0  0.63140  0.62940  0.65440  1.0000 -0.7102343682
O   O31       1.0  0.86860  0.12940  0.34560  1.0000 -0.7102343682
O   O32       1.0  0.36860  0.87060  0.15440  1.0000 -0.7102343682
O   O33       1.0  0.93290  0.51920  0.12290  1.0000 -0.7304463033
O   O34       1.0  0.43290  0.48080  0.37710  1.0000 -0.7304463033
O   O35       1.0  0.06710  0.98080  0.62290  1.0000 -0.7304463033
O   O36       1.0  0.56710  0.01920  0.87710  1.0000 -0.7304463033
O   O37       1.0  0.06710  0.48080  0.87710  1.0000 -0.7304463033
O   O38       1.0  0.56710  0.51920  0.62290  1.0000 -0.7304463033
O   O39       1.0  0.93290  0.01920  0.37710  1.0000 -0.7304463033
O   O40       1.0  0.43290  0.98080  0.12290  1.0000 -0.7304463033
O   O41       1.0  0.76670  0.69740  0.12030  1.0000 -0.7611189429
O   O42       1.0  0.26670  0.30260  0.37970  1.0000 -0.7611189429
O   O43       1.0  0.23330  0.80260  0.62030  1.0000 -0.7611189429
O   O44       1.0  0.73330  0.19740  0.87970  1.0000 -0.7611189429
O   O45       1.0  0.23330  0.30260  0.87970  1.0000 -0.7611189429
O   O46       1.0  0.73330  0.69740  0.62030  1.0000 -0.7611189429
O   O47       1.0  0.76670  0.19740  0.37970  1.0000 -0.7611189429
O   O48       1.0  0.26670  0.80260  0.12030  1.0000 -0.7611189429
O   O49       1.0  0.20510  0.53470  0.90134  1.0000 -0.6793383602
O   O50       1.0  0.70510  0.46530  0.59866  1.0000 -0.6793383602
O   O51       1.0  0.79490  0.96530  0.40134  1.0000 -0.6793383602
O   O52       1.0  0.29490  0.03470  0.09866  1.0000 -0.6793383602
O   O53       1.0  0.79490  0.46530  0.09866  1.0000 -0.6793383602
O   O54       1.0  0.29490  0.53470  0.40134  1.0000 -0.6793383602
O   O55       1.0  0.20510  0.03470  0.59866  1.0000 -0.6793383602
O   O56       1.0  0.70510  0.96530  0.90134  1.0000 -0.6793383602
O   O57       1.0  0.81770  0.98280  0.34250  1.0000 -0.6304260586
O   O58       1.0  0.31770  0.01720  0.15750  1.0000 -0.6304260586
O   O59       1.0  0.18230  0.51720  0.84250  1.0000 -0.6304260586
O   O60       1.0  0.68230  0.48280  0.65750  1.0000 -0.6304260586
O   O61       1.0  0.18230  0.01720  0.65750  1.0000 -0.6304260586
O   O62       1.0  0.68230  0.98280  0.84250  1.0000 -0.6304260586
O   O63       1.0  0.81770  0.48280  0.15750  1.0000 -0.6304260586
O   O64       1.0  0.31770  0.51720  0.34250  1.0000 -0.6304260586
O   O65       1.0  0.88780  0.73190  0.08490  1.0000 -0.5308174563
O   O66       1.0  0.38780  0.26810  0.41510  1.0000 -0.5308174563
O   O67       1.0  0.11220  0.76810  0.58490  1.0000 -0.5308174563
O   O68       1.0  0.61220  0.23190  0.91510  1.0000 -0.5308174563
O   O69       1.0  0.11220  0.26810  0.91510  1.0000 -0.5308174563
O   O70       1.0  0.61220  0.73190  0.58490  1.0000 -0.5308174563
O   O71       1.0  0.88780  0.23190  0.41510  1.0000 -0.5308174563
O   O72       1.0  0.38780  0.76810  0.08490  1.0000 -0.5308174563
O   O73       1.0  0.63500  0.49240  0.09108  1.0000 -0.6793383602
O   O74       1.0  0.13500  0.50760  0.40892  1.0000 -0.6793383602
O   O75       1.0  0.36500  0.00760  0.59108  1.0000 -0.6793383602
O   O76       1.0  0.86500  0.99240  0.90892  1.0000 -0.6793383602
O   O77       1.0  0.36500  0.50760  0.90892  1.0000 -0.6793383602
O   O78       1.0  0.86500  0.49240  0.59108  1.0000 -0.6793383602
O   O79       1.0  0.63500  0.99240  0.40892  1.0000 -0.6793383602
O   O80       1.0  0.13500  0.00760  0.09108  1.0000 -0.6793383602
O   O81       1.0  0.59520  0.49860  0.15110  1.0000 -0.6304260586
O   O82       1.0  0.09520  0.50140  0.34890  1.0000 -0.6304260586
O   O83       1.0  0.40480  0.00140  0.65110  1.0000 -0.6304260586
O   O84       1.0  0.90480  0.99860  0.84890  1.0000 -0.6304260586
O   O85       1.0  0.40480  0.50140  0.84890  1.0000 -0.6304260586
O   O86       1.0  0.90480  0.49860  0.65110  1.0000 -0.6304260586
O   O87       1.0  0.59520  0.99860  0.34890  1.0000 -0.6304260586
O   O88       1.0  0.09520  0.00140  0.15110  1.0000 -0.6304260586
O   O89       1.0  0.93360  0.72890  0.14760  1.0000 -0.5041105989
O   O90       1.0  0.43360  0.27110  0.35240  1.0000 -0.5041105989
O   O91       1.0  0.06640  0.77110  0.64760  1.0000 -0.5041105989
O   O92       1.0  0.56640  0.22890  0.85240  1.0000 -0.5041105989
O   O93       1.0  0.06640  0.27110  0.85240  1.0000 -0.5041105989
O   O94       1.0  0.56640  0.72890  0.64760  1.0000 -0.5041105989
O   O95       1.0  0.93360  0.22890  0.35240  1.0000 -0.5041105989
O   O96       1.0  0.43360  0.77110  0.14760  1.0000 -0.5041105989
O   O97       1.0  0.26830  0.63270  0.91182  1.0000 -0.6304260586
O   O98       1.0  0.76830  0.36730  0.58818  1.0000 -0.6304260586
O   O99       1.0  0.73170  0.86730  0.41182  1.0000 -0.6304260586
O   O100      1.0  0.23170  0.13270  0.08818  1.0000 -0.6304260586
O   O101      1.0  0.73170  0.36730  0.08818  1.0000 -0.6304260586
O   O102      1.0  0.23170  0.63270  0.41182  1.0000 -0.6304260586
O   O103      1.0  0.26830  0.13270  0.58818  1.0000 -0.6304260586
O   O104      1.0  0.76830  0.86730  0.91182  1.0000 -0.6304260586
O   O105      1.0  0.44880  0.81000  0.90950  1.0000 -0.5249024872
O   O106      1.0  0.94880  0.19000  0.59050  1.0000 -0.5308174563
O   O107      1.0  0.55120  0.69000  0.40950  1.0000 -0.5308174563
O   O108      1.0  0.05120  0.31000  0.09050  1.0000 -0.5308174563
O   O109      1.0  0.55120  0.19000  0.09050  1.0000 -0.5308174563
O   O110      1.0  0.05120  0.81000  0.40950  1.0000 -0.5308174563
O   O111      1.0  0.44880  0.31000  0.59050  1.0000 -0.5249024872
O   O112      1.0  0.94880  0.69000  0.90950  1.0000 -0.5308174563
O   O113      1.0  0.39270  0.70920  0.89673  1.0000 -0.6879425217
O   O114      1.0  0.89270  0.29080  0.60327  1.0000 -0.6879425217
O   O115      1.0  0.60730  0.79080  0.39673  1.0000 -0.6879425217
O   O116      1.0  0.10730  0.20920  0.10327  1.0000 -0.6879425217
O   O117      1.0  0.60730  0.29080  0.10327  1.0000 -0.6879425217
O   O118      1.0  0.10730  0.70920  0.39673  1.0000 -0.6879425217
O   O119      1.0  0.39270  0.20920  0.60327  1.0000 -0.6879425217
O   O120      1.0  0.89270  0.79080  0.89673  1.0000 -0.6879425217
O   O121      1.0  0.58200  0.84250  0.34020  1.0000 -0.6793383602
O   O122      1.0  0.08200  0.15750  0.15980  1.0000 -0.6793383602
O   O123      1.0  0.41800  0.65750  0.84020  1.0000 -0.6793383602
O   O124      1.0  0.91800  0.34250  0.65980  1.0000 -0.6793383602
O   O125      1.0  0.41800  0.15750  0.65980  1.0000 -0.6793383602
O   O126      1.0  0.91800  0.84250  0.84020  1.0000 -0.6793383602
O   O127      1.0  0.58200  0.34250  0.15980  1.0000 -0.6793383602
O   O128      1.0  0.08200  0.65750  0.34020  1.0000 -0.6793383602
O   O129      1.0  0.48250  0.77260  0.34230  1.0000 -0.5806261394
O   O130      1.0  0.98250  0.22740  0.15770  1.0000 -0.5806261394
O   O131      1.0  0.51750  0.72740  0.84230  1.0000 -0.5806261394
O   O132      1.0  0.01750  0.27260  0.65770  1.0000 -0.5806261394
O   O133      1.0  0.51750  0.22740  0.65770  1.0000 -0.5806261394
O   O134      1.0  0.01750  0.77260  0.84230  1.0000 -0.5806261394
O   O135      1.0  0.48250  0.27260  0.15770  1.0000 -0.5806261394
O   O136      1.0  0.98250  0.72740  0.34230  1.0000 -0.5806261394
O   O137      1.0  0.61350  0.54530  0.33630  1.0000 -0.6086960081
O   O138      1.0  0.11350  0.45470  0.16370  1.0000 -0.6086960081
O   O139      1.0  0.38650  0.95470  0.83630  1.0000 -0.6086960081
O   O140      1.0  0.88650  0.04530  0.66370  1.0000 -0.6086960081
O   O141      1.0  0.38650  0.45470  0.66370  1.0000 -0.6086960081
O   O142      1.0  0.88650  0.54530  0.83630  1.0000 -0.6086960081
O   O143      1.0  0.61350  0.04530  0.16370  1.0000 -0.6086960081
O   O144      1.0  0.11350  0.95470  0.33630  1.0000 -0.6086960081
O   O145      1.0  0.60090  0.43210  0.34800  1.0000 -0.5806261394
O   O146      1.0  0.10090  0.56790  0.15200  1.0000 -0.5806261394
O   O147      1.0  0.39910  0.06790  0.84800  1.0000 -0.5806261394
O   O148      1.0  0.89910  0.93210  0.65200  1.0000 -0.5806261394
O   O149      1.0  0.39910  0.56790  0.65200  1.0000 -0.5806261394
O   O150      1.0  0.89910  0.43210  0.84800  1.0000 -0.5806261394
O   O151      1.0  0.60090  0.93210  0.15200  1.0000 -0.5806261394
O   O152      1.0  0.10090  0.06790  0.34800  1.0000 -0.5806261394
O   O153      1.0  0.25100  0.53280  0.16270  1.0000 -0.6086960081
O   O154      1.0  0.75100  0.46720  0.33730  1.0000 -0.6086960081
O   O155      1.0  0.74900  0.96720  0.66270  1.0000 -0.6086960081
O   O156      1.0  0.24900  0.03280  0.83730  1.0000 -0.6086960081
O   O157      1.0  0.74900  0.46720  0.83730  1.0000 -0.6086960081
O   O158      1.0  0.24900  0.53280  0.66270  1.0000 -0.6086960081
O   O159      1.0  0.25100  0.03280  0.33730  1.0000 -0.6086960081
O   O160      1.0  0.75100  0.96720  0.16270  1.0000 -0.6086960081
O   O161      1.0  0.29630  0.43830  0.14260  1.0000 -0.6005571131
O   O162      1.0  0.79630  0.56170  0.35740  1.0000 -0.6005571131
O   O163      1.0  0.70370  0.06170  0.64260  1.0000 -0.6005571131
O   O164      1.0  0.20370  0.93830  0.85740  1.0000 -0.6005571131
O   O165      1.0  0.70370  0.56170  0.85740  1.0000 -0.6005571131
O   O166      1.0  0.20370  0.43830  0.64260  1.0000 -0.6005571131
O   O167      1.0  0.29630  0.93830  0.35740  1.0000 -0.6005571131
O   O168      1.0  0.79630  0.06170  0.14260  1.0000 -0.6005571131
O   O169      1.0  0.73060  0.90340  0.35230  1.0000 -0.7199317384
O   O170      1.0  0.23060  0.09660  0.14770  1.0000 -0.7199317384
O   O171      1.0  0.26940  0.59660  0.85230  1.0000 -0.7199317384
O   O172      1.0  0.76940  0.40340  0.64770  1.0000 -0.7199317384
O   O173      1.0  0.26940  0.09660  0.64770  1.0000 -0.7199317384
O   O174      1.0  0.76940  0.90340  0.85230  1.0000 -0.7199317384
O   O175      1.0  0.73060  0.40340  0.14770  1.0000 -0.7199317384
O   O176      1.0  0.23060  0.59660  0.35230  1.0000 -0.7199317384
O   O177      1.0  0.71530  0.55160  0.41780  1.0000 -0.6682220046
O   O178      1.0  0.21530  0.44840  0.08220  1.0000 -0.6682220046
O   O179      1.0  0.28470  0.94840  0.91780  1.0000 -0.6682220046
O   O180      1.0  0.78470  0.05160  0.58220  1.0000 -0.6682220046
O   O181      1.0  0.28470  0.44840  0.58220  1.0000 -0.6682220046
O   O182      1.0  0.78470  0.55160  0.91780  1.0000 -0.6682220046
O   O183      1.0  0.71530  0.05160  0.08220  1.0000 -0.6682220046
O   O184      1.0  0.21530  0.94840  0.41780  1.0000 -0.6682220046
O   O185      1.0  0.67220  0.64350  0.37350  1.0000 -0.7533368189
O   O186      1.0  0.17220  0.35650  0.12650  1.0000 -0.7533368189
O   O187      1.0  0.32780  0.85650  0.87350  1.0000 -0.7533368189
O   O188      1.0  0.82780  0.14350  0.62650  1.0000 -0.7533368189
O   O189      1.0  0.32780  0.35650  0.62650  1.0000 -0.7533368189
O   O190      1.0  0.82780  0.64350  0.87350  1.0000 -0.7533368189
O   O191      1.0  0.67220  0.14350  0.12650  1.0000 -0.7533368189
O   O192      1.0  0.17220  0.85650  0.37350  1.0000 -0.7533368189
O   O193      1.0  0.56540  0.54370  0.39680  1.0000 -0.7397066001
O   O194      1.0  0.06540  0.45630  0.10320  1.0000 -0.7397066001
O   O195      1.0  0.43460  0.95630  0.89680  1.0000 -0.7397066001
O   O196      1.0  0.93460  0.04370  0.60320  1.0000 -0.7397066001
O   O197      1.0  0.43460  0.45630  0.60320  1.0000 -0.7397066001
O   O198      1.0  0.93460  0.54370  0.89680  1.0000 -0.7397066001
O   O199      1.0  0.56540  0.04370  0.10320  1.0000 -0.7397066001
O   O200      1.0  0.06540  0.95630  0.39680  1.0000 -0.7397066001
O   O201      1.0  0.84940  0.91650  0.59320  1.0000 -0.6304260586
O   O202      1.0  0.34940  0.08350  0.90680  1.0000 -0.6304260586
O   O203      1.0  0.15060  0.58350  0.09320  1.0000 -0.6304260586
O   O204      1.0  0.65060  0.41650  0.40680  1.0000 -0.6304260586
O   O205      1.0  0.15060  0.08350  0.40680  1.0000 -0.6304260586
O   O206      1.0  0.65060  0.91650  0.09320  1.0000 -0.6304260586
O   O207      1.0  0.84940  0.41650  0.90680  1.0000 -0.6304260586
O   O208      1.0  0.34940  0.58350  0.59320  1.0000 -0.6304260586
O   O209      1.0  0.73560  0.91310  0.60590  1.0000 -0.5498622153
O   O210      1.0  0.23560  0.08690  0.89410  1.0000 -0.5498622153
O   O211      1.0  0.26440  0.58690  0.10590  1.0000 -0.5498622153
O   O212      1.0  0.76440  0.41310  0.39410  1.0000 -0.5498622153
O   O213      1.0  0.26440  0.08690  0.39410  1.0000 -0.5498622153
O   O214      1.0  0.76440  0.91310  0.10590  1.0000 -0.5498622153
O   O215      1.0  0.73560  0.41310  0.89410  1.0000 -0.5498622153
O   O216      1.0  0.23560  0.58690  0.60590  1.0000 -0.5498622153
O   O217      1.0  0.83640  0.55180  0.42620  1.0000 -0.5498622153
O   O218      1.0  0.33640  0.44820  0.07380  1.0000 -0.5498622153
O   O219      1.0  0.16360  0.94820  0.92620  1.0000 -0.5498622153
O   O220      1.0  0.66360  0.05180  0.57380  1.0000 -0.5498622153
O   O221      1.0  0.16360  0.44820  0.57380  1.0000 -0.5498622153
O   O222      1.0  0.66360  0.55180  0.92620  1.0000 -0.5498622153
O   O223      1.0  0.83640  0.05180  0.07380  1.0000 -0.5498622153
O   O224      1.0  0.33640  0.94820  0.42620  1.0000 -0.5498622153
O   O225      1.0  0.51040  0.41620  0.10730  1.0000 -0.7533368189
O   O226      1.0  0.01040  0.58380  0.39270  1.0000 -0.7533368189
O   O227      1.0  0.48960  0.08380  0.60730  1.0000 -0.7533368189
O   O228      1.0  0.98960  0.91620  0.89270  1.0000 -0.7533368189
O   O229      1.0  0.48960  0.58380  0.89270  1.0000 -0.7533368189
O   O230      1.0  0.98960  0.41620  0.60730  1.0000 -0.7533368189
O   O231      1.0  0.51040  0.91620  0.39270  1.0000 -0.7533368189
O   O232      1.0  0.01040  0.08380  0.10730  1.0000 -0.7533368189
O   O233      1.0  0.15810  0.99660  0.99290  1.0000 -0.4899758045
O   O234      1.0  0.20870  0.04580  0.03200  1.0000 -0.4786519501
O   O235      1.0  0.25350  0.93670  0.01520  1.0000 -0.4899758045
O   O236      1.0  0.27750  0.04500  0.99220  1.0000 -0.4786519501
O   O237      1.0  0.65810  0.00340  0.50710  1.0000 -0.4899758045
O   O238      1.0  0.70870  0.95420  0.46800  1.0000 -0.4786519501
O   O239      1.0  0.75350  0.06330  0.48480  1.0000 -0.4899758045
O   O240      1.0  0.77750  0.95500  0.50780  1.0000 -0.4786519501
O   O241      1.0  0.84190  0.50340  0.49290  1.0000 -0.4899758045
O   O242      1.0  0.79130  0.45420  0.53200  1.0000 -0.4786519501
O   O243      1.0  0.74650  0.56330  0.51520  1.0000 -0.4899758045
O   O244      1.0  0.72250  0.45500  0.49220  1.0000 -0.4786519501
O   O245      1.0  0.34190  0.49660  0.00710  1.0000 -0.4899758045
O   O246      1.0  0.29130  0.54580  0.96800  1.0000 -0.4786519501
O   O247      1.0  0.24650  0.43670  0.98480  1.0000 -0.4899758045
O   O248      1.0  0.22250  0.54500  0.00780  1.0000 -0.4786519501
O   O249      1.0  0.84190  0.00340  0.00710  1.0000 -0.4899758045
O   O250      1.0  0.79130  0.95420  0.96800  1.0000 -0.4786519501
O   O251      1.0  0.74650  0.06330  0.98480  1.0000 -0.4899758045
O   O252      1.0  0.72250  0.95500  0.00780  1.0000 -0.4786519501
O   O253      1.0  0.34190  0.99660  0.49290  1.0000 -0.4899758045
O   O254      1.0  0.29130  0.04580  0.53200  1.0000 -0.4786519501
O   O255      1.0  0.24650  0.93670  0.51520  1.0000 -0.4899758045
O   O256      1.0  0.22250  0.04500  0.49220  1.0000 -0.4786519501
O   O257      1.0  0.15810  0.49660  0.50710  1.0000 -0.4899758045
O   O258      1.0  0.20870  0.54580  0.46800  1.0000 -0.4786519501
O   O259      1.0  0.25350  0.43670  0.48480  1.0000 -0.4899758045
O   O260      1.0  0.27750  0.54500  0.50780  1.0000 -0.4786519501
O   O261      1.0  0.65810  0.50340  0.99290  1.0000 -0.4899758045
O   O262      1.0  0.70870  0.45420  0.03200  1.0000 -0.4786519501
O   O263      1.0  0.75350  0.56330  0.01520  1.0000 -0.4899758045
O   O264      1.0  0.77750  0.45500  0.99220  1.0000 -0.4786519501
