# DDEC6 charges by PACMAN v1.1 (https://github.com/mtap-research/PACMAN-charge/)
data_2012[In][dia]3[ION]2
_chemical_formula_sum              "In8 H255 C256 N16 O64"
_cell_length_a       28.267
_cell_length_b       23.525
_cell_length_c       22.9753
_cell_angle_alpha    74.8635
_cell_angle_beta     53.4531
_cell_angle_gamma    51.6835

_symmetry_space_group_name_H-M    "P 1"
_symmetry_Int_Tables_number       1

loop_
  _symmetry_equiv_pos_as_xyz
  'x, y, z'

loop_
  _atom_site_type_symbol
  _atom_site_label
  _atom_site_symmetry_multiplicity
  _atom_site_fract_x
  _atom_site_fract_y
  _atom_site_fract_z
  _atom_site_occupancy
  _atom_site_charge
In  In1       1.0  0.48970  0.75722  0.49521  1.0000 1.2610047764
In  In2       1.0  0.75377  0.49264  0.76050  1.0000 1.2610047764
In  In3       1.0  0.50403  0.24223  0.51070  1.0000 1.2734863466
In  In4       1.0  0.23965  0.50753  0.24533  1.0000 1.2610047764
In  In5       1.0  0.62874  0.63245  0.12384  1.0000 1.2264169162
In  In6       1.0  0.11580  0.12112  0.63132  1.0000 1.2356886572
In  In7       1.0  0.36577  0.37140  0.88122  1.0000 1.2264169162
In  In8       1.0  0.87920  0.88153  0.37412  1.0000 1.2264169162
H   H1        1.0  0.30675  0.77672  0.50839  1.0000 0.1004878827
H   H2        1.0  0.26527  0.73816  0.46967  1.0000 0.1004878827
H   H3        1.0  0.49150  0.56205  0.30995  1.0000 0.1004878827
H   H4        1.0  0.53164  0.60341  0.34779  1.0000 0.1004878827
H   H5        1.0  0.44557  0.57517  0.24948  1.0000 0.0898697734
H   H6        1.0  0.40858  0.53012  0.21113  1.0000 0.1085333123
H   H7        1.0  0.20180  0.62523  0.42343  1.0000 0.0898697734
H   H8        1.0  0.24158  0.66383  0.46481  1.0000 0.0898697734
H   H9        1.0  0.77658  0.37135  0.07446  1.0000 0.0801371954
H   H10       1.0  0.81530  0.25135  0.11253  1.0000 0.0801371954
H   H11       1.0  0.66751  0.35683  0.33920  1.0000 0.1004878827
H   H12       1.0  0.62624  0.47562  0.30030  1.0000 0.0898697734
H   H13       1.0  0.87368  0.14934  0.14929  1.0000 0.0898697734
H   H14       1.0  0.91118  0.03044  0.18987  1.0000 0.1004878827
H   H15       1.0  0.71688  0.13751  0.40874  1.0000 0.1085333123
H   H16       1.0  0.67511  0.25681  0.36910  1.0000 0.1004878827
H   H17       1.0  0.74484  0.31486  0.91172  1.0000 0.1004878827
H   H18       1.0  0.70505  0.27367  0.03021  1.0000 0.1004878827
H   H19       1.0  0.59483  0.48674  0.13598  1.0000 0.1004878827
H   H20       1.0  0.63258  0.52709  0.01728  1.0000 0.1085333123
H   H21       1.0  0.53353  0.45845  0.23726  1.0000 0.0898697734
H   H22       1.0  0.49281  0.41961  0.35583  1.0000 0.1085333123
H   H23       1.0  0.66215  0.19345  0.24901  1.0000 0.0801371954
H   H24       1.0  0.70411  0.23212  0.12924  1.0000 0.0801371954
H   H25       1.0  0.36803  0.77607  0.29077  1.0000 0.0801371954
H   H26       1.0  0.24828  0.81352  0.33405  1.0000 0.0801371954
H   H27       1.0  0.35191  0.68190  0.13855  1.0000 0.1004878827
H   H28       1.0  0.47126  0.64032  0.09978  1.0000 0.1004878827
H   H29       1.0  0.14558  0.87620  0.33911  1.0000 0.0898697734
H   H30       1.0  0.02710  0.91197  0.38048  1.0000 0.0898697734
H   H31       1.0  0.13634  0.72024  0.24339  1.0000 0.1085333123
H   H32       1.0  0.25544  0.68027  0.20466  1.0000 0.1004878827
H   H33       1.0  0.49361  0.90836  0.31273  1.0000 0.0898697734
H   H34       1.0  0.45464  0.02734  0.27155  1.0000 0.0898697734
H   H35       1.0  0.31204  0.13448  0.49604  1.0000 0.1004878827
H   H36       1.0  0.34868  0.01580  0.53642  1.0000 0.1004878827
H   H37       1.0  0.24852  0.23149  0.45643  1.0000 0.0898697734
H   H38       1.0  0.21025  0.35153  0.41871  1.0000 0.1085333123
H   H39       1.0  0.41226  0.24731  0.20260  1.0000 0.0801371954
H   H40       1.0  0.45367  0.12745  0.24206  1.0000 0.0898697734
H   H41       1.0  0.06619  0.28759  0.77502  1.0000 0.0801371954
H   H42       1.0  0.10444  0.33086  0.81326  1.0000 0.0801371954
H   H43       1.0  0.32876  0.13667  0.67955  1.0000 0.1004878827
H   H44       1.0  0.29015  0.09816  0.63766  1.0000 0.0898697734
H   H45       1.0  0.13871  0.34031  0.87310  1.0000 0.0898697734
H   H46       1.0  0.17989  0.38126  0.90946  1.0000 0.0898697734
H   H47       1.0  0.40153  0.23622  0.72385  1.0000 0.1085333123
H   H48       1.0  0.36165  0.19824  0.68259  1.0000 0.1004878827
H   H49       1.0  0.90563  0.49467  0.78802  1.0000 0.0898697734
H   H50       1.0  0.02458  0.45619  0.74864  1.0000 0.0898697734
H   H51       1.0  0.13122  0.31575  0.55819  1.0000 0.1004878827
H   H52       1.0  0.01250  0.35200  0.60036  1.0000 0.1004878827
H   H53       1.0  0.22877  0.25187  0.56335  1.0000 0.0898697734
H   H54       1.0  0.34879  0.21344  0.51961  1.0000 0.1085333123
H   H55       1.0  0.24420  0.41399  0.64067  1.0000 0.0801371954
H   H56       1.0  0.12441  0.45559  0.67940  1.0000 0.0898697734
H   H57       1.0  0.28343  0.07274  0.37113  1.0000 0.0801371954
H   H58       1.0  0.32655  0.11120  0.25143  1.0000 0.0801371954
H   H59       1.0  0.13163  0.33516  0.35499  1.0000 0.1004878827
H   H60       1.0  0.09296  0.29640  0.47404  1.0000 0.0898697734
H   H61       1.0  0.33387  0.14539  0.14834  1.0000 0.0898697734
H   H62       1.0  0.37452  0.18633  0.02961  1.0000 0.1004878827
H   H63       1.0  0.23182  0.40788  0.13806  1.0000 0.1085333123
H   H64       1.0  0.19421  0.36789  0.25737  1.0000 0.1004878827
H   H65       1.0  0.68529  0.21577  0.50802  1.0000 0.0898697734
H   H66       1.0  0.72625  0.25558  0.54630  1.0000 0.0898697734
H   H67       1.0  0.50218  0.44678  0.68529  1.0000 0.1004878827
H   H68       1.0  0.46194  0.40437  0.64919  1.0000 0.1004878827
H   H69       1.0  0.54079  0.44132  0.74984  1.0000 0.0898697734
H   H70       1.0  0.57870  0.48504  0.78821  1.0000 0.1085333123
H   H71       1.0  0.79548  0.36467  0.58722  1.0000 0.0801371954
H   H72       1.0  0.75603  0.32564  0.54587  1.0000 0.0898697734
H   H73       1.0  0.22450  0.63130  0.93041  1.0000 0.0898697734
H   H74       1.0  0.18628  0.75145  0.89201  1.0000 0.0801371954
H   H75       1.0  0.31765  0.64855  0.66830  1.0000 0.1004878827
H   H76       1.0  0.35922  0.52926  0.70680  1.0000 0.0898697734
H   H77       1.0  0.12262  0.85423  0.85763  1.0000 0.0898697734
H   H78       1.0  0.08537  0.97311  0.81661  1.0000 0.1004878827
H   H79       1.0  0.27663  0.86482  0.59658  1.0000 0.1004878827
H   H80       1.0  0.31794  0.74551  0.63669  1.0000 0.1004878827
H   H81       1.0  0.21850  0.69065  0.09492  1.0000 0.1004878827
H   H82       1.0  0.25686  0.73187  0.97622  1.0000 0.1004878827
H   H83       1.0  0.43671  0.50564  0.86770  1.0000 0.1004878827
H   H84       1.0  0.39498  0.46568  0.98643  1.0000 0.1004878827
H   H85       1.0  0.43120  0.54740  0.77164  1.0000 0.0898697734
H   H86       1.0  0.47523  0.58481  0.65153  1.0000 0.1085333123
H   H87       1.0  0.36446  0.79831  0.75429  1.0000 0.0801371954
H   H88       1.0  0.32592  0.75896  0.87406  1.0000 0.0898697734
H   H89       1.0  0.62610  0.22830  0.71370  1.0000 0.0801371954
H   H90       1.0  0.74650  0.18890  0.67024  1.0000 0.0801371954
H   H91       1.0  0.64397  0.32315  0.86326  1.0000 0.1004878827
H   H92       1.0  0.52429  0.36558  0.90264  1.0000 0.0898697734
H   H93       1.0  0.84937  0.12514  0.66645  1.0000 0.0898697734
H   H94       1.0  0.96839  0.08799  0.62572  1.0000 0.1004878827
H   H95       1.0  0.86021  0.28298  0.75714  1.0000 0.1004878827
H   H96       1.0  0.74099  0.32361  0.79556  1.0000 0.1004878827
H   H97       1.0  0.49096  0.09223  0.69413  1.0000 0.0898697734
H   H98       1.0  0.52997  0.97353  0.73533  1.0000 0.0898697734
H   H99       1.0  0.68819  0.86473  0.50890  1.0000 0.1004878827
H   H100      1.0  0.65082  0.98358  0.46906  1.0000 0.1085333123
H   H101      1.0  0.74698  0.76893  0.55140  1.0000 0.0898697734
H   H102      1.0  0.78558  0.64909  0.58922  1.0000 0.1004878827
H   H103      1.0  0.57837  0.75167  0.80134  1.0000 0.1004878827
H   H104      1.0  0.53673  0.87126  0.76170  1.0000 0.1004878827
H   H105      1.0  0.92770  0.71493  0.23192  1.0000 0.0801371954
H   H106      1.0  0.88934  0.67195  0.19370  1.0000 0.0801371954
H   H107      1.0  0.66488  0.86565  0.32861  1.0000 0.1085333123
H   H108      1.0  0.70368  0.90371  0.37049  1.0000 0.0898697734
H   H109      1.0  0.85529  0.66132  0.13497  1.0000 0.0898697734
H   H110      1.0  0.81426  0.62070  0.09818  1.0000 0.0898697734
H   H111      1.0  0.59172  0.76907  0.28094  1.0000 0.1085333123
H   H112      1.0  0.63138  0.80635  0.32322  1.0000 0.1004878827
H   H113      1.0  0.08789  0.50583  0.21727  1.0000 0.0898697734
H   H114      1.0  0.96891  0.54473  0.25640  1.0000 0.0898697734
H   H115      1.0  0.86247  0.68409  0.44760  1.0000 0.1004878827
H   H116      1.0  0.98117  0.64767  0.40554  1.0000 0.1004878827
H   H117      1.0  0.76413  0.74742  0.44459  1.0000 0.0898697734
H   H118      1.0  0.64446  0.78564  0.48761  1.0000 0.1085333123
H   H119      1.0  0.74991  0.58681  0.36300  1.0000 0.0801371954
H   H120      1.0  0.86952  0.54550  0.32433  1.0000 0.0898697734
H   H121      1.0  0.71066  0.93033  0.63424  1.0000 0.0898697734
H   H122      1.0  0.66726  0.89133  0.75385  1.0000 0.0801371954
H   H123      1.0  0.86208  0.66748  0.65002  1.0000 0.1004878827
H   H124      1.0  0.90120  0.70665  0.53099  1.0000 0.0898697734
H   H125      1.0  0.66407  0.85621  0.85574  1.0000 0.0898697734
H   H126      1.0  0.62382  0.81527  0.97445  1.0000 0.0898697734
H   H127      1.0  0.75919  0.59538  0.86669  1.0000 0.1085333123
H   H128      1.0  0.79648  0.63569  0.74733  1.0000 0.1004878827
H   H129      1.0  0.84484  0.49483  0.03059  1.0000 0.2429444945
H   H130      1.0  0.88788  0.38730  0.97258  1.0000 0.0898697734
H   H131      1.0  0.93432  0.40891  0.88369  1.0000 0.0898697734
H   H132      1.0  0.83457  0.46753  0.94457  1.0000 0.1190311741
H   H133      1.0  0.92784  0.52117  0.87905  1.0000 0.1085333123
H   H134      1.0  0.88295  0.57186  0.96413  1.0000 0.1085333123
H   H135      1.0  0.82860  0.57633  0.94345  1.0000 0.1190311741
H   H136      1.0  0.66252  0.56209  0.28556  1.0000 0.2513637754
H   H137      1.0  0.69424  0.46112  0.35225  1.0000 0.1085333123
H   H138      1.0  0.63444  0.54922  0.40745  1.0000 0.1295292384
H   H139      1.0  0.73119  0.49150  0.36883  1.0000 0.1190311741
H   H140      1.0  0.78311  0.51955  0.17842  1.0000 0.0898697734
H   H141      1.0  0.78213  0.44337  0.21877  1.0000 0.1085333123
H   H142      1.0  0.81911  0.47537  0.23334  1.0000 0.1004878827
H   H143      1.0  0.50244  0.85481  0.11851  1.0000 0.2513637754
H   H144      1.0  0.46891  0.84097  0.24483  1.0000 0.1295292384
H   H145      1.0  0.39198  0.89759  0.23788  1.0000 0.0898697734
H   H146      1.0  0.41224  0.94046  0.26578  1.0000 0.0898697734
H   H147      1.0  0.58221  0.88722  0.07925  1.0000 0.1085333123
H   H148      1.0  0.58221  0.82933  0.14826  1.0000 0.1295292384
H   H149      1.0  0.52972  0.92750  0.17271  1.0000 0.1085333123
H   H150      1.0  0.56452  0.65674  0.98638  1.0000 0.2168364928
H   H151      1.0  0.54881  0.62228  0.91360  1.0000 0.1004878827
H   H152      1.0  0.49649  0.71668  0.90389  1.0000 0.0801371954
H   H153      1.0  0.46156  0.68957  0.99351  1.0000 0.0594737474
H   H154      1.0  0.45068  0.77822  0.04495  1.0000 0.0594737474
H   H155      1.0  0.48498  0.80841  0.95684  1.0000 0.0717702986
H   H156      1.0  0.52967  0.77626  0.00226  1.0000 0.0594737474
H   H157      1.0  0.98711  0.20648  0.83913  1.0000 0.2558505839
H   H158      1.0  0.85201  0.36280  0.89454  1.0000 0.1004878827
H   H159      1.0  0.89435  0.30221  0.81747  1.0000 0.1190311741
H   H160      1.0  0.94280  0.32981  0.81342  1.0000 0.1004878827
H   H161      1.0  0.91449  0.18130  0.95390  1.0000 0.1004878827
H   H162      1.0  0.87657  0.21571  0.90096  1.0000 0.1190311741
H   H163      1.0  0.83587  0.27568  0.97773  1.0000 0.1004878827
H   H164      1.0  0.28047  0.98893  0.66613  1.0000 0.2513637754
H   H165      1.0  0.40224  0.90964  0.63814  1.0000 0.1295292384
H   H166      1.0  0.36372  0.90961  0.73489  1.0000 0.1190311741
H   H167      1.0  0.34635  0.99354  0.69777  1.0000 0.1085333123
H   H168      1.0  0.22827  0.97294  0.82297  1.0000 0.1085333123
H   H169      1.0  0.17348  0.01800  0.78691  1.0000 0.1004878827
H   H170      1.0  0.21296  0.05632  0.78516  1.0000 0.1085333123
H   H171      1.0  0.21302  0.00449  0.44422  1.0000 0.2513637754
H   H172      1.0  0.33740  0.94233  0.40117  1.0000 0.1004878827
H   H173      1.0  0.35716  0.85549  0.38972  1.0000 0.1004878827
H   H174      1.0  0.29467  0.90881  0.48074  1.0000 0.1190311741
H   H175      1.0  0.25600  0.85704  0.41684  1.0000 0.1004878827
H   H176      1.0  0.16942  0.94455  0.44302  1.0000 0.1004878827
H   H177      1.0  0.19542  0.91210  0.50649  1.0000 0.1190311741
H   H178      1.0  0.98492  0.28614  0.56406  1.0000 0.2513637754
H   H179      1.0  0.90316  0.37098  0.49393  1.0000 0.1190311741
H   H180      1.0  0.98751  0.35362  0.46313  1.0000 0.1085333123
H   H181      1.0  0.90450  0.40841  0.55163  1.0000 0.1295292384
H   H182      1.0  0.96757  0.23534  0.47584  1.0000 0.1085333123
H   H183      1.0  0.01381  0.17964  0.52039  1.0000 0.1004878827
H   H184      1.0  0.05111  0.22015  0.44483  1.0000 0.1085333123
H   H185      1.0  0.05548  0.56221  0.03591  1.0000 0.2112300998
H   H186      1.0  0.11033  0.61410  0.02961  1.0000 0.0898697734
H   H187      1.0  0.16271  0.53308  0.05774  1.0000 0.1295292384
H   H188      1.0  0.06310  0.59402  0.11934  1.0000 0.0898697734
H   H189      1.0  0.16526  0.42640  0.05984  1.0000 0.1295292384
H   H190      1.0  0.10750  0.43423  0.04219  1.0000 0.1085333123
H   H191      1.0  0.06624  0.48357  0.12611  1.0000 0.1085333123
H   H192      1.0  0.29497  0.41146  0.70418  1.0000 0.2513637754
H   H193      1.0  0.29932  0.53967  0.65065  1.0000 0.1085333123
H   H194      1.0  0.26184  0.50908  0.63535  1.0000 0.1190311741
H   H195      1.0  0.35870  0.45124  0.59622  1.0000 0.1295292384
H   H196      1.0  0.21073  0.48241  0.82572  1.0000 0.0898697734
H   H197      1.0  0.17430  0.52627  0.77116  1.0000 0.1004878827
H   H198      1.0  0.21199  0.55819  0.78451  1.0000 0.1085333123
H   H199      1.0  0.59700  0.08296  0.78664  1.0000 0.2168364928
H   H200      1.0  0.51101  0.17746  0.72169  1.0000 0.1190311741
H   H201      1.0  0.59792  0.08628  0.68139  1.0000 0.0898697734
H   H202      1.0  0.59212  0.16308  0.69477  1.0000 0.1004878827
H   H203      1.0  0.48947  0.08812  0.88387  1.0000 0.1085333123
H   H204      1.0  0.53139  0.04459  0.79617  1.0000 0.1004878827
H   H205      1.0  0.44876  0.13905  0.83361  1.0000 0.1190311741
H   H206      1.0  0.40766  0.29787  0.08944  1.0000 0.2513637754
H   H207      1.0  0.53540  0.30341  0.00799  1.0000 0.1085333123
H   H208      1.0  0.50667  0.26478  0.09098  1.0000 0.1190311741
H   H209      1.0  0.44786  0.36184  0.09249  1.0000 0.1295292384
H   H210      1.0  0.47689  0.21508  0.98081  1.0000 0.0898697734
H   H211      1.0  0.52282  0.17786  0.02587  1.0000 0.1004878827
H   H212      1.0  0.55263  0.21699  0.94345  1.0000 0.1085333123
H   H213      1.0  0.03186  0.73939  0.10031  1.0000 0.2112300998
H   H214      1.0  0.13446  0.64949  0.11047  1.0000 0.1004878827
H   H215      1.0  0.04755  0.67708  0.19563  1.0000 0.1004878827
H   H216      1.0  0.09153  0.71440  0.18418  1.0000 0.1190311741
H   H217      1.0  0.05388  0.83031  0.05224  1.0000 0.0898697734
H   H218      1.0  0.13808  0.73993  0.02648  1.0000 0.1004878827
H   H219      1.0  0.09475  0.80499  0.10054  1.0000 0.1085333123
H   H220      1.0  0.78482  0.05364  0.20594  1.0000 0.2271067506
H   H221      1.0  0.73360  0.01141  0.32063  1.0000 0.1190311741
H   H222      1.0  0.69325  0.99913  0.29071  1.0000 0.1190311741
H   H223      1.0  0.66438  0.08923  0.30774  1.0000 0.1295292384
H   H224      1.0  0.87603  0.93972  0.12124  1.0000 0.0898697734
H   H225      1.0  0.81878  0.91009  0.18161  1.0000 0.1085333123
H   H226      1.0  0.85839  0.92425  0.21086  1.0000 0.1004878827
H   H227      1.0  0.84145  0.03401  0.56700  1.0000 0.2112300998
H   H228      1.0  0.73659  0.03534  0.62188  1.0000 0.0898697734
H   H229      1.0  0.73792  0.06142  0.54016  1.0000 0.1295292384
H   H230      1.0  0.71860  0.12286  0.59772  1.0000 0.0898697734
H   H231      1.0  0.84176  0.06127  0.43206  1.0000 0.1190311741
H   H232      1.0  0.91191  0.03868  0.43856  1.0000 0.1085333123
H   H233      1.0  0.82179  0.12457  0.48809  1.0000 0.1085333123
H   H234      1.0  0.08827  0.70068  0.41461  1.0000 0.2513637754
H   H235      1.0  0.08860  0.59472  0.45444  1.0000 0.1295292384
H   H236      1.0  0.00448  0.65060  0.54198  1.0000 0.1085333123
H   H237      1.0  0.08836  0.63248  0.51357  1.0000 0.1190311741
H   H238      1.0  0.94221  0.78387  0.55921  1.0000 0.1085333123
H   H239      1.0  0.98135  0.82319  0.48369  1.0000 0.0898697734
H   H240      1.0  0.02558  0.76780  0.53013  1.0000 0.1004878827
H   H241      1.0  0.43337  0.33547  0.01221  1.0000 0.2513637754
H   H242      1.0  0.74774  0.04053  0.17809  1.0000 0.2271067506
H   H243      1.0  0.86031  0.97418  0.51460  1.0000 0.2513637754
H   H244      1.0  0.69812  0.58980  0.30051  1.0000 0.2513637754
H   H245      1.0  0.51958  0.17126  0.82417  1.0000 0.2513637754
H   H246      1.0  0.33127  0.43915  0.71792  1.0000 0.2513637754
H   H247      1.0  0.01025  0.71680  0.43976  1.0000 0.2513637754
H   H248      1.0  0.99154  0.80043  0.16961  1.0000 0.2429444945
H   H249      1.0  0.45370  0.94715  0.14022  1.0000 0.2112300998
H   H250      1.0  0.90672  0.30139  0.59111  1.0000 0.2513637754
H   H251      1.0  0.94842  0.26341  0.91100  1.0000 0.2168364928
H   H252      1.0  0.93804  0.44311  0.96961  1.0000 0.2112300998
H   H253      1.0  0.14854  0.50878  0.97363  1.0000 0.2429444945
H   H254      1.0  0.29595  0.91086  0.70251  1.0000 0.2513637754
H   H255      1.0  0.27124  0.95135  0.36066  1.0000 0.2112300998
C   C1        1.0  0.44867  0.71788  0.45449  1.0000 0.480370982
C   C2        1.0  0.42295  0.69352  0.43092  1.0000 -0.0304146105
C   C3        1.0  0.34762  0.72986  0.46482  1.0000 -0.1293709149
C   C4        1.0  0.32376  0.70690  0.44275  1.0000 -0.1702834727
C   C5        1.0  0.37422  0.64617  0.38605  1.0000 0.0717702986
C   C6        1.0  0.44983  0.60971  0.35267  1.0000 -0.1388017303
C   C7        1.0  0.47344  0.63309  0.37460  1.0000 -0.0992353031
C   C8        1.0  0.34863  0.62145  0.36154  1.0000 0.0717702986
C   C9        1.0  0.39366  0.58371  0.28964  1.0000 -0.1293709149
C   C10       1.0  0.37164  0.55893  0.26687  1.0000 -0.0992353031
C   C11       1.0  0.30216  0.57323  0.31414  1.0000 -0.0304146105
C   C12       1.0  0.25576  0.61284  0.38529  1.0000 -0.1199821745
C   C13       1.0  0.27876  0.63568  0.40885  1.0000 -0.1496782154
C   C14       1.0  0.27838  0.54778  0.28881  1.0000 0.4987050854
C   C15       1.0  0.67215  0.50899  0.16068  1.0000 0.480370982
C   C16       1.0  0.69785  0.43407  0.18401  1.0000 -0.0401572748
C   C17       1.0  0.75228  0.36862  0.13247  1.0000 -0.1293709149
C   C18       1.0  0.77515  0.29895  0.15487  1.0000 -0.1496782154
C   C19       1.0  0.74560  0.29131  0.23000  1.0000 0.0801371954
C   C20       1.0  0.69160  0.35761  0.28111  1.0000 -0.1388017303
C   C21       1.0  0.66788  0.42707  0.25866  1.0000 -0.1199821745
C   C22       1.0  0.77032  0.21580  0.25494  1.0000 0.0717702986
C   C23       1.0  0.83721  0.14896  0.20602  1.0000 -0.1573506736
C   C24       1.0  0.85965  0.07975  0.22947  1.0000 -0.1388017303
C   C25       1.0  0.81684  0.07407  0.30302  1.0000 -0.0496416561
C   C26       1.0  0.75081  0.13990  0.35192  1.0000 -0.1120117929
C   C27       1.0  0.72756  0.20898  0.32860  1.0000 -0.1293709149
C   C28       1.0  0.84047  0.00073  0.32946  1.0000 0.4611294574
C   C29       1.0  0.88607  0.43301  0.94193  1.0000 -0.229092997
C   C30       1.0  0.88150  0.53964  0.93823  1.0000 -0.2198045878
C   C31       1.0  0.69029  0.50944  0.35862  1.0000 -0.2198045878
C   C32       1.0  0.77559  0.49270  0.22771  1.0000 -0.229092997
C   C33       1.0  0.71550  0.45084  0.88119  1.0000 0.480370982
C   C34       1.0  0.69191  0.42474  0.95458  1.0000 -0.0401572748
C   C35       1.0  0.71186  0.35285  0.96057  1.0000 -0.1293709149
C   C36       1.0  0.68915  0.32895  0.02949  1.0000 -0.1702834727
C   C37       1.0  0.64617  0.37564  0.09567  1.0000 0.0717702986
C   C38       1.0  0.62656  0.44787  0.08866  1.0000 -0.1388017303
C   C39       1.0  0.64870  0.47168  0.01985  1.0000 -0.0992353031
C   C40       1.0  0.62171  0.34983  0.17074  1.0000 0.0717702986
C   C41       1.0  0.56254  0.40053  0.23757  1.0000 -0.1388017303
C   C42       1.0  0.53869  0.37794  0.30679  1.0000 -0.0939569787
C   C43       1.0  0.57314  0.30309  0.31297  1.0000 -0.0304146105
C   C44       1.0  0.63307  0.25166  0.24700  1.0000 -0.1120117929
C   C45       1.0  0.65689  0.27441  0.17747  1.0000 -0.1496782154
C   C46       1.0  0.54679  0.27967  0.38771  1.0000 0.4987050854
C   C47       1.0  0.50490  0.67811  0.16650  1.0000 0.490578667
C   C48       1.0  0.42997  0.70505  0.19151  1.0000 -0.0401572748
C   C49       1.0  0.36499  0.75522  0.25718  1.0000 -0.1199821745
C   C50       1.0  0.29557  0.77732  0.28172  1.0000 -0.1496782154
C   C51       1.0  0.28781  0.75151  0.24074  1.0000 0.0801371954
C   C52       1.0  0.35338  0.70267  0.17378  1.0000 -0.1388017303
C   C53       1.0  0.42276  0.67929  0.15038  1.0000 -0.1120117929
C   C54       1.0  0.21281  0.77467  0.26728  1.0000 0.0717702986
C   C55       1.0  0.14562  0.84008  0.31809  1.0000 -0.1496782154
C   C56       1.0  0.07673  0.86148  0.34171  1.0000 -0.1293709149
C   C57       1.0  0.07180  0.81918  0.31487  1.0000 -0.0496416561
C   C58       1.0  0.13810  0.75417  0.26471  1.0000 -0.1199821745
C   C59       1.0  0.20694  0.73189  0.24189  1.0000 -0.1388017303
C   C60       1.0  0.99860  0.84249  0.33807  1.0000 0.4611294574
C   C61       1.0  0.43711  0.89350  0.22929  1.0000 -0.229092997
C   C62       1.0  0.54778  0.88431  0.13771  1.0000 -0.2198045878
C   C63       1.0  0.51179  0.68008  0.94062  1.0000 -0.2006572777
C   C64       1.0  0.50084  0.76799  0.99134  1.0000 -0.2135530704
C   C65       1.0  0.44821  0.87828  0.45401  1.0000 0.480370982
C   C66       1.0  0.42434  0.95191  0.42829  1.0000 -0.0401572748
C   C67       1.0  0.45374  0.95750  0.35329  1.0000 -0.1388017303
C   C68       1.0  0.43163  0.02645  0.32950  1.0000 -0.1702834727
C   C69       1.0  0.37980  0.09292  0.37955  1.0000 0.0717702986
C   C70       1.0  0.35081  0.08651  0.45474  1.0000 -0.1388017303
C   C71       1.0  0.37229  0.01772  0.47845  1.0000 -0.0992353031
C   C72       1.0  0.35555  0.16788  0.35407  1.0000 0.0717702986
C   C73       1.0  0.28657  0.23365  0.40191  1.0000 -0.1388017303
C   C74       1.0  0.26377  0.30310  0.37958  1.0000 -0.0939569787
C   C75       1.0  0.30813  0.31005  0.30744  1.0000 -0.0304146105
C   C76       1.0  0.37639  0.24472  0.25864  1.0000 -0.1199821745
C   C77       1.0  0.39994  0.17525  0.28156  1.0000 -0.1496782154
C   C78       1.0  0.28283  0.38471  0.28367  1.0000 0.4987050854
C   C79       1.0  0.15200  0.16413  0.67562  1.0000 0.480370982
C   C80       1.0  0.17490  0.18940  0.70248  1.0000 -0.0401572748
C   C81       1.0  0.12375  0.25442  0.75364  1.0000 -0.1199821745
C   C82       1.0  0.14619  0.27894  0.77629  1.0000 -0.1496782154
C   C83       1.0  0.22080  0.23842  0.75021  1.0000 0.0717702986
C   C84       1.0  0.27128  0.17197  0.70047  1.0000 -0.1496782154
C   C85       1.0  0.24894  0.14871  0.67658  1.0000 -0.1199821745
C   C86       1.0  0.24592  0.26469  0.77407  1.0000 0.0717702986
C   C87       1.0  0.19628  0.31741  0.83826  1.0000 -0.1573506736
C   C88       1.0  0.22004  0.34084  0.86007  1.0000 -0.1293709149
C   C89       1.0  0.29457  0.31187  0.81953  1.0000 -0.0562853137
C   C90       1.0  0.34407  0.25957  0.75606  1.0000 -0.1199821745
C   C91       1.0  0.32052  0.23706  0.73320  1.0000 -0.1388017303
C   C92       1.0  0.32124  0.33512  0.84277  1.0000 0.4510379241
C   C93       1.0  0.90468  0.31479  0.85035  1.0000 -0.229092997
C   C94       1.0  0.88831  0.23007  0.93107  1.0000 -0.2198045878
C   C95       1.0  0.35329  0.94240  0.69395  1.0000 -0.2198045878
C   C96       1.0  0.22248  0.00407  0.77920  1.0000 -0.229092997
C   C97       1.0  0.87523  0.45017  0.72193  1.0000 0.480370982
C   C98       1.0  0.94895  0.42633  0.69757  1.0000 -0.0401572748
C   C99       1.0  0.95467  0.45531  0.73779  1.0000 -0.1388017303
C   C100      1.0  0.02360  0.43353  0.71442  1.0000 -0.1702834727
C   C101      1.0  0.08994  0.38239  0.64919  1.0000 0.0717702986
C   C102      1.0  0.08338  0.35390  0.60912  1.0000 -0.1388017303
C   C103      1.0  0.01459  0.37510  0.63304  1.0000 -0.0992353031
C   C104      1.0  0.16495  0.35820  0.62379  1.0000 0.0717702986
C   C105      1.0  0.23083  0.28960  0.57837  1.0000 -0.1388017303
C   C106      1.0  0.30030  0.26669  0.55419  1.0000 -0.0939569787
C   C107      1.0  0.30714  0.31054  0.57594  1.0000 -0.0304146105
C   C108      1.0  0.24172  0.37847  0.62244  1.0000 -0.1120117929
C   C109      1.0  0.17226  0.40214  0.64528  1.0000 -0.1496782154
C   C110      1.0  0.38170  0.28511  0.55088  1.0000 0.4987050854
C   C111      1.0  0.15909  0.15807  0.50814  1.0000 0.480370982
C   C112      1.0  0.18458  0.18123  0.43319  1.0000 -0.0401572748
C   C113      1.0  0.24998  0.13025  0.36816  1.0000 -0.1293709149
C   C114      1.0  0.27444  0.15280  0.29860  1.0000 -0.1496782154
C   C115      1.0  0.23359  0.22734  0.29064  1.0000 0.0717702986
C   C116      1.0  0.16701  0.27772  0.35634  1.0000 -0.1496782154
C   C117      1.0  0.14370  0.25528  0.42579  1.0000 -0.1199821745
C   C118      1.0  0.25965  0.25244  0.21536  1.0000 0.0717702986
C   C119      1.0  0.31155  0.20283  0.14826  1.0000 -0.1496782154
C   C120      1.0  0.33482  0.22646  0.07918  1.0000 -0.1293709149
C   C121      1.0  0.30655  0.30082  0.07394  1.0000 -0.0562853137
C   C122      1.0  0.25488  0.35040  0.14009  1.0000 -0.1199821745
C   C123      1.0  0.23253  0.32690  0.20909  1.0000 -0.1388017303
C   C124      1.0  0.32987  0.32718  0.00060  1.0000 0.4510379241
C   C125      1.0  0.31343  0.91198  0.42242  1.0000 -0.229092997
C   C126      1.0  0.21656  0.91384  0.44739  1.0000 -0.2198045878
C   C127      1.0  0.93681  0.36001  0.51158  1.0000 -0.2198045878
C   C128      1.0  0.99922  0.22914  0.49377  1.0000 -0.229092997
C   C129      1.0  0.54443  0.28205  0.55198  1.0000 0.480370982
C   C130      1.0  0.56990  0.30666  0.57562  1.0000 -0.0304146105
C   C131      1.0  0.64474  0.26625  0.54705  1.0000 -0.1293709149
C   C132      1.0  0.66842  0.28986  0.56870  1.0000 -0.1702834727
C   C133      1.0  0.61837  0.35541  0.61939  1.0000 0.0717702986
C   C134      1.0  0.54336  0.39562  0.64750  1.0000 -0.1388017303
C   C135      1.0  0.51977  0.37155  0.62636  1.0000 -0.0992353031
C   C136      1.0  0.64370  0.38096  0.64349  1.0000 0.0717702986
C   C137      1.0  0.59559  0.42635  0.71209  1.0000 -0.1388017303
C   C138      1.0  0.61797  0.45060  0.73490  1.0000 -0.0939569787
C   C139      1.0  0.69034  0.42910  0.69085  1.0000 -0.0304146105
C   C140      1.0  0.73928  0.38275  0.62285  1.0000 -0.1120117929
C   C141      1.0  0.71637  0.35972  0.59935  1.0000 -0.1496782154
C   C142      1.0  0.71446  0.45392  0.71642  1.0000 0.4987050854
C   C143      1.0  0.32175  0.49484  0.84490  1.0000 0.480370982
C   C144      1.0  0.29537  0.56981  0.82193  1.0000 -0.0401572748
C   C145      1.0  0.24520  0.63462  0.87300  1.0000 -0.1199821745
C   C146      1.0  0.22267  0.70424  0.85058  1.0000 -0.1496782154
C   C147      1.0  0.24811  0.71234  0.77616  1.0000 0.0801371954
C   C148      1.0  0.29724  0.64688  0.72567  1.0000 -0.1388017303
C   C149      1.0  0.32088  0.57738  0.74795  1.0000 -0.1293709149
C   C150      1.0  0.22407  0.78757  0.75125  1.0000 0.0717702986
C   C151      1.0  0.15834  0.85454  0.80052  1.0000 -0.1496782154
C   C152      1.0  0.13616  0.92361  0.77684  1.0000 -0.1199821745
C   C153      1.0  0.17805  0.92885  0.70275  1.0000 -0.0496416561
C   C154      1.0  0.24320  0.86276  0.65366  1.0000 -0.1199821745
C   C155      1.0  0.26623  0.79382  0.67721  1.0000 -0.1388017303
C   C156      1.0  0.15444  0.00205  0.67608  1.0000 0.4611294574
C   C157      1.0  0.11081  0.56913  0.06099  1.0000 -0.229092997
C   C158      1.0  0.11160  0.46475  0.06659  1.0000 -0.2198045878
C   C159      1.0  0.30301  0.49129  0.64505  1.0000 -0.2198045878
C   C160      1.0  0.21814  0.50891  0.77626  1.0000 -0.229092997
C   C161      1.0  0.27868  0.54882  0.12443  1.0000 0.480370982
C   C162      1.0  0.30310  0.57447  0.05081  1.0000 -0.0304146105
C   C163      1.0  0.26598  0.64973  0.04550  1.0000 -0.1293709149
C   C164      1.0  0.28898  0.67347  0.97655  1.0000 -0.1702834727
C   C165      1.0  0.35095  0.62297  0.90968  1.0000 0.0717702986
C   C166      1.0  0.38819  0.54747  0.91588  1.0000 -0.1388017303
C   C167      1.0  0.36453  0.52392  0.98474  1.0000 -0.0992353031
C   C168      1.0  0.37611  0.64832  0.83460  1.0000 0.0717702986
C   C169      1.0  0.41857  0.60119  0.76919  1.0000 -0.1388017303
C   C170      1.0  0.44291  0.62335  0.69966  1.0000 -0.0939569787
C   C171      1.0  0.42409  0.69472  0.69231  1.0000 -0.0304146105
C   C172      1.0  0.38036  0.74289  0.75724  1.0000 -0.1120117929
C   C173      1.0  0.35757  0.72003  0.82672  1.0000 -0.1496782154
C   C174      1.0  0.44937  0.71851  0.61770  1.0000 0.4987050854
C   C175      1.0  0.48940  0.32756  0.83748  1.0000 0.480370982
C   C176      1.0  0.56458  0.30071  0.81176  1.0000 -0.0401572748
C   C177      1.0  0.62944  0.24943  0.74669  1.0000 -0.1199821745
C   C178      1.0  0.69929  0.22623  0.72200  1.0000 -0.1496782154
C   C179      1.0  0.70757  0.25224  0.76217  1.0000 0.0801371954
C   C180      1.0  0.64211  0.30235  0.82846  1.0000 -0.1388017303
C   C181      1.0  0.57240  0.32651  0.85211  1.0000 -0.1293709149
C   C182      1.0  0.78291  0.22806  0.73564  1.0000 0.0717702986
C   C183      1.0  0.84982  0.16151  0.68640  1.0000 -0.1573506736
C   C184      1.0  0.91892  0.13945  0.66312  1.0000 -0.1199821745
C   C185      1.0  0.92415  0.18240  0.68870  1.0000 -0.0496416561
C   C186      1.0  0.85812  0.24848  0.73714  1.0000 -0.1199821745
C   C187      1.0  0.78925  0.27123  0.75967  1.0000 -0.1388017303
C   C188      1.0  0.99716  0.15914  0.66612  1.0000 0.469352097
C   C189      1.0  0.56272  0.13812  0.71865  1.0000 -0.229092997
C   C190      1.0  0.50183  0.09741  0.82792  1.0000 -0.2198045878
C   C191      1.0  0.48769  0.30646  0.05883  1.0000 -0.2198045878
C   C192      1.0  0.50413  0.22231  0.99538  1.0000 -0.229092997
C   C193      1.0  0.54423  0.12148  0.55212  1.0000 0.490578667
C   C194      1.0  0.56788  0.04796  0.57789  1.0000 -0.0304146105
C   C195      1.0  0.53444  0.04275  0.65318  1.0000 -0.1293709149
C   C196      1.0  0.55673  0.97381  0.67690  1.0000 -0.1702834727
C   C197      1.0  0.61300  0.90688  0.62635  1.0000 0.0717702986
C   C198      1.0  0.64587  0.91297  0.55081  1.0000 -0.1388017303
C   C199      1.0  0.62399  0.98185  0.52731  1.0000 -0.0939569787
C   C200      1.0  0.63752  0.83189  0.65177  1.0000 0.0717702986
C   C201      1.0  0.70799  0.76657  0.60505  1.0000 -0.1388017303
C   C202      1.0  0.73094  0.69716  0.62743  1.0000 -0.0992353031
C   C203      1.0  0.68515  0.68982  0.69846  1.0000 -0.0223056724
C   C204      1.0  0.61534  0.75464  0.74616  1.0000 -0.0992353031
C   C205      1.0  0.59169  0.82402  0.72315  1.0000 -0.1496782154
C   C206      1.0  0.71052  0.61525  0.72223  1.0000 0.507060737
C   C207      1.0  0.84223  0.83837  0.33108  1.0000 0.480370982
C   C208      1.0  0.81903  0.81290  0.30489  1.0000 -0.0401572748
C   C209      1.0  0.87009  0.74804  0.25357  1.0000 -0.1293709149
C   C210      1.0  0.84754  0.72371  0.23091  1.0000 -0.1496782154
C   C211      1.0  0.77286  0.76422  0.25721  1.0000 0.0717702986
C   C212      1.0  0.72243  0.83036  0.30736  1.0000 -0.1496782154
C   C213      1.0  0.74490  0.85341  0.33126  1.0000 -0.1199821745
C   C214      1.0  0.74767  0.73829  0.23305  1.0000 0.0717702986
C   C215      1.0  0.79755  0.68493  0.16929  1.0000 -0.1573506736
C   C216      1.0  0.77390  0.66168  0.14717  1.0000 -0.1388017303
C   C217      1.0  0.69925  0.69149  0.18689  1.0000 -0.0562853137
C   C218      1.0  0.64941  0.74465  0.24974  1.0000 -0.1199821745
C   C219      1.0  0.67285  0.76688  0.27304  1.0000 -0.1388017303
C   C220      1.0  0.67283  0.66832  0.16327  1.0000 0.4510379241
C   C221      1.0  0.08114  0.69641  0.15547  1.0000 -0.229092997
C   C222      1.0  0.08465  0.78431  0.07368  1.0000 -0.229092997
C   C223      1.0  0.71244  0.03044  0.28610  1.0000 -0.229092997
C   C224      1.0  0.83378  0.94488  0.17953  1.0000 -0.229092997
C   C225      1.0  0.11843  0.54941  0.28393  1.0000 0.480370982
C   C226      1.0  0.04469  0.57352  0.30812  1.0000 -0.0401572748
C   C227      1.0  0.03887  0.54503  0.26761  1.0000 -0.1388017303
C   C228      1.0  0.96990  0.56707  0.29087  1.0000 -0.1702834727
C   C229      1.0  0.90360  0.61794  0.35631  1.0000 0.0717702986
C   C230      1.0  0.91025  0.64609  0.39656  1.0000 -0.1388017303
C   C231      1.0  0.97908  0.62472  0.37270  1.0000 -0.0992353031
C   C232      1.0  0.82860  0.64208  0.38172  1.0000 0.0717702986
C   C233      1.0  0.76248  0.71009  0.42824  1.0000 -0.1388017303
C   C234      1.0  0.69314  0.73286  0.45218  1.0000 -0.0939569787
C   C235      1.0  0.68659  0.68938  0.42940  1.0000 -0.0304146105
C   C236      1.0  0.75218  0.62203  0.38201  1.0000 -0.1120117929
C   C237      1.0  0.82154  0.59855  0.35920  1.0000 -0.1496782154
C   C238      1.0  0.61211  0.71456  0.45455  1.0000 0.4987050854
C   C239      1.0  0.83578  0.84510  0.49740  1.0000 0.480370982
C   C240      1.0  0.80980  0.82186  0.57217  1.0000 -0.0401572748
C   C241      1.0  0.74408  0.87274  0.63714  1.0000 -0.1199821745
C   C242      1.0  0.71945  0.84994  0.70653  1.0000 -0.1496782154
C   C243      1.0  0.76038  0.77532  0.71423  1.0000 0.0801371954
C   C244      1.0  0.82694  0.72500  0.64860  1.0000 -0.1388017303
C   C245      1.0  0.85044  0.74766  0.57933  1.0000 -0.1293709149
C   C246      1.0  0.73453  0.75010  0.78929  1.0000 0.0801371954
C   C247      1.0  0.68480  0.79920  0.85611  1.0000 -0.1496782154
C   C248      1.0  0.66190  0.77553  0.92509  1.0000 -0.1199821745
C   C249      1.0  0.68838  0.70159  0.93047  1.0000 -0.0401572748
C   C250      1.0  0.73774  0.65249  0.86454  1.0000 -0.0992353031
C   C251      1.0  0.75983  0.67610  0.79558  1.0000 -0.1293709149
C   C252      1.0  0.66531  0.67549  0.00389  1.0000 0.469352097
C   C253      1.0  0.75167  0.06439  0.57514  1.0000 -0.229092997
C   C254      1.0  0.85223  0.06565  0.46969  1.0000 -0.2198045878
C   C255      1.0  0.05585  0.64344  0.49436  1.0000 -0.2198045878
C   C256      1.0  0.99475  0.77410  0.51099  1.0000 -0.229092997
N   N1        1.0  0.88816  0.47636  0.97478  1.0000 -0.1772153222
N   N2        1.0  0.70252  0.54432  0.29310  1.0000 -0.1902344643
N   N3        1.0  0.48420  0.89582  0.15220  1.0000 -0.1772153222
N   N4        1.0  0.55004  0.69297  0.95266  1.0000 -0.3090184325
N   N5        1.0  0.93768  0.25082  0.88165  1.0000 -0.1702834727
N   N6        1.0  0.28809  0.95977  0.70635  1.0000 -0.1902344643
N   N7        1.0  0.25186  0.95044  0.41615  1.0000 -0.1702834727
N   N8        1.0  0.95523  0.29412  0.54593  1.0000 -0.1902344643
N   N9        1.0  0.10594  0.52760  0.02967  1.0000 -0.1772153222
N   N10       1.0  0.29096  0.45690  0.71087  1.0000 -0.1902344643
N   N11       1.0  0.54731  0.12320  0.79179  1.0000 -0.1702834727
N   N12       1.0  0.45235  0.29461  0.04079  1.0000 -0.1902344643
N   N13       1.0  0.04179  0.75733  0.12637  1.0000 -0.1772153222
N   N14       1.0  0.76918  0.02200  0.20925  1.0000 -0.1772153222
N   N15       1.0  0.83027  0.02978  0.53297  1.0000 -0.1772153222
N   N16       1.0  0.03911  0.70875  0.45907  1.0000 -0.1902344643
O   O1        1.0  0.40711  0.76944  0.50586  1.0000 -0.4507723923
O   O2        1.0  0.51462  0.68948  0.42610  1.0000 -0.4507723923
O   O3        1.0  0.32097  0.49933  0.23398  1.0000 -0.4595187859
O   O4        1.0  0.21327  0.57232  0.31864  1.0000 -0.4707010318
O   O5        1.0  0.69860  0.52051  0.09552  1.0000 -0.4416026467
O   O6        1.0  0.62065  0.56936  0.20394  1.0000 -0.4507723923
O   O7        1.0  0.80910  0.99300  0.39568  1.0000 -0.4507723923
O   O8        1.0  0.89427  0.93866  0.28896  1.0000 -0.4707010318
O   O9        1.0  0.76152  0.41023  0.81982  1.0000 -0.4507723923
O   O10       1.0  0.69197  0.51628  0.87226  1.0000 -0.4329607282
O   O11       1.0  0.49359  0.32291  0.44811  1.0000 -0.4595187859
O   O12       1.0  0.57470  0.21446  0.39899  1.0000 -0.4507723923
O   O13       1.0  0.51692  0.70196  0.19559  1.0000 -0.4416026467
O   O14       1.0  0.56488  0.62798  0.11301  1.0000 -0.4416026467
O   O15       1.0  0.99082  0.81217  0.30987  1.0000 -0.4416026467
O   O16       1.0  0.93655  0.89528  0.38788  1.0000 -0.4707010318
O   O17       1.0  0.49909  0.81690  0.41251  1.0000 -0.4507723923
O   O18       1.0  0.42071  0.86913  0.51998  1.0000 -0.4507723923
O   O19       1.0  0.22878  0.44538  0.32638  1.0000 -0.4595187859
O   O20       1.0  0.31207  0.39563  0.21853  1.0000 -0.4707010318
O   O21       1.0  0.08700  0.19358  0.69925  1.0000 -0.4507723923
O   O22       1.0  0.19559  0.10998  0.62612  1.0000 -0.4507723923
O   O23       1.0  0.38755  0.30683  0.81243  1.0000 -0.4416026467
O   O24       1.0  0.28074  0.38514  0.89531  1.0000 -0.4707010318
O   O25       1.0  0.81404  0.50113  0.77396  1.0000 -0.4507723923
O   O26       1.0  0.86574  0.42287  0.69284  1.0000 -0.4507723923
O   O27       1.0  0.44259  0.23185  0.50069  1.0000 -0.4595187859
O   O28       1.0  0.39220  0.31358  0.57732  1.0000 -0.4707010318
O   O29       1.0  0.18901  0.09304  0.51984  1.0000 -0.4416026467
O   O30       1.0  0.10428  0.20134  0.56829  1.0000 -0.4507723923
O   O31       1.0  0.30222  0.39341  0.99272  1.0000 -0.4507723923
O   O32       1.0  0.37921  0.28649  0.93862  1.0000 -0.4707010318
O   O33       1.0  0.58615  0.22875  0.50245  1.0000 -0.4507723923
O   O34       1.0  0.47863  0.31195  0.57829  1.0000 -0.4507723923
O   O35       1.0  0.67195  0.50291  0.77081  1.0000 -0.4507723923
O   O36       1.0  0.77987  0.42804  0.68734  1.0000 -0.4707010318
O   O37       1.0  0.29750  0.48306  0.90996  1.0000 -0.4416026467
O   O38       1.0  0.37148  0.43474  0.80137  1.0000 -0.4507723923
O   O39       1.0  0.18497  0.00963  0.60971  1.0000 -0.4507723923
O   O40       1.0  0.10143  0.06417  0.71660  1.0000 -0.4707010318
O   O41       1.0  0.22720  0.59037  0.18584  1.0000 -0.4507723923
O   O42       1.0  0.30707  0.48284  0.13349  1.0000 -0.4507723923
O   O43       1.0  0.49867  0.67582  0.55699  1.0000 -0.4595187859
O   O44       1.0  0.42391  0.78376  0.60696  1.0000 -0.4707010318
O   O45       1.0  0.47727  0.30448  0.80782  1.0000 -0.4507723923
O   O46       1.0  0.42945  0.37635  0.89225  1.0000 -0.4507723923
O   O47       1.0  0.00427  0.19017  0.69447  1.0000 -0.4507723923
O   O48       1.0  0.05951  0.10604  0.61680  1.0000 -0.4707010318
O   O49       1.0  0.49458  0.18283  0.59356  1.0000 -0.4595187859
O   O50       1.0  0.57096  0.13049  0.48612  1.0000 -0.4329607282
O   O51       1.0  0.76700  0.55477  0.67992  1.0000 -0.4595187859
O   O52       1.0  0.67885  0.60429  0.78695  1.0000 -0.4329607282
O   O53       1.0  0.90726  0.80843  0.30767  1.0000 -0.4507723923
O   O54       1.0  0.79901  0.89334  0.37946  1.0000 -0.4416026467
O   O55       1.0  0.60660  0.69613  0.19383  1.0000 -0.4416026467
O   O56       1.0  0.71345  0.61900  0.11004  1.0000 -0.4707010318
O   O57       1.0  0.17970  0.49842  0.23192  1.0000 -0.4507723923
O   O58       1.0  0.12778  0.57677  0.31311  1.0000 -0.4507723923
O   O59       1.0  0.55127  0.76839  0.50402  1.0000 -0.4595187859
O   O60       1.0  0.60158  0.68531  0.42903  1.0000 -0.4707010318
O   O61       1.0  0.80735  0.91025  0.48580  1.0000 -0.4416026467
O   O62       1.0  0.88948  0.80160  0.43725  1.0000 -0.4507723923
O   O63       1.0  0.69134  0.60956  0.01231  1.0000 -0.4416026467
O   O64       1.0  0.61757  0.71634  0.06555  1.0000 -0.4707010318
