# DDEC6 charges by PACMAN v1.1 (https://github.com/mtap-research/PACMAN-charge/)
data_2012[HoCo][nan]3[ION]1
_chemical_formula_sum              "Ho24 Co16 H376 C576 N96 Cl8 O264"
_cell_length_a       18.6061
_cell_length_b       18.6939
_cell_length_c       48.617
_cell_angle_alpha    90
_cell_angle_beta     90
_cell_angle_gamma    90

_symmetry_space_group_name_H-M    "P 1"
_symmetry_Int_Tables_number       1

loop_
  _symmetry_equiv_pos_as_xyz
  'x, y, z'

loop_
  _atom_site_type_symbol
  _atom_site_label
  _atom_site_symmetry_multiplicity
  _atom_site_fract_x
  _atom_site_fract_y
  _atom_site_fract_z
  _atom_site_occupancy
  _atom_site_charge
Ho  Ho1       1.0  0.79970  0.42592  0.12156  1.0000 2.1285033329
Ho  Ho2       1.0  0.29970  0.57408  0.37844  1.0000 2.1285033329
Ho  Ho3       1.0  0.20030  0.07408  0.62156  1.0000 2.1285033329
Ho  Ho4       1.0  0.70030  0.92592  0.87844  1.0000 2.1285033329
Ho  Ho5       1.0  0.20030  0.57408  0.87844  1.0000 2.1285033329
Ho  Ho6       1.0  0.70030  0.42592  0.62156  1.0000 2.1285033329
Ho  Ho7       1.0  0.79970  0.92592  0.37844  1.0000 2.1285033329
Ho  Ho8       1.0  0.29970  0.07408  0.12156  1.0000 2.1285033329
Ho  Ho9       1.0  0.63646  0.59639  0.12222  1.0000 2.1285033329
Ho  Ho10      1.0  0.13646  0.40361  0.37778  1.0000 2.1285033329
Ho  Ho11      1.0  0.36354  0.90361  0.62222  1.0000 2.1285033329
Ho  Ho12      1.0  0.86354  0.09639  0.87778  1.0000 2.1285033329
Ho  Ho13      1.0  0.36354  0.40361  0.87778  1.0000 2.1285033329
Ho  Ho14      1.0  0.86354  0.59639  0.62222  1.0000 2.1285033329
Ho  Ho15      1.0  0.63646  0.09639  0.37778  1.0000 2.1285033329
Ho  Ho16      1.0  0.13646  0.90361  0.12222  1.0000 2.1285033329
Ho  Ho17      1.0  0.81187  0.48552  0.87549  1.0000 1.9830982937
Ho  Ho18      1.0  0.31187  0.51448  0.62451  1.0000 1.9830982937
Ho  Ho19      1.0  0.18813  0.01448  0.37549  1.0000 1.9830982937
Ho  Ho20      1.0  0.68813  0.98552  0.12451  1.0000 1.9830982937
Ho  Ho21      1.0  0.18813  0.51448  0.12451  1.0000 1.9830982937
Ho  Ho22      1.0  0.68813  0.48552  0.37549  1.0000 1.9830982937
Ho  Ho23      1.0  0.81187  0.98552  0.62451  1.0000 1.9830982937
Ho  Ho24      1.0  0.31187  0.01448  0.87549  1.0000 1.9830982937
Co  Co1       1.0  0.95861  0.11701  0.24565  1.0000 0.5506360037
Co  Co2       1.0  0.45861  0.88299  0.25435  1.0000 0.5506360037
Co  Co3       1.0  0.04139  0.38299  0.74565  1.0000 0.5506360037
Co  Co4       1.0  0.54139  0.61701  0.75435  1.0000 0.5506360037
Co  Co5       1.0  0.04139  0.88299  0.75435  1.0000 0.5506360037
Co  Co6       1.0  0.54139  0.11701  0.74565  1.0000 0.5506360037
Co  Co7       1.0  0.95861  0.61701  0.25435  1.0000 0.5506360037
Co  Co8       1.0  0.45861  0.38299  0.24565  1.0000 0.5506360037
Co  Co9       1.0  0.89299  0.74716  0.99809  1.0000 0.4474821454
Co  Co10      1.0  0.39299  0.25284  0.50191  1.0000 0.4474821454
Co  Co11      1.0  0.10701  0.75284  0.49809  1.0000 0.4474821454
Co  Co12      1.0  0.60701  0.24716  0.00191  1.0000 0.4474821454
Co  Co13      1.0  0.10701  0.25284  0.00191  1.0000 0.4474821454
Co  Co14      1.0  0.60701  0.74716  0.49809  1.0000 0.4474821454
Co  Co15      1.0  0.89299  0.24716  0.50191  1.0000 0.4474821454
Co  Co16      1.0  0.39299  0.75284  0.99809  1.0000 0.4474821454
H   H1        1.0  0.94710  0.20580  0.19050  1.0000 0.1073105314
H   H2        1.0  0.44710  0.79420  0.30950  1.0000 0.1073105314
H   H3        1.0  0.05290  0.29420  0.69050  1.0000 0.1073105314
H   H4        1.0  0.55290  0.70580  0.80950  1.0000 0.1073105314
H   H5        1.0  0.05290  0.79420  0.80950  1.0000 0.1073105314
H   H6        1.0  0.55290  0.20580  0.69050  1.0000 0.1073105314
H   H7        1.0  0.94710  0.70580  0.30950  1.0000 0.1073105314
H   H8        1.0  0.44710  0.29420  0.19050  1.0000 0.1073105314
H   H9        1.0  0.80890  0.36510  0.20310  1.0000 0.1296021832
H   H10       1.0  0.30890  0.63490  0.29690  1.0000 0.1296021832
H   H11       1.0  0.19110  0.13490  0.70310  1.0000 0.1296021832
H   H12       1.0  0.69110  0.86510  0.79690  1.0000 0.1296021832
H   H13       1.0  0.19110  0.63490  0.79690  1.0000 0.1296021832
H   H14       1.0  0.69110  0.36510  0.70310  1.0000 0.1296021832
H   H15       1.0  0.80890  0.86510  0.29690  1.0000 0.1296021832
H   H16       1.0  0.30890  0.13490  0.20310  1.0000 0.1296021832
H   H17       1.0  0.78520  0.31730  0.24620  1.0000 0.1296021832
H   H18       1.0  0.28520  0.68270  0.25380  1.0000 0.1296021832
H   H19       1.0  0.21480  0.18270  0.74620  1.0000 0.1296021832
H   H20       1.0  0.71480  0.81730  0.75380  1.0000 0.1296021832
H   H21       1.0  0.21480  0.68270  0.75380  1.0000 0.1296021832
H   H22       1.0  0.71480  0.31730  0.74620  1.0000 0.1296021832
H   H23       1.0  0.78520  0.81730  0.25380  1.0000 0.1296021832
H   H24       1.0  0.28520  0.18270  0.24620  1.0000 0.1296021832
H   H25       1.0  0.76990  0.26840  0.28560  1.0000 0.1296021832
H   H26       1.0  0.26990  0.73160  0.21440  1.0000 0.1296021832
H   H27       1.0  0.23010  0.23160  0.78560  1.0000 0.1296021832
H   H28       1.0  0.73010  0.76840  0.71440  1.0000 0.1296021832
H   H29       1.0  0.23010  0.73160  0.71440  1.0000 0.1296021832
H   H30       1.0  0.73010  0.26840  0.78560  1.0000 0.1296021832
H   H31       1.0  0.76990  0.76840  0.21440  1.0000 0.1296021832
H   H32       1.0  0.26990  0.23160  0.28560  1.0000 0.1296021832
H   H33       1.0  0.74640  0.20460  0.32500  1.0000 0.1296021832
H   H34       1.0  0.24640  0.79540  0.17500  1.0000 0.1296021832
H   H35       1.0  0.25360  0.29540  0.82500  1.0000 0.1296021832
H   H36       1.0  0.75360  0.70460  0.67500  1.0000 0.1296021832
H   H37       1.0  0.25360  0.79540  0.67500  1.0000 0.1296021832
H   H38       1.0  0.75360  0.20460  0.82500  1.0000 0.1296021832
H   H39       1.0  0.74640  0.70460  0.17500  1.0000 0.1296021832
H   H40       1.0  0.24640  0.29540  0.32500  1.0000 0.1296021832
H   H41       1.0  0.88200  0.05350  0.29900  1.0000 0.1185826232
H   H42       1.0  0.38200  0.94650  0.20100  1.0000 0.1185826232
H   H43       1.0  0.11800  0.44650  0.79900  1.0000 0.1185826232
H   H44       1.0  0.61800  0.55350  0.70100  1.0000 0.1185826232
H   H45       1.0  0.11800  0.94650  0.70100  1.0000 0.1185826232
H   H46       1.0  0.61800  0.05350  0.79900  1.0000 0.1185826232
H   H47       1.0  0.88200  0.55350  0.20100  1.0000 0.1185826232
H   H48       1.0  0.38200  0.44650  0.29900  1.0000 0.1185826232
H   H49       1.0  0.53480  0.45400  0.19410  1.0000 0.1185826232
H   H50       1.0  0.03480  0.54600  0.30590  1.0000 0.1185826232
H   H51       1.0  0.46520  0.04600  0.69410  1.0000 0.1185826232
H   H52       1.0  0.96520  0.95400  0.80590  1.0000 0.1185826232
H   H53       1.0  0.46520  0.54600  0.80590  1.0000 0.1185826232
H   H54       1.0  0.96520  0.45400  0.69410  1.0000 0.1185826232
H   H55       1.0  0.53480  0.95400  0.30590  1.0000 0.1185826232
H   H56       1.0  0.03480  0.04600  0.19410  1.0000 0.1185826232
H   H57       1.0  0.68800  0.32000  0.16990  1.0000 0.1296021832
H   H58       1.0  0.18800  0.68000  0.33010  1.0000 0.1296021832
H   H59       1.0  0.31200  0.18000  0.66990  1.0000 0.1296021832
H   H60       1.0  0.81200  0.82000  0.83010  1.0000 0.1296021832
H   H61       1.0  0.31200  0.68000  0.83010  1.0000 0.1296021832
H   H62       1.0  0.81200  0.32000  0.66990  1.0000 0.1296021832
H   H63       1.0  0.68800  0.82000  0.33010  1.0000 0.1296021832
H   H64       1.0  0.18800  0.18000  0.16990  1.0000 0.1296021832
H   H65       1.0  0.66330  0.24990  0.20710  1.0000 0.1296021832
H   H66       1.0  0.16330  0.75010  0.29290  1.0000 0.1296021832
H   H67       1.0  0.33670  0.25010  0.70710  1.0000 0.1296021832
H   H68       1.0  0.83670  0.74990  0.79290  1.0000 0.1296021832
H   H69       1.0  0.33670  0.75010  0.79290  1.0000 0.1296021832
H   H70       1.0  0.83670  0.24990  0.70710  1.0000 0.1296021832
H   H71       1.0  0.66330  0.74990  0.29290  1.0000 0.1296021832
H   H72       1.0  0.16330  0.25010  0.20710  1.0000 0.1296021832
H   H73       1.0  0.64920  0.19810  0.24640  1.0000 0.1296021832
H   H74       1.0  0.14920  0.80190  0.25360  1.0000 0.1296021832
H   H75       1.0  0.35080  0.30190  0.74640  1.0000 0.1296021832
H   H76       1.0  0.85080  0.69810  0.75360  1.0000 0.1296021832
H   H77       1.0  0.35080  0.80190  0.75360  1.0000 0.1296021832
H   H78       1.0  0.85080  0.19810  0.74640  1.0000 0.1296021832
H   H79       1.0  0.64920  0.69810  0.25360  1.0000 0.1296021832
H   H80       1.0  0.14920  0.30190  0.24640  1.0000 0.1296021832
H   H81       1.0  0.63120  0.14990  0.28990  1.0000 0.1296021832
H   H82       1.0  0.13120  0.85010  0.21010  1.0000 0.1296021832
H   H83       1.0  0.36880  0.35010  0.78990  1.0000 0.1296021832
H   H84       1.0  0.86880  0.64990  0.71010  1.0000 0.1296021832
H   H85       1.0  0.36880  0.85010  0.71010  1.0000 0.1296021832
H   H86       1.0  0.86880  0.14990  0.78990  1.0000 0.1296021832
H   H87       1.0  0.63120  0.64990  0.21010  1.0000 0.1296021832
H   H88       1.0  0.13120  0.35010  0.28990  1.0000 0.1296021832
H   H89       1.0  0.47880  0.29660  0.30210  1.0000 0.1073105314
H   H90       1.0  0.97880  0.70340  0.19790  1.0000 0.1073105314
H   H91       1.0  0.52120  0.20340  0.80210  1.0000 0.1073105314
H   H92       1.0  0.02120  0.79660  0.69790  1.0000 0.1073105314
H   H93       1.0  0.52120  0.70340  0.69790  1.0000 0.1073105314
H   H94       1.0  0.02120  0.29660  0.80210  1.0000 0.1073105314
H   H95       1.0  0.47880  0.79660  0.19790  1.0000 0.1073105314
H   H96       1.0  0.97880  0.20340  0.30210  1.0000 0.1073105314
H   H97       1.0  0.79660  0.68460  0.04470  1.0000 0.1185826232
H   H98       1.0  0.29660  0.31540  0.45530  1.0000 0.1185826232
H   H99       1.0  0.20340  0.81540  0.54470  1.0000 0.1185826232
H   H100      1.0  0.70340  0.18460  0.95530  1.0000 0.1185826232
H   H101      1.0  0.20340  0.31540  0.95530  1.0000 0.1185826232
H   H102      1.0  0.70340  0.68460  0.54470  1.0000 0.1185826232
H   H103      1.0  0.79660  0.18460  0.45530  1.0000 0.1185826232
H   H104      1.0  0.29660  0.81540  0.04470  1.0000 0.1185826232
H   H105      1.0  0.91230  0.52330  0.07420  1.0000 0.1296021832
H   H106      1.0  0.41230  0.47670  0.42580  1.0000 0.1296021832
H   H107      1.0  0.08770  0.97670  0.57420  1.0000 0.1296021832
H   H108      1.0  0.58770  0.02330  0.92580  1.0000 0.1296021832
H   H109      1.0  0.08770  0.47670  0.92580  1.0000 0.1296021832
H   H110      1.0  0.58770  0.52330  0.57420  1.0000 0.1296021832
H   H111      1.0  0.91230  0.02330  0.42580  1.0000 0.1296021832
H   H112      1.0  0.41230  0.97670  0.07420  1.0000 0.1296021832
H   H113      1.0  0.99370  0.54060  0.03890  1.0000 0.1296021832
H   H114      1.0  0.49370  0.45940  0.46110  1.0000 0.1296021832
H   H115      1.0  0.00630  0.95940  0.53890  1.0000 0.1296021832
H   H116      1.0  0.50630  0.04060  0.96110  1.0000 0.1296021832
H   H117      1.0  0.00630  0.45940  0.96110  1.0000 0.1296021832
H   H118      1.0  0.50630  0.54060  0.53890  1.0000 0.1296021832
H   H119      1.0  0.99370  0.04060  0.46110  1.0000 0.1296021832
H   H120      1.0  0.49370  0.95940  0.03890  1.0000 0.1296021832
H   H121      1.0  0.06160  0.55640  0.00330  1.0000 0.1296021832
H   H122      1.0  0.56160  0.44360  0.49670  1.0000 0.1296021832
H   H123      1.0  0.93840  0.94360  0.50330  1.0000 0.1296021832
H   H124      1.0  0.43840  0.05640  0.99670  1.0000 0.1296021832
H   H125      1.0  0.93840  0.44360  0.99670  1.0000 0.1296021832
H   H126      1.0  0.43840  0.55640  0.50330  1.0000 0.1296021832
H   H127      1.0  0.06160  0.05640  0.49670  1.0000 0.1296021832
H   H128      1.0  0.56160  0.94360  0.00330  1.0000 0.1296021832
H   H129      1.0  0.12570  0.57930  0.96400  1.0000 0.1396027426
H   H130      1.0  0.62570  0.42070  0.53600  1.0000 0.1396027426
H   H131      1.0  0.87430  0.92070  0.46400  1.0000 0.1396027426
H   H132      1.0  0.37430  0.07930  0.03600  1.0000 0.1396027426
H   H133      1.0  0.87430  0.42070  0.03600  1.0000 0.1396027426
H   H134      1.0  0.37430  0.57930  0.46400  1.0000 0.1396027426
H   H135      1.0  0.12570  0.07930  0.53600  1.0000 0.1396027426
H   H136      1.0  0.62570  0.92070  0.96400  1.0000 0.1396027426
H   H137      1.0  0.99420  0.74260  0.94780  1.0000 0.1185826232
H   H138      1.0  0.49420  0.25740  0.55220  1.0000 0.1185826232
H   H139      1.0  0.00580  0.75740  0.44780  1.0000 0.1185826232
H   H140      1.0  0.50580  0.24260  0.05220  1.0000 0.1185826232
H   H141      1.0  0.00580  0.25740  0.05220  1.0000 0.1185826232
H   H142      1.0  0.50580  0.74260  0.44780  1.0000 0.1185826232
H   H143      1.0  0.99420  0.24260  0.55220  1.0000 0.1185826232
H   H144      1.0  0.49420  0.75740  0.94780  1.0000 0.1185826232
H   H145      1.0  0.86500  0.85710  0.04100  1.0000 0.1185826232
H   H146      1.0  0.36500  0.14290  0.45900  1.0000 0.1185826232
H   H147      1.0  0.13500  0.64290  0.54100  1.0000 0.1185826232
H   H148      1.0  0.63500  0.35710  0.95900  1.0000 0.1185826232
H   H149      1.0  0.13500  0.14290  0.95900  1.0000 0.1185826232
H   H150      1.0  0.63500  0.85710  0.54100  1.0000 0.1185826232
H   H151      1.0  0.86500  0.35710  0.45900  1.0000 0.1185826232
H   H152      1.0  0.36500  0.64290  0.04100  1.0000 0.1185826232
H   H153      1.0  0.65390  0.86440  0.04990  1.0000 0.1073105314
H   H154      1.0  0.15390  0.13560  0.45010  1.0000 0.1073105314
H   H155      1.0  0.34610  0.63560  0.54990  1.0000 0.1073105314
H   H156      1.0  0.84610  0.36440  0.95010  1.0000 0.1073105314
H   H157      1.0  0.34610  0.13560  0.95010  1.0000 0.1073105314
H   H158      1.0  0.84610  0.86440  0.54990  1.0000 0.1073105314
H   H159      1.0  0.65390  0.36440  0.45010  1.0000 0.1073105314
H   H160      1.0  0.15390  0.63560  0.04990  1.0000 0.1073105314
H   H161      1.0  0.64130  0.78540  0.01330  1.0000 0.1185826232
H   H162      1.0  0.14130  0.21460  0.48670  1.0000 0.1185826232
H   H163      1.0  0.35870  0.71460  0.51330  1.0000 0.1185826232
H   H164      1.0  0.85870  0.28540  0.98670  1.0000 0.1185826232
H   H165      1.0  0.35870  0.21460  0.98670  1.0000 0.1185826232
H   H166      1.0  0.85870  0.78540  0.51330  1.0000 0.1185826232
H   H167      1.0  0.64130  0.28540  0.48670  1.0000 0.1185826232
H   H168      1.0  0.14130  0.71460  0.01330  1.0000 0.1185826232
H   H169      1.0  0.64580  0.71190  0.97480  1.0000 0.1185826232
H   H170      1.0  0.14580  0.28810  0.52520  1.0000 0.1185826232
H   H171      1.0  0.35420  0.78810  0.47480  1.0000 0.1185826232
H   H172      1.0  0.85420  0.21190  0.02520  1.0000 0.1185826232
H   H173      1.0  0.35420  0.28810  0.02520  1.0000 0.1185826232
H   H174      1.0  0.85420  0.71190  0.47480  1.0000 0.1185826232
H   H175      1.0  0.64580  0.21190  0.52520  1.0000 0.1185826232
H   H176      1.0  0.14580  0.78810  0.97480  1.0000 0.1185826232
H   H177      1.0  0.66130  0.64190  0.93540  1.0000 0.1396027426
H   H178      1.0  0.16130  0.35810  0.56460  1.0000 0.1396027426
H   H179      1.0  0.33870  0.85810  0.43540  1.0000 0.1396027426
H   H180      1.0  0.83870  0.14190  0.06460  1.0000 0.1396027426
H   H181      1.0  0.33870  0.35810  0.06460  1.0000 0.1396027426
H   H182      1.0  0.83870  0.64190  0.43540  1.0000 0.1396027426
H   H183      1.0  0.66130  0.14190  0.56460  1.0000 0.1396027426
H   H184      1.0  0.16130  0.85810  0.93540  1.0000 0.1396027426
H   H185      1.0  0.87240  0.66060  0.94580  1.0000 0.1185826232
H   H186      1.0  0.37240  0.33940  0.55420  1.0000 0.1185826232
H   H187      1.0  0.12760  0.83940  0.44580  1.0000 0.1185826232
H   H188      1.0  0.62760  0.16060  0.05420  1.0000 0.1185826232
H   H189      1.0  0.12760  0.33940  0.05420  1.0000 0.1185826232
H   H190      1.0  0.62760  0.66060  0.44580  1.0000 0.1185826232
H   H191      1.0  0.87240  0.16060  0.55420  1.0000 0.1185826232
H   H192      1.0  0.37240  0.83940  0.94580  1.0000 0.1185826232
H   H193      1.0  0.96640  0.72500  0.05460  1.0000 0.1040737657
H   H194      1.0  0.46640  0.27500  0.44540  1.0000 0.1040737657
H   H195      1.0  0.03360  0.77500  0.55460  1.0000 0.1040737657
H   H196      1.0  0.53360  0.22500  0.94540  1.0000 0.1040737657
H   H197      1.0  0.03360  0.27500  0.94540  1.0000 0.1040737657
H   H198      1.0  0.53360  0.72500  0.55460  1.0000 0.1040737657
H   H199      1.0  0.96640  0.22500  0.44540  1.0000 0.1040737657
H   H200      1.0  0.46640  0.77500  0.05460  1.0000 0.1040737657
H   H201      1.0  0.12830  0.86600  0.05590  1.0000 0.1396027426
H   H202      1.0  0.62830  0.13400  0.44410  1.0000 0.1396027426
H   H203      1.0  0.87170  0.63400  0.55590  1.0000 0.1396027426
H   H204      1.0  0.37170  0.36600  0.94410  1.0000 0.1396027426
H   H205      1.0  0.87170  0.13400  0.94410  1.0000 0.1396027426
H   H206      1.0  0.37170  0.86600  0.55590  1.0000 0.1396027426
H   H207      1.0  0.12830  0.36600  0.44410  1.0000 0.1396027426
H   H208      1.0  0.62830  0.63400  0.05590  1.0000 0.1396027426
H   H209      1.0  0.08780  0.90940  0.01420  1.0000 0.1296021832
H   H210      1.0  0.58780  0.09060  0.48580  1.0000 0.1296021832
H   H211      1.0  0.91220  0.59060  0.51420  1.0000 0.1296021832
H   H212      1.0  0.41220  0.40940  0.98580  1.0000 0.1296021832
H   H213      1.0  0.91220  0.09060  0.98580  1.0000 0.1296021832
H   H214      1.0  0.41220  0.90940  0.51420  1.0000 0.1296021832
H   H215      1.0  0.08780  0.40940  0.48580  1.0000 0.1296021832
H   H216      1.0  0.58780  0.59060  0.01420  1.0000 0.1296021832
H   H217      1.0  0.03690  0.95230  0.97630  1.0000 0.1396027426
H   H218      1.0  0.53690  0.04770  0.52370  1.0000 0.1396027426
H   H219      1.0  0.96310  0.54770  0.47630  1.0000 0.1396027426
H   H220      1.0  0.46310  0.45230  0.02370  1.0000 0.1396027426
H   H221      1.0  0.96310  0.04770  0.02370  1.0000 0.1396027426
H   H222      1.0  0.46310  0.95230  0.47630  1.0000 0.1396027426
H   H223      1.0  0.03690  0.45230  0.52370  1.0000 0.1396027426
H   H224      1.0  0.53690  0.54770  0.97630  1.0000 0.1396027426
H   H225      1.0  0.97100  0.99480  0.93950  1.0000 0.1296021832
H   H226      1.0  0.47100  0.00520  0.56050  1.0000 0.1296021832
H   H227      1.0  0.02900  0.50520  0.43950  1.0000 0.1296021832
H   H228      1.0  0.52900  0.49480  0.06050  1.0000 0.1296021832
H   H229      1.0  0.02900  0.00520  0.06050  1.0000 0.1296021832
H   H230      1.0  0.52900  0.99480  0.43950  1.0000 0.1296021832
H   H231      1.0  0.97100  0.49480  0.56050  1.0000 0.1296021832
H   H232      1.0  0.47100  0.50520  0.93950  1.0000 0.1296021832
H   H233      1.0  0.83410  0.83190  0.95020  1.0000 0.1185826232
H   H234      1.0  0.33410  0.16810  0.54980  1.0000 0.1185826232
H   H235      1.0  0.16590  0.66810  0.45020  1.0000 0.1185826232
H   H236      1.0  0.66590  0.33190  0.04980  1.0000 0.1185826232
H   H237      1.0  0.16590  0.16810  0.04980  1.0000 0.1185826232
H   H238      1.0  0.66590  0.83190  0.45020  1.0000 0.1185826232
H   H239      1.0  0.83410  0.33190  0.54980  1.0000 0.1185826232
H   H240      1.0  0.33410  0.66810  0.95020  1.0000 0.1185826232
H   H241      1.0  0.64400  0.57980  0.80420  1.0000 0.1185826232
H   H242      1.0  0.14400  0.42020  0.69580  1.0000 0.1185826232
H   H243      1.0  0.35600  0.92020  0.30420  1.0000 0.1185826232
H   H244      1.0  0.85600  0.07980  0.19580  1.0000 0.1185826232
H   H245      1.0  0.35600  0.42020  0.19580  1.0000 0.1185826232
H   H246      1.0  0.85600  0.57980  0.30420  1.0000 0.1185826232
H   H247      1.0  0.64400  0.07980  0.69580  1.0000 0.1185826232
H   H248      1.0  0.14400  0.92020  0.80420  1.0000 0.1185826232
H   H249      1.0  0.63580  0.37040  0.81590  1.0000 0.1296021832
H   H250      1.0  0.13580  0.62960  0.68410  1.0000 0.1296021832
H   H251      1.0  0.36420  0.12960  0.31590  1.0000 0.1296021832
H   H252      1.0  0.86420  0.87040  0.18410  1.0000 0.1296021832
H   H253      1.0  0.36420  0.62960  0.18410  1.0000 0.1296021832
H   H254      1.0  0.86420  0.37040  0.31590  1.0000 0.1296021832
H   H255      1.0  0.63580  0.87040  0.68410  1.0000 0.1296021832
H   H256      1.0  0.13580  0.12960  0.81590  1.0000 0.1296021832
H   H257      1.0  0.56620  0.35900  0.77650  1.0000 0.1185826232
H   H258      1.0  0.06620  0.64100  0.72350  1.0000 0.1185826232
H   H259      1.0  0.43380  0.14100  0.27650  1.0000 0.1185826232
H   H260      1.0  0.93380  0.85900  0.22350  1.0000 0.1185826232
H   H261      1.0  0.43380  0.64100  0.22350  1.0000 0.1185826232
H   H262      1.0  0.93380  0.35900  0.27650  1.0000 0.1185826232
H   H263      1.0  0.56620  0.85900  0.72350  1.0000 0.1185826232
H   H264      1.0  0.06620  0.14100  0.77650  1.0000 0.1185826232
H   H265      1.0  0.51760  0.35870  0.73490  1.0000 0.1185826232
H   H266      1.0  0.01760  0.64130  0.76510  1.0000 0.1185826232
H   H267      1.0  0.48240  0.14130  0.23490  1.0000 0.1185826232
H   H268      1.0  0.98240  0.85870  0.26510  1.0000 0.1185826232
H   H269      1.0  0.48240  0.64130  0.26510  1.0000 0.1185826232
H   H270      1.0  0.98240  0.35870  0.23490  1.0000 0.1185826232
H   H271      1.0  0.51760  0.85870  0.76510  1.0000 0.1185826232
H   H272      1.0  0.01760  0.14130  0.73490  1.0000 0.1185826232
H   H273      1.0  0.45430  0.36640  0.69370  1.0000 0.1296021832
H   H274      1.0  0.95430  0.63360  0.80630  1.0000 0.1296021832
H   H275      1.0  0.54570  0.13360  0.19370  1.0000 0.1296021832
H   H276      1.0  0.04570  0.86640  0.30630  1.0000 0.1296021832
H   H277      1.0  0.54570  0.63360  0.30630  1.0000 0.1296021832
H   H278      1.0  0.04570  0.36640  0.19370  1.0000 0.1296021832
H   H279      1.0  0.45430  0.86640  0.80630  1.0000 0.1296021832
H   H280      1.0  0.95430  0.13360  0.69370  1.0000 0.1296021832
H   H281      1.0  0.44680  0.57860  0.70470  1.0000 0.1185826232
H   H282      1.0  0.94680  0.42140  0.79530  1.0000 0.1185826232
H   H283      1.0  0.55320  0.92140  0.20470  1.0000 0.1185826232
H   H284      1.0  0.05320  0.07860  0.29530  1.0000 0.1185826232
H   H285      1.0  0.55320  0.42140  0.29530  1.0000 0.1185826232
H   H286      1.0  0.05320  0.57860  0.20470  1.0000 0.1185826232
H   H287      1.0  0.44680  0.07860  0.79530  1.0000 0.1185826232
H   H288      1.0  0.94680  0.92140  0.70470  1.0000 0.1185826232
H   H289      1.0  0.08400  0.66820  0.08200  1.0000 0.3096399857
H   H290      1.0  0.58400  0.33180  0.41800  1.0000 0.3096399857
H   H291      1.0  0.91600  0.83180  0.58200  1.0000 0.3096399857
H   H292      1.0  0.41600  0.16820  0.91800  1.0000 0.3096399857
H   H293      1.0  0.91600  0.33180  0.91800  1.0000 0.3096399857
H   H294      1.0  0.41600  0.66820  0.58200  1.0000 0.3096399857
H   H295      1.0  0.08400  0.16820  0.41800  1.0000 0.3096399857
H   H296      1.0  0.58400  0.83180  0.08200  1.0000 0.3096399857
H   H297      1.0  0.49050  0.61720  0.10210  1.0000 0.3695814116
H   H298      1.0  0.99050  0.38280  0.39790  1.0000 0.3695814116
H   H299      1.0  0.50950  0.88280  0.60210  1.0000 0.3695814116
H   H300      1.0  0.00950  0.11720  0.89790  1.0000 0.3695814116
H   H301      1.0  0.50950  0.38280  0.89790  1.0000 0.3695814116
H   H302      1.0  0.00950  0.61720  0.60210  1.0000 0.3695814116
H   H303      1.0  0.49050  0.11720  0.39790  1.0000 0.3695814116
H   H304      1.0  0.99050  0.88280  0.10210  1.0000 0.3695814116
H   H305      1.0  0.48680  0.55510  0.11710  1.0000 0.3884865595
H   H306      1.0  0.98680  0.44490  0.38290  1.0000 0.3884865595
H   H307      1.0  0.51320  0.94490  0.61710  1.0000 0.3884865595
H   H308      1.0  0.01320  0.05510  0.88290  1.0000 0.3884865595
H   H309      1.0  0.51320  0.44490  0.88290  1.0000 0.3884865595
H   H310      1.0  0.01320  0.55510  0.61710  1.0000 0.3884865595
H   H311      1.0  0.48680  0.05510  0.38290  1.0000 0.3884865595
H   H312      1.0  0.98680  0.94490  0.11710  1.0000 0.3884865595
H   H313      1.0  0.78330  0.26920  0.11230  1.0000 0.3807626916
H   H314      1.0  0.28330  0.73080  0.38770  1.0000 0.3807626916
H   H315      1.0  0.21670  0.23080  0.61230  1.0000 0.3807626916
H   H316      1.0  0.71670  0.76920  0.88770  1.0000 0.3807626916
H   H317      1.0  0.21670  0.73080  0.88770  1.0000 0.3807626916
H   H318      1.0  0.71670  0.26920  0.61230  1.0000 0.3807626916
H   H319      1.0  0.78330  0.76920  0.38770  1.0000 0.3807626916
H   H320      1.0  0.28330  0.23080  0.11230  1.0000 0.3807626916
H   H321      1.0  0.71950  0.28770  0.12450  1.0000 0.3556936039
H   H322      1.0  0.21950  0.71230  0.37550  1.0000 0.3556936039
H   H323      1.0  0.28050  0.21230  0.62450  1.0000 0.3556936039
H   H324      1.0  0.78050  0.78770  0.87550  1.0000 0.3556936039
H   H325      1.0  0.28050  0.71230  0.87550  1.0000 0.3556936039
H   H326      1.0  0.78050  0.28770  0.62450  1.0000 0.3556936039
H   H327      1.0  0.71950  0.78770  0.37550  1.0000 0.3556936039
H   H328      1.0  0.21950  0.21230  0.12450  1.0000 0.3556936039
H   H329      1.0  0.94580  0.44420  0.13370  1.0000 0.3478879907
H   H330      1.0  0.44580  0.55580  0.36630  1.0000 0.3478879907
H   H331      1.0  0.05420  0.05580  0.63370  1.0000 0.3478879907
H   H332      1.0  0.55420  0.94420  0.86630  1.0000 0.3478879907
H   H333      1.0  0.05420  0.55580  0.86630  1.0000 0.3478879907
H   H334      1.0  0.55420  0.44420  0.63370  1.0000 0.3478879907
H   H335      1.0  0.94580  0.94420  0.36630  1.0000 0.3478879907
H   H336      1.0  0.44580  0.05580  0.13370  1.0000 0.3478879907
H   H337      1.0  0.92800  0.51470  0.12980  1.0000 0.3354614927
H   H338      1.0  0.42800  0.48530  0.37020  1.0000 0.3354614927
H   H339      1.0  0.07200  0.98530  0.62980  1.0000 0.3354614927
H   H340      1.0  0.57200  0.01470  0.87020  1.0000 0.3354614927
H   H341      1.0  0.07200  0.48530  0.87020  1.0000 0.3354614927
H   H342      1.0  0.57200  0.51470  0.62980  1.0000 0.3354614927
H   H343      1.0  0.92800  0.01470  0.37020  1.0000 0.3354614927
H   H344      1.0  0.42800  0.98530  0.12980  1.0000 0.3354614927
H   H345      1.0  0.95040  0.41820  0.90130  1.0000 0.3478879907
H   H346      1.0  0.45040  0.58180  0.59870  1.0000 0.3478879907
H   H347      1.0  0.04960  0.08180  0.40130  1.0000 0.3478879907
H   H348      1.0  0.54960  0.91820  0.09870  1.0000 0.3478879907
H   H349      1.0  0.04960  0.58180  0.09870  1.0000 0.3478879907
H   H350      1.0  0.54960  0.41820  0.40130  1.0000 0.3478879907
H   H351      1.0  0.95040  0.91820  0.59870  1.0000 0.3478879907
H   H352      1.0  0.45040  0.08180  0.90130  1.0000 0.3478879907
H   H353      1.0  0.94180  0.49110  0.90180  1.0000 0.3478879907
H   H354      1.0  0.44180  0.50890  0.59820  1.0000 0.3478879907
H   H355      1.0  0.05820  0.00890  0.40180  1.0000 0.3478879907
H   H356      1.0  0.55820  0.99110  0.09820  1.0000 0.3478879907
H   H357      1.0  0.05820  0.50890  0.09820  1.0000 0.3478879907
H   H358      1.0  0.55820  0.49110  0.40180  1.0000 0.3478879907
H   H359      1.0  0.94180  0.99110  0.59820  1.0000 0.3478879907
H   H360      1.0  0.44180  0.00890  0.90180  1.0000 0.3478879907
H   H361      1.0  0.85870  0.33120  0.87840  1.0000 0.3556936039
H   H362      1.0  0.35870  0.66880  0.62160  1.0000 0.3556936039
H   H363      1.0  0.14130  0.16880  0.37840  1.0000 0.3556936039
H   H364      1.0  0.64130  0.83120  0.12160  1.0000 0.3556936039
H   H365      1.0  0.14130  0.66880  0.12160  1.0000 0.3556936039
H   H366      1.0  0.64130  0.33120  0.37840  1.0000 0.3556936039
H   H367      1.0  0.85870  0.83120  0.62160  1.0000 0.3556936039
H   H368      1.0  0.35870  0.16880  0.87840  1.0000 0.3556936039
H   H369      1.0  0.79090  0.32830  0.86730  1.0000 0.3695814116
H   H370      1.0  0.29090  0.67170  0.63270  1.0000 0.3695814116
H   H371      1.0  0.20910  0.17170  0.36730  1.0000 0.3695814116
H   H372      1.0  0.70910  0.82830  0.13270  1.0000 0.3695814116
H   H373      1.0  0.20910  0.67170  0.13270  1.0000 0.3695814116
H   H374      1.0  0.70910  0.32830  0.36730  1.0000 0.3695814116
H   H375      1.0  0.79090  0.82830  0.63270  1.0000 0.3695814116
H   H376      1.0  0.29090  0.17170  0.86730  1.0000 0.3695814116
C   C1        1.0  0.89710  0.31740  0.16364  1.0000 0.5902620209
C   C2        1.0  0.39710  0.68260  0.33636  1.0000 0.5902620209
C   C3        1.0  0.10290  0.18260  0.66364  1.0000 0.5902620209
C   C4        1.0  0.60290  0.81740  0.83636  1.0000 0.5902620209
C   C5        1.0  0.10290  0.68260  0.83636  1.0000 0.5902620209
C   C6        1.0  0.60290  0.31740  0.66364  1.0000 0.5902620209
C   C7        1.0  0.89710  0.81740  0.33636  1.0000 0.5902620209
C   C8        1.0  0.39710  0.18260  0.16364  1.0000 0.5902620209
C   C9        1.0  0.91380  0.22870  0.20170  1.0000 0.0479354326
C   C10       1.0  0.41380  0.77130  0.29830  1.0000 0.0479354326
C   C11       1.0  0.08620  0.27130  0.70170  1.0000 0.0447509019
C   C12       1.0  0.58620  0.72870  0.79830  1.0000 0.0479354326
C   C13       1.0  0.08620  0.77130  0.79830  1.0000 0.0479354326
C   C14       1.0  0.58620  0.22870  0.70170  1.0000 0.0479354326
C   C15       1.0  0.91380  0.72870  0.29830  1.0000 0.0479354326
C   C16       1.0  0.41380  0.27130  0.20170  1.0000 0.0447509019
C   C17       1.0  0.87990  0.28960  0.19142  1.0000 -0.0688627874
C   C18       1.0  0.37990  0.71040  0.30858  1.0000 -0.0688627874
C   C19       1.0  0.12010  0.21040  0.69142  1.0000 -0.0688627874
C   C20       1.0  0.62010  0.78960  0.80858  1.0000 -0.0688627874
C   C21       1.0  0.12010  0.71040  0.80858  1.0000 -0.0688627874
C   C22       1.0  0.62010  0.28960  0.69142  1.0000 -0.0688627874
C   C23       1.0  0.87990  0.78960  0.30858  1.0000 -0.0688627874
C   C24       1.0  0.37990  0.21040  0.19142  1.0000 -0.0688627874
C   C25       1.0  0.83190  0.32340  0.20871  1.0000 -0.0592342544
C   C26       1.0  0.33190  0.67660  0.29129  1.0000 -0.0592342544
C   C27       1.0  0.16810  0.17660  0.70871  1.0000 -0.0592342544
C   C28       1.0  0.66810  0.82340  0.79129  1.0000 -0.0592342544
C   C29       1.0  0.16810  0.67660  0.79129  1.0000 -0.0592342544
C   C30       1.0  0.66810  0.32340  0.70871  1.0000 -0.0592342544
C   C31       1.0  0.83190  0.82340  0.29129  1.0000 -0.0592342544
C   C32       1.0  0.33190  0.17660  0.20871  1.0000 -0.0592342544
C   C33       1.0  0.81790  0.29490  0.23459  1.0000 -0.1889385994
C   C34       1.0  0.31790  0.70510  0.26541  1.0000 -0.1889385994
C   C35       1.0  0.18210  0.20510  0.73459  1.0000 -0.1889385994
C   C36       1.0  0.68210  0.79490  0.76541  1.0000 -0.1889385994
C   C37       1.0  0.18210  0.70510  0.76541  1.0000 -0.1889385994
C   C38       1.0  0.68210  0.29490  0.73459  1.0000 -0.1889385994
C   C39       1.0  0.81790  0.79490  0.26541  1.0000 -0.1889385994
C   C40       1.0  0.31790  0.20510  0.23459  1.0000 -0.1889385994
C   C41       1.0  0.85290  0.23260  0.24328  1.0000 0.148976464
C   C42       1.0  0.35290  0.76740  0.25672  1.0000 0.148976464
C   C43       1.0  0.14710  0.26740  0.74328  1.0000 0.148976464
C   C44       1.0  0.64710  0.73260  0.75672  1.0000 0.148976464
C   C45       1.0  0.14710  0.76740  0.75672  1.0000 0.148976464
C   C46       1.0  0.64710  0.23260  0.74328  1.0000 0.148976464
C   C47       1.0  0.85290  0.73260  0.25672  1.0000 0.148976464
C   C48       1.0  0.35290  0.26740  0.24328  1.0000 0.148976464
C   C49       1.0  0.83890  0.19710  0.26957  1.0000 0.1396027426
C   C50       1.0  0.33890  0.80290  0.23043  1.0000 0.1396027426
C   C51       1.0  0.16110  0.30290  0.76957  1.0000 0.1396027426
C   C52       1.0  0.66110  0.69710  0.73043  1.0000 0.1396027426
C   C53       1.0  0.16110  0.80290  0.73043  1.0000 0.1396027426
C   C54       1.0  0.66110  0.19710  0.76957  1.0000 0.1396027426
C   C55       1.0  0.83890  0.69710  0.23043  1.0000 0.1396027426
C   C56       1.0  0.33890  0.30290  0.26957  1.0000 0.1396027426
C   C57       1.0  0.79180  0.22430  0.28853  1.0000 -0.1779056382
C   C58       1.0  0.29180  0.77570  0.21147  1.0000 -0.1779056382
C   C59       1.0  0.20820  0.27570  0.78853  1.0000 -0.1779056382
C   C60       1.0  0.70820  0.72430  0.71147  1.0000 -0.1779056382
C   C61       1.0  0.20820  0.77570  0.71147  1.0000 -0.1779056382
C   C62       1.0  0.70820  0.22430  0.78853  1.0000 -0.1779056382
C   C63       1.0  0.79180  0.72430  0.21147  1.0000 -0.1779056382
C   C64       1.0  0.29180  0.27570  0.28853  1.0000 -0.1779056382
C   C65       1.0  0.77740  0.18630  0.31170  1.0000 -0.0426068043
C   C66       1.0  0.27740  0.81370  0.18830  1.0000 -0.0426068043
C   C67       1.0  0.22260  0.31370  0.81170  1.0000 -0.0426068043
C   C68       1.0  0.72260  0.68630  0.68830  1.0000 -0.0426068043
C   C69       1.0  0.22260  0.81370  0.68830  1.0000 -0.0426068043
C   C70       1.0  0.72260  0.18630  0.81170  1.0000 -0.0426068043
C   C71       1.0  0.77740  0.68630  0.18830  1.0000 -0.0426068043
C   C72       1.0  0.27740  0.31370  0.31170  1.0000 -0.0426068043
C   C73       1.0  0.80940  0.11940  0.31542  1.0000 -0.0688627874
C   C74       1.0  0.30940  0.88060  0.18458  1.0000 -0.0688627874
C   C75       1.0  0.19060  0.38060  0.81542  1.0000 -0.0688627874
C   C76       1.0  0.69060  0.61940  0.68458  1.0000 -0.0688627874
C   C77       1.0  0.19060  0.88060  0.68458  1.0000 -0.0688627874
C   C78       1.0  0.69060  0.11940  0.81542  1.0000 -0.0688627874
C   C79       1.0  0.80940  0.61940  0.18458  1.0000 -0.0688627874
C   C80       1.0  0.30940  0.38060  0.31542  1.0000 -0.0688627874
C   C81       1.0  0.85870  0.09690  0.29612  1.0000 0.0600962453
C   C82       1.0  0.35870  0.90310  0.20388  1.0000 0.0600962453
C   C83       1.0  0.14130  0.40310  0.79612  1.0000 0.0600962453
C   C84       1.0  0.64130  0.59690  0.70388  1.0000 0.0669883592
C   C85       1.0  0.14130  0.90310  0.70388  1.0000 0.0600962453
C   C86       1.0  0.64130  0.09690  0.79612  1.0000 0.0600962453
C   C87       1.0  0.85870  0.59690  0.20388  1.0000 0.0600962453
C   C88       1.0  0.35870  0.40310  0.29612  1.0000 0.0600962453
C   C89       1.0  0.78830  0.07240  0.33907  1.0000 0.6487002525
C   C90       1.0  0.28830  0.92760  0.16093  1.0000 0.6487002525
C   C91       1.0  0.21170  0.42760  0.83907  1.0000 0.6487002525
C   C92       1.0  0.71170  0.57240  0.66093  1.0000 0.6487002525
C   C93       1.0  0.21170  0.92760  0.66093  1.0000 0.6487002525
C   C94       1.0  0.71170  0.07240  0.83907  1.0000 0.6487002525
C   C95       1.0  0.78830  0.57240  0.16093  1.0000 0.6487002525
C   C96       1.0  0.28830  0.42760  0.33907  1.0000 0.6487002525
C   C97       1.0  0.63950  0.44990  0.15658  1.0000 0.6427760376
C   C98       1.0  0.13950  0.55010  0.34342  1.0000 0.6427760376
C   C99       1.0  0.36050  0.05010  0.65658  1.0000 0.6427760376
C   C100      1.0  0.86050  0.94990  0.84342  1.0000 0.6427760376
C   C101      1.0  0.36050  0.55010  0.84342  1.0000 0.6427760376
C   C102      1.0  0.86050  0.44990  0.65658  1.0000 0.6427760376
C   C103      1.0  0.63950  0.94990  0.34342  1.0000 0.6427760376
C   C104      1.0  0.13950  0.05010  0.15658  1.0000 0.6427760376
C   C105      1.0  0.56170  0.41270  0.19696  1.0000 0.0600962453
C   C106      1.0  0.06170  0.58730  0.30304  1.0000 0.0600962453
C   C107      1.0  0.43830  0.08730  0.69696  1.0000 0.0600962453
C   C108      1.0  0.93830  0.91270  0.80304  1.0000 0.0600962453
C   C109      1.0  0.43830  0.58730  0.80304  1.0000 0.0600962453
C   C110      1.0  0.93830  0.41270  0.69696  1.0000 0.0600962453
C   C111      1.0  0.56170  0.91270  0.30304  1.0000 0.0600962453
C   C112      1.0  0.06170  0.08730  0.19696  1.0000 0.0600962453
C   C113      1.0  0.61590  0.39740  0.17883  1.0000 -0.0592342544
C   C114      1.0  0.11590  0.60260  0.32117  1.0000 -0.0592342544
C   C115      1.0  0.38410  0.10260  0.67883  1.0000 -0.0592342544
C   C116      1.0  0.88410  0.89740  0.82117  1.0000 -0.0592342544
C   C117      1.0  0.38410  0.60260  0.82117  1.0000 -0.0592342544
C   C118      1.0  0.88410  0.39740  0.67883  1.0000 -0.0592342544
C   C119      1.0  0.61590  0.89740  0.32117  1.0000 -0.0592342544
C   C120      1.0  0.11590  0.10260  0.17883  1.0000 -0.0592342544
C   C121      1.0  0.65310  0.33390  0.18252  1.0000 -0.0502305381
C   C122      1.0  0.15310  0.66610  0.31748  1.0000 -0.0502305381
C   C123      1.0  0.34690  0.16610  0.68252  1.0000 -0.0502305381
C   C124      1.0  0.84690  0.83390  0.81748  1.0000 -0.0502305381
C   C125      1.0  0.34690  0.66610  0.81748  1.0000 -0.0502305381
C   C126      1.0  0.84690  0.33390  0.68252  1.0000 -0.0502305381
C   C127      1.0  0.65310  0.83390  0.31748  1.0000 -0.0502305381
C   C128      1.0  0.15310  0.16610  0.18252  1.0000 -0.0502305381
C   C129      1.0  0.63840  0.29250  0.20447  1.0000 -0.1711439172
C   C130      1.0  0.13840  0.70750  0.29553  1.0000 -0.1711439172
C   C131      1.0  0.36160  0.20750  0.70447  1.0000 -0.1711439172
C   C132      1.0  0.86160  0.79250  0.79553  1.0000 -0.1711439172
C   C133      1.0  0.36160  0.70750  0.79553  1.0000 -0.1711439172
C   C134      1.0  0.86160  0.29250  0.70447  1.0000 -0.1711439172
C   C135      1.0  0.63840  0.79250  0.29553  1.0000 -0.1711439172
C   C136      1.0  0.13840  0.20750  0.20447  1.0000 -0.1711439172
C   C137      1.0  0.58620  0.31330  0.22304  1.0000 0.148976464
C   C138      1.0  0.08620  0.68670  0.27696  1.0000 0.148976464
C   C139      1.0  0.41380  0.18670  0.72304  1.0000 0.148976464
C   C140      1.0  0.91380  0.81330  0.77696  1.0000 0.148976464
C   C141      1.0  0.41380  0.68670  0.77696  1.0000 0.148976464
C   C142      1.0  0.91380  0.31330  0.72304  1.0000 0.148976464
C   C143      1.0  0.58620  0.81330  0.27696  1.0000 0.148976464
C   C144      1.0  0.08620  0.18670  0.22304  1.0000 0.148976464
C   C145      1.0  0.57440  0.27580  0.24963  1.0000 0.148976464
C   C146      1.0  0.07440  0.72420  0.25037  1.0000 0.148976464
C   C147      1.0  0.42560  0.22420  0.74963  1.0000 0.148976464
C   C148      1.0  0.92560  0.77580  0.75037  1.0000 0.148976464
C   C149      1.0  0.42560  0.72420  0.75037  1.0000 0.148976464
C   C150      1.0  0.92560  0.27580  0.74963  1.0000 0.148976464
C   C151      1.0  0.57440  0.77580  0.25037  1.0000 0.148976464
C   C152      1.0  0.07440  0.22420  0.24963  1.0000 0.148976464
C   C153      1.0  0.61510  0.21790  0.25817  1.0000 -0.1889385994
C   C154      1.0  0.11510  0.78210  0.24183  1.0000 -0.1889385994
C   C155      1.0  0.38490  0.28210  0.75817  1.0000 -0.1889385994
C   C156      1.0  0.88490  0.71790  0.74183  1.0000 -0.1889385994
C   C157      1.0  0.38490  0.78210  0.74183  1.0000 -0.1889385994
C   C158      1.0  0.88490  0.21790  0.75817  1.0000 -0.1889385994
C   C159      1.0  0.61510  0.71790  0.24183  1.0000 -0.1889385994
C   C160      1.0  0.11510  0.28210  0.25817  1.0000 -0.1889385994
C   C161      1.0  0.60510  0.18960  0.28418  1.0000 -0.0592342544
C   C162      1.0  0.10510  0.81040  0.21582  1.0000 -0.0592342544
C   C163      1.0  0.39490  0.31040  0.78418  1.0000 -0.0592342544
C   C164      1.0  0.89490  0.68960  0.71582  1.0000 -0.0592342544
C   C165      1.0  0.39490  0.81040  0.71582  1.0000 -0.0592342544
C   C166      1.0  0.89490  0.18960  0.78418  1.0000 -0.0592342544
C   C167      1.0  0.60510  0.68960  0.21582  1.0000 -0.0592342544
C   C168      1.0  0.10510  0.31040  0.28418  1.0000 -0.0592342544
C   C169      1.0  0.55650  0.22080  0.30123  1.0000 -0.0592342544
C   C170      1.0  0.05650  0.77920  0.19877  1.0000 -0.0592342544
C   C171      1.0  0.44350  0.27920  0.80123  1.0000 -0.0592342544
C   C172      1.0  0.94350  0.72080  0.69877  1.0000 -0.0592342544
C   C173      1.0  0.44350  0.77920  0.69877  1.0000 -0.0592342544
C   C174      1.0  0.94350  0.22080  0.80123  1.0000 -0.0592342544
C   C175      1.0  0.55650  0.72080  0.19877  1.0000 -0.0592342544
C   C176      1.0  0.05650  0.27920  0.30123  1.0000 -0.0592342544
C   C177      1.0  0.51420  0.27720  0.29084  1.0000 0.0479354326
C   C178      1.0  0.01420  0.72280  0.20916  1.0000 0.0479354326
C   C179      1.0  0.48580  0.22280  0.79084  1.0000 0.0479354326
C   C180      1.0  0.98580  0.77720  0.70916  1.0000 0.0479354326
C   C181      1.0  0.48580  0.72280  0.70916  1.0000 0.0479354326
C   C182      1.0  0.98580  0.27720  0.79084  1.0000 0.0479354326
C   C183      1.0  0.51420  0.77720  0.20916  1.0000 0.0479354326
C   C184      1.0  0.01420  0.22280  0.29084  1.0000 0.0479354326
C   C185      1.0  0.54510  0.19490  0.33080  1.0000 0.5902620209
C   C186      1.0  0.04510  0.80510  0.16920  1.0000 0.5902620209
C   C187      1.0  0.45490  0.30510  0.83080  1.0000 0.5902620209
C   C188      1.0  0.95490  0.69490  0.66920  1.0000 0.5902620209
C   C189      1.0  0.45490  0.80510  0.66920  1.0000 0.5902620209
C   C190      1.0  0.95490  0.19490  0.83080  1.0000 0.5902620209
C   C191      1.0  0.54510  0.69490  0.16920  1.0000 0.5902620209
C   C192      1.0  0.04510  0.30510  0.33080  1.0000 0.5902620209
C   C193      1.0  0.78690  0.58460  0.08434  1.0000 0.6487002525
C   C194      1.0  0.28690  0.41540  0.41566  1.0000 0.6487002525
C   C195      1.0  0.21310  0.91540  0.58434  1.0000 0.6487002525
C   C196      1.0  0.71310  0.08460  0.91566  1.0000 0.6487002525
C   C197      1.0  0.21310  0.41540  0.91566  1.0000 0.6487002525
C   C198      1.0  0.71310  0.58460  0.58434  1.0000 0.6487002525
C   C199      1.0  0.78690  0.08460  0.41566  1.0000 0.6487002525
C   C200      1.0  0.28690  0.91540  0.08434  1.0000 0.6487002525
C   C201      1.0  0.83580  0.65400  0.04321  1.0000 0.0600962453
C   C202      1.0  0.33580  0.34600  0.45679  1.0000 0.0600962453
C   C203      1.0  0.16420  0.84600  0.54321  1.0000 0.0600962453
C   C204      1.0  0.66420  0.15400  0.95679  1.0000 0.0600962453
C   C205      1.0  0.16420  0.34600  0.95679  1.0000 0.0600962453
C   C206      1.0  0.66420  0.65400  0.54321  1.0000 0.0600962453
C   C207      1.0  0.83580  0.15400  0.45679  1.0000 0.0600962453
C   C208      1.0  0.33580  0.84600  0.04321  1.0000 0.0600962453
C   C209      1.0  0.84310  0.59920  0.06265  1.0000 -0.0426068043
C   C210      1.0  0.34310  0.40080  0.43735  1.0000 -0.0426068043
C   C211      1.0  0.15690  0.90080  0.56265  1.0000 -0.0426068043
C   C212      1.0  0.65690  0.09920  0.93735  1.0000 -0.0426068043
C   C213      1.0  0.15690  0.40080  0.93735  1.0000 -0.0426068043
C   C214      1.0  0.65690  0.59920  0.56265  1.0000 -0.0426068043
C   C215      1.0  0.84310  0.09920  0.43735  1.0000 -0.0426068043
C   C216      1.0  0.34310  0.90080  0.06265  1.0000 -0.0426068043
C   C217      1.0  0.90370  0.55840  0.06105  1.0000 -0.0688627874
C   C218      1.0  0.40370  0.44160  0.43895  1.0000 -0.0688627874
C   C219      1.0  0.09630  0.94160  0.56105  1.0000 -0.0688627874
C   C220      1.0  0.59630  0.05840  0.93895  1.0000 -0.0688627874
C   C221      1.0  0.09630  0.44160  0.93895  1.0000 -0.0688627874
C   C222      1.0  0.59630  0.55840  0.56105  1.0000 -0.0688627874
C   C223      1.0  0.90370  0.05840  0.43895  1.0000 -0.0688627874
C   C224      1.0  0.40370  0.94160  0.06105  1.0000 -0.0688627874
C   C225      1.0  0.95270  0.56900  0.03994  1.0000 -0.1889385994
C   C226      1.0  0.45270  0.43100  0.46006  1.0000 -0.1889385994
C   C227      1.0  0.04730  0.93100  0.53994  1.0000 -0.1889385994
C   C228      1.0  0.54730  0.06900  0.96006  1.0000 -0.1889385994
C   C229      1.0  0.04730  0.43100  0.96006  1.0000 -0.1889385994
C   C230      1.0  0.54730  0.56900  0.53994  1.0000 -0.1889385994
C   C231      1.0  0.95270  0.06900  0.46006  1.0000 -0.1889385994
C   C232      1.0  0.45270  0.93100  0.03994  1.0000 -0.1889385994
C   C233      1.0  0.94090  0.62090  0.02074  1.0000 0.1396027426
C   C234      1.0  0.44090  0.37910  0.47926  1.0000 0.1396027426
C   C235      1.0  0.05910  0.87910  0.52074  1.0000 0.1396027426
C   C236      1.0  0.55910  0.12090  0.97926  1.0000 0.1396027426
C   C237      1.0  0.05910  0.37910  0.97926  1.0000 0.1396027426
C   C238      1.0  0.55910  0.62090  0.52074  1.0000 0.1396027426
C   C239      1.0  0.94090  0.12090  0.47926  1.0000 0.1396027426
C   C240      1.0  0.44090  0.87910  0.02074  1.0000 0.1396027426
C   C241      1.0  0.98890  0.63420  0.99714  1.0000 0.1396027426
C   C242      1.0  0.48890  0.36580  0.50286  1.0000 0.1396027426
C   C243      1.0  0.01110  0.86580  0.49714  1.0000 0.1396027426
C   C244      1.0  0.51110  0.13420  0.00286  1.0000 0.1396027426
C   C245      1.0  0.01110  0.36580  0.00286  1.0000 0.1396027426
C   C246      1.0  0.51110  0.63420  0.49714  1.0000 0.1396027426
C   C247      1.0  0.98890  0.13420  0.50286  1.0000 0.1396027426
C   C248      1.0  0.48890  0.86580  0.99714  1.0000 0.1396027426
C   C249      1.0  0.04780  0.59300  0.99152  1.0000 -0.1779056382
C   C250      1.0  0.54780  0.40700  0.50848  1.0000 -0.1779056382
C   C251      1.0  0.95220  0.90700  0.49152  1.0000 -0.1711439172
C   C252      1.0  0.45220  0.09300  0.00848  1.0000 -0.1779056382
C   C253      1.0  0.95220  0.40700  0.00848  1.0000 -0.1711439172
C   C254      1.0  0.45220  0.59300  0.49152  1.0000 -0.1779056382
C   C255      1.0  0.04780  0.09300  0.50848  1.0000 -0.1779056382
C   C256      1.0  0.54780  0.90700  0.99152  1.0000 -0.1779056382
C   C257      1.0  0.08560  0.60690  0.96828  1.0000 -0.0502305381
C   C258      1.0  0.58560  0.39310  0.53172  1.0000 -0.0502305381
C   C259      1.0  0.91440  0.89310  0.46828  1.0000 -0.0502305381
C   C260      1.0  0.41440  0.10690  0.03172  1.0000 -0.0502305381
C   C261      1.0  0.91440  0.39310  0.03172  1.0000 -0.0502305381
C   C262      1.0  0.41440  0.60690  0.46828  1.0000 -0.0502305381
C   C263      1.0  0.08560  0.10690  0.53172  1.0000 -0.0502305381
C   C264      1.0  0.58560  0.89310  0.96828  1.0000 -0.0502305381
C   C265      1.0  0.06500  0.66150  0.95101  1.0000 -0.0426068043
C   C266      1.0  0.56500  0.33850  0.54899  1.0000 -0.0426068043
C   C267      1.0  0.93500  0.83850  0.45101  1.0000 -0.0426068043
C   C268      1.0  0.43500  0.16150  0.04899  1.0000 -0.0426068043
C   C269      1.0  0.93500  0.33850  0.04899  1.0000 -0.0426068043
C   C270      1.0  0.43500  0.66150  0.45101  1.0000 -0.0426068043
C   C271      1.0  0.06500  0.16150  0.54899  1.0000 -0.0426068043
C   C272      1.0  0.56500  0.83850  0.95101  1.0000 -0.0426068043
C   C273      1.0  0.00720  0.70400  0.95879  1.0000 0.0278277136
C   C274      1.0  0.50720  0.29600  0.54121  1.0000 0.0278277136
C   C275      1.0  0.99280  0.79600  0.45879  1.0000 0.0278277136
C   C276      1.0  0.49280  0.20400  0.04121  1.0000 0.0278277136
C   C277      1.0  0.99280  0.29600  0.04121  1.0000 0.0278277136
C   C278      1.0  0.49280  0.70400  0.45879  1.0000 0.0278277136
C   C279      1.0  0.00720  0.20400  0.54121  1.0000 0.0278277136
C   C280      1.0  0.50720  0.79600  0.95879  1.0000 0.0278277136
C   C281      1.0  0.10530  0.67550  0.92420  1.0000 0.5902620209
C   C282      1.0  0.60530  0.32450  0.57580  1.0000 0.5902620209
C   C283      1.0  0.89470  0.82450  0.42420  1.0000 0.5902620209
C   C284      1.0  0.39470  0.17550  0.07580  1.0000 0.5902620209
C   C285      1.0  0.89470  0.32450  0.07580  1.0000 0.5902620209
C   C286      1.0  0.39470  0.67550  0.42420  1.0000 0.5902620209
C   C287      1.0  0.10530  0.17550  0.57580  1.0000 0.5902620209
C   C288      1.0  0.60530  0.82450  0.92420  1.0000 0.5902620209
C   C289      1.0  0.77130  0.92160  0.07310  1.0000 0.5902620209
C   C290      1.0  0.27130  0.07840  0.42690  1.0000 0.5902620209
C   C291      1.0  0.22870  0.57840  0.57310  1.0000 0.5902620209
C   C292      1.0  0.72870  0.42160  0.92690  1.0000 0.5902620209
C   C293      1.0  0.22870  0.07840  0.92690  1.0000 0.5902620209
C   C294      1.0  0.72870  0.92160  0.57310  1.0000 0.5902620209
C   C295      1.0  0.77130  0.42160  0.42690  1.0000 0.5902620209
C   C296      1.0  0.27130  0.57840  0.07310  1.0000 0.5902620209
C   C297      1.0  0.81950  0.84290  0.03530  1.0000 0.0479354326
C   C298      1.0  0.31950  0.15710  0.46470  1.0000 0.0479354326
C   C299      1.0  0.18050  0.65710  0.53530  1.0000 0.0479354326
C   C300      1.0  0.68050  0.34290  0.96470  1.0000 0.0479354326
C   C301      1.0  0.18050  0.15710  0.96470  1.0000 0.0479354326
C   C302      1.0  0.68050  0.84290  0.53530  1.0000 0.0479354326
C   C303      1.0  0.81950  0.34290  0.46470  1.0000 0.0479354326
C   C304      1.0  0.31950  0.65710  0.03530  1.0000 0.0479354326
C   C305      1.0  0.76020  0.87170  0.04830  1.0000 -0.0242778426
C   C306      1.0  0.26020  0.12830  0.45170  1.0000 -0.0242778426
C   C307      1.0  0.23980  0.62830  0.54830  1.0000 -0.0242778426
C   C308      1.0  0.73980  0.37170  0.95170  1.0000 -0.0242778426
C   C309      1.0  0.23980  0.12830  0.95170  1.0000 -0.0242778426
C   C310      1.0  0.73980  0.87170  0.54830  1.0000 -0.0242778426
C   C311      1.0  0.76020  0.37170  0.45170  1.0000 -0.0242778426
C   C312      1.0  0.26020  0.62830  0.04830  1.0000 -0.0242778426
C   C313      1.0  0.69450  0.84830  0.04060  1.0000 -0.0751725705
C   C314      1.0  0.19450  0.15170  0.45940  1.0000 -0.0751725705
C   C315      1.0  0.30550  0.65170  0.54060  1.0000 -0.0751725705
C   C316      1.0  0.80550  0.34830  0.95940  1.0000 -0.0688627874
C   C317      1.0  0.30550  0.15170  0.95940  1.0000 -0.0688627874
C   C318      1.0  0.80550  0.84830  0.54060  1.0000 -0.0751725705
C   C319      1.0  0.69450  0.34830  0.45940  1.0000 -0.0688627874
C   C320      1.0  0.19450  0.65170  0.04060  1.0000 -0.0751725705
C   C321      1.0  0.68670  0.80010  0.01884  1.0000 -0.1711439172
C   C322      1.0  0.18670  0.19990  0.48116  1.0000 -0.1711439172
C   C323      1.0  0.31330  0.69990  0.51884  1.0000 -0.1711439172
C   C324      1.0  0.81330  0.30010  0.98116  1.0000 -0.1711439172
C   C325      1.0  0.31330  0.19990  0.98116  1.0000 -0.1711439172
C   C326      1.0  0.81330  0.80010  0.51884  1.0000 -0.1711439172
C   C327      1.0  0.68670  0.30010  0.48116  1.0000 -0.1711439172
C   C328      1.0  0.18670  0.69990  0.01884  1.0000 -0.1711439172
C   C329      1.0  0.74840  0.77420  0.00553  1.0000 0.148976464
C   C330      1.0  0.24840  0.22580  0.49447  1.0000 0.148976464
C   C331      1.0  0.25160  0.72580  0.50553  1.0000 0.148976464
C   C332      1.0  0.75160  0.27420  0.99447  1.0000 0.148976464
C   C333      1.0  0.25160  0.22580  0.99447  1.0000 0.148976464
C   C334      1.0  0.75160  0.77420  0.50553  1.0000 0.148976464
C   C335      1.0  0.74840  0.27420  0.49447  1.0000 0.148976464
C   C336      1.0  0.24840  0.72580  0.00553  1.0000 0.148976464
C   C337      1.0  0.75080  0.72740  0.98207  1.0000 0.1396027426
C   C338      1.0  0.25080  0.27260  0.51793  1.0000 0.1396027426
C   C339      1.0  0.24920  0.77260  0.48207  1.0000 0.1396027426
C   C340      1.0  0.74920  0.22740  0.01793  1.0000 0.1396027426
C   C341      1.0  0.24920  0.27260  0.01793  1.0000 0.1396027426
C   C342      1.0  0.74920  0.72740  0.48207  1.0000 0.1396027426
C   C343      1.0  0.75080  0.22740  0.51793  1.0000 0.1396027426
C   C344      1.0  0.25080  0.77260  0.98207  1.0000 0.1396027426
C   C345      1.0  0.69170  0.70160  0.96840  1.0000 -0.1577734882
C   C346      1.0  0.19170  0.29840  0.53160  1.0000 -0.1577734882
C   C347      1.0  0.30830  0.79840  0.46840  1.0000 -0.1577734882
C   C348      1.0  0.80830  0.20160  0.03160  1.0000 -0.1577734882
C   C349      1.0  0.30830  0.29840  0.03160  1.0000 -0.1577734882
C   C350      1.0  0.80830  0.70160  0.46840  1.0000 -0.1577734882
C   C351      1.0  0.69170  0.20160  0.53160  1.0000 -0.1577734882
C   C352      1.0  0.19170  0.79840  0.96840  1.0000 -0.1577734882
C   C353      1.0  0.70090  0.65980  0.94480  1.0000 -0.0316997395
C   C354      1.0  0.20090  0.34020  0.55520  1.0000 -0.0316997395
C   C355      1.0  0.29910  0.84020  0.44480  1.0000 -0.0316997395
C   C356      1.0  0.79910  0.15980  0.05520  1.0000 -0.0316997395
C   C357      1.0  0.29910  0.34020  0.05520  1.0000 -0.0316997395
C   C358      1.0  0.79910  0.65980  0.44480  1.0000 -0.0316997395
C   C359      1.0  0.70090  0.15980  0.55520  1.0000 -0.0316997395
C   C360      1.0  0.20090  0.84020  0.94480  1.0000 -0.0316997395
C   C361      1.0  0.76950  0.64550  0.93580  1.0000 -0.0426068043
C   C362      1.0  0.26950  0.35450  0.56420  1.0000 -0.0316997395
C   C363      1.0  0.23050  0.85450  0.43580  1.0000 -0.0316997395
C   C364      1.0  0.73050  0.14550  0.06420  1.0000 -0.0316997395
C   C365      1.0  0.23050  0.35450  0.06420  1.0000 -0.0316997395
C   C366      1.0  0.73050  0.64550  0.43580  1.0000 -0.0316997395
C   C367      1.0  0.76950  0.14550  0.56420  1.0000 -0.0316997395
C   C368      1.0  0.26950  0.85450  0.93580  1.0000 -0.0426068043
C   C369      1.0  0.82590  0.67180  0.95134  1.0000 0.0669883592
C   C370      1.0  0.32590  0.32820  0.54866  1.0000 0.0669883592
C   C371      1.0  0.17410  0.82820  0.45134  1.0000 0.0669883592
C   C372      1.0  0.67410  0.17180  0.04866  1.0000 0.0669883592
C   C373      1.0  0.17410  0.32820  0.04866  1.0000 0.0669883592
C   C374      1.0  0.67410  0.67180  0.45134  1.0000 0.0669883592
C   C375      1.0  0.82590  0.17180  0.54866  1.0000 0.0669883592
C   C376      1.0  0.32590  0.82820  0.95134  1.0000 0.0669883592
C   C377      1.0  0.78500  0.60060  0.91063  1.0000 0.5619891984
C   C378      1.0  0.28500  0.39940  0.58937  1.0000 0.5619891984
C   C379      1.0  0.21500  0.89940  0.41063  1.0000 0.5619891984
C   C380      1.0  0.71500  0.10060  0.08937  1.0000 0.5619891984
C   C381      1.0  0.21500  0.39940  0.08937  1.0000 0.5619891984
C   C382      1.0  0.71500  0.60060  0.41063  1.0000 0.5619891984
C   C383      1.0  0.78500  0.10060  0.58937  1.0000 0.5619891984
C   C384      1.0  0.28500  0.89940  0.91063  1.0000 0.5619891984
C   C385      1.0  0.07610  0.75780  0.08637  1.0000 0.5902620209
C   C386      1.0  0.57610  0.24220  0.41363  1.0000 0.5902620209
C   C387      1.0  0.92390  0.74220  0.58637  1.0000 0.5902620209
C   C388      1.0  0.42390  0.25780  0.91363  1.0000 0.5902620209
C   C389      1.0  0.92390  0.24220  0.91363  1.0000 0.5902620209
C   C390      1.0  0.42390  0.75780  0.58637  1.0000 0.5902620209
C   C391      1.0  0.07610  0.25780  0.41363  1.0000 0.5902620209
C   C392      1.0  0.57610  0.74220  0.08637  1.0000 0.5902620209
C   C393      1.0  0.99110  0.76260  0.04644  1.0000 0.0196284717
C   C394      1.0  0.49110  0.23740  0.45356  1.0000 0.0196284717
C   C395      1.0  0.00890  0.73740  0.54644  1.0000 0.0196284717
C   C396      1.0  0.50890  0.26260  0.95356  1.0000 0.0196284717
C   C397      1.0  0.00890  0.23740  0.95356  1.0000 0.0196284717
C   C398      1.0  0.50890  0.76260  0.54644  1.0000 0.0196284717
C   C399      1.0  0.99110  0.26260  0.45356  1.0000 0.0196284717
C   C400      1.0  0.49110  0.73740  0.04644  1.0000 0.0196284717
C   C401      1.0  0.05070  0.79130  0.05992  1.0000 -0.1023717867
C   C402      1.0  0.55070  0.20870  0.44008  1.0000 -0.1023717867
C   C403      1.0  0.94930  0.70870  0.55992  1.0000 -0.1023717867
C   C404      1.0  0.44930  0.29130  0.94008  1.0000 -0.1023717867
C   C405      1.0  0.94930  0.20870  0.94008  1.0000 -0.1023717867
C   C406      1.0  0.44930  0.79130  0.55992  1.0000 -0.1023717867
C   C407      1.0  0.05070  0.29130  0.44008  1.0000 -0.1023717867
C   C408      1.0  0.55070  0.70870  0.05992  1.0000 -0.1023717867
C   C409      1.0  0.08790  0.84630  0.04761  1.0000 -0.0592342544
C   C410      1.0  0.58790  0.15370  0.45239  1.0000 -0.0592342544
C   C411      1.0  0.91210  0.65370  0.54761  1.0000 -0.0592342544
C   C412      1.0  0.41210  0.34630  0.95239  1.0000 -0.0592342544
C   C413      1.0  0.91210  0.15370  0.95239  1.0000 -0.0592342544
C   C414      1.0  0.41210  0.84630  0.54761  1.0000 -0.0592342544
C   C415      1.0  0.08790  0.34630  0.45239  1.0000 -0.0592342544
C   C416      1.0  0.58790  0.65370  0.04761  1.0000 -0.0592342544
C   C417      1.0  0.06360  0.87170  0.02257  1.0000 -0.1452709334
C   C418      1.0  0.56360  0.12830  0.47743  1.0000 -0.1452709334
C   C419      1.0  0.93640  0.62830  0.52257  1.0000 -0.1452709334
C   C420      1.0  0.43640  0.37170  0.97743  1.0000 -0.1452709334
C   C421      1.0  0.93640  0.12830  0.97743  1.0000 -0.1452709334
C   C422      1.0  0.43640  0.87170  0.52257  1.0000 -0.1452709334
C   C423      1.0  0.06360  0.37170  0.47743  1.0000 -0.1452709334
C   C424      1.0  0.56360  0.62830  0.02257  1.0000 -0.1452709334
C   C425      1.0  0.00510  0.84260  0.00986  1.0000 0.148976464
C   C426      1.0  0.50510  0.15740  0.49014  1.0000 0.148976464
C   C427      1.0  0.99490  0.65740  0.50986  1.0000 0.148976464
C   C428      1.0  0.49490  0.34260  0.99014  1.0000 0.148976464
C   C429      1.0  0.99490  0.15740  0.99014  1.0000 0.148976464
C   C430      1.0  0.49490  0.84260  0.50986  1.0000 0.148976464
C   C431      1.0  0.00510  0.34260  0.49014  1.0000 0.148976464
C   C432      1.0  0.50510  0.65740  0.00986  1.0000 0.148976464
C   C433      1.0  0.97090  0.86990  0.98486  1.0000 0.148976464
C   C434      1.0  0.47090  0.13010  0.51514  1.0000 0.148976464
C   C435      1.0  0.02910  0.63010  0.48486  1.0000 0.148976464
C   C436      1.0  0.52910  0.36990  0.01514  1.0000 0.148976464
C   C437      1.0  0.02910  0.13010  0.01514  1.0000 0.148976464
C   C438      1.0  0.52910  0.86990  0.48486  1.0000 0.148976464
C   C439      1.0  0.97090  0.36990  0.51514  1.0000 0.148976464
C   C440      1.0  0.47090  0.63010  0.98486  1.0000 0.148976464
C   C441      1.0  0.99470  0.92950  0.97097  1.0000 -0.1577734882
C   C442      1.0  0.49470  0.07050  0.52903  1.0000 -0.1577734882
C   C443      1.0  0.00530  0.57050  0.47097  1.0000 -0.1577734882
C   C444      1.0  0.50530  0.42950  0.02903  1.0000 -0.1577734882
C   C445      1.0  0.00530  0.07050  0.02903  1.0000 -0.1577734882
C   C446      1.0  0.50530  0.92950  0.47097  1.0000 -0.1577734882
C   C447      1.0  0.99470  0.42950  0.52903  1.0000 -0.1577734882
C   C448      1.0  0.49470  0.57050  0.97097  1.0000 -0.1577734882
C   C449      1.0  0.95550  0.95490  0.94919  1.0000 -0.0502305381
C   C450      1.0  0.45550  0.04510  0.55081  1.0000 -0.0502305381
C   C451      1.0  0.04450  0.54510  0.44919  1.0000 -0.0502305381
C   C452      1.0  0.54450  0.45490  0.05081  1.0000 -0.0502305381
C   C453      1.0  0.04450  0.04510  0.05081  1.0000 -0.0502305381
C   C454      1.0  0.54450  0.95490  0.44919  1.0000 -0.0502305381
C   C455      1.0  0.95550  0.45490  0.55081  1.0000 -0.0502305381
C   C456      1.0  0.45550  0.54510  0.94919  1.0000 -0.0502305381
C   C457      1.0  0.89330  0.92050  0.94196  1.0000 -0.0502305381
C   C458      1.0  0.39330  0.07950  0.55804  1.0000 -0.0502305381
C   C459      1.0  0.10670  0.57950  0.44196  1.0000 -0.0502305381
C   C460      1.0  0.60670  0.42050  0.05804  1.0000 -0.0502305381
C   C461      1.0  0.10670  0.07950  0.05804  1.0000 -0.0502305381
C   C462      1.0  0.60670  0.92050  0.44196  1.0000 -0.0502305381
C   C463      1.0  0.89330  0.42050  0.55804  1.0000 -0.0502305381
C   C464      1.0  0.39330  0.57950  0.94196  1.0000 -0.0502305381
C   C465      1.0  0.87470  0.85690  0.95580  1.0000 0.085896655
C   C466      1.0  0.37470  0.14310  0.54420  1.0000 0.085896655
C   C467      1.0  0.12530  0.64310  0.45580  1.0000 0.085896655
C   C468      1.0  0.62530  0.35690  0.04420  1.0000 0.085896655
C   C469      1.0  0.12530  0.14310  0.04420  1.0000 0.085896655
C   C470      1.0  0.62530  0.85690  0.45580  1.0000 0.085896655
C   C471      1.0  0.87470  0.35690  0.54420  1.0000 0.085896655
C   C472      1.0  0.37470  0.64310  0.95580  1.0000 0.085896655
C   C473      1.0  0.84500  0.94800  0.91924  1.0000 0.6487002525
C   C474      1.0  0.34500  0.05200  0.58076  1.0000 0.6487002525
C   C475      1.0  0.15500  0.55200  0.41924  1.0000 0.6487002525
C   C476      1.0  0.65500  0.44800  0.08076  1.0000 0.6487002525
C   C477      1.0  0.15500  0.05200  0.08076  1.0000 0.6487002525
C   C478      1.0  0.65500  0.94800  0.41924  1.0000 0.6487002525
C   C479      1.0  0.84500  0.44800  0.58076  1.0000 0.6487002525
C   C480      1.0  0.34500  0.55200  0.91924  1.0000 0.6487002525
C   C481      1.0  0.70010  0.48580  0.83787  1.0000 0.5619891984
C   C482      1.0  0.20010  0.51420  0.66213  1.0000 0.5619891984
C   C483      1.0  0.29990  0.01420  0.33787  1.0000 0.5619891984
C   C484      1.0  0.79990  0.98580  0.16213  1.0000 0.5619891984
C   C485      1.0  0.29990  0.51420  0.16213  1.0000 0.5619891984
C   C486      1.0  0.79990  0.48580  0.33787  1.0000 0.5619891984
C   C487      1.0  0.70010  0.98580  0.66213  1.0000 0.5619891984
C   C488      1.0  0.20010  0.01420  0.83787  1.0000 0.5619891984
C   C489      1.0  0.62820  0.53490  0.79869  1.0000 0.0600962453
C   C490      1.0  0.12820  0.46510  0.70131  1.0000 0.0600962453
C   C491      1.0  0.37180  0.96510  0.29869  1.0000 0.0600962453
C   C492      1.0  0.87180  0.03490  0.20131  1.0000 0.0600962453
C   C493      1.0  0.37180  0.46510  0.20131  1.0000 0.0600962453
C   C494      1.0  0.87180  0.53490  0.29869  1.0000 0.0600962453
C   C495      1.0  0.62820  0.03490  0.70131  1.0000 0.0600962453
C   C496      1.0  0.12820  0.96510  0.79869  1.0000 0.0600962453
C   C497      1.0  0.64980  0.47610  0.81381  1.0000 -0.0426068043
C   C498      1.0  0.14980  0.52390  0.68619  1.0000 -0.0426068043
C   C499      1.0  0.35020  0.02390  0.31381  1.0000 -0.0426068043
C   C500      1.0  0.85020  0.97610  0.18619  1.0000 -0.0426068043
C   C501      1.0  0.35020  0.52390  0.18619  1.0000 -0.0426068043
C   C502      1.0  0.85020  0.47610  0.31381  1.0000 -0.0426068043
C   C503      1.0  0.64980  0.97610  0.68619  1.0000 -0.0426068043
C   C504      1.0  0.14980  0.02390  0.81381  1.0000 -0.0426068043
C   C505      1.0  0.62440  0.41080  0.80560  1.0000 -0.0502305381
C   C506      1.0  0.12440  0.58920  0.69440  1.0000 -0.0502305381
C   C507      1.0  0.37560  0.08920  0.30560  1.0000 -0.0502305381
C   C508      1.0  0.87560  0.91080  0.19440  1.0000 -0.0502305381
C   C509      1.0  0.37560  0.58920  0.19440  1.0000 -0.0502305381
C   C510      1.0  0.87560  0.41080  0.30560  1.0000 -0.0502305381
C   C511      1.0  0.62440  0.91080  0.69440  1.0000 -0.0502305381
C   C512      1.0  0.12440  0.08920  0.80560  1.0000 -0.0502305381
C   C513      1.0  0.58220  0.40370  0.78233  1.0000 -0.1779056382
C   C514      1.0  0.08220  0.59630  0.71767  1.0000 -0.1779056382
C   C515      1.0  0.41780  0.09630  0.28233  1.0000 -0.1779056382
C   C516      1.0  0.91780  0.90370  0.21767  1.0000 -0.1779056382
C   C517      1.0  0.41780  0.59630  0.21767  1.0000 -0.1779056382
C   C518      1.0  0.91780  0.40370  0.28233  1.0000 -0.1779056382
C   C519      1.0  0.58220  0.90370  0.71767  1.0000 -0.1779056382
C   C520      1.0  0.08220  0.09630  0.78233  1.0000 -0.1779056382
C   C521      1.0  0.56470  0.46510  0.76795  1.0000 0.148976464
C   C522      1.0  0.06470  0.53490  0.73205  1.0000 0.148976464
C   C523      1.0  0.43530  0.03490  0.26795  1.0000 0.148976464
C   C524      1.0  0.93530  0.96510  0.23205  1.0000 0.148976464
C   C525      1.0  0.43530  0.53490  0.23205  1.0000 0.148976464
C   C526      1.0  0.93530  0.46510  0.26795  1.0000 0.148976464
C   C527      1.0  0.56470  0.96510  0.73205  1.0000 0.148976464
C   C528      1.0  0.06470  0.03490  0.76795  1.0000 0.148976464
C   C529      1.0  0.52170  0.46420  0.74269  1.0000 0.1584486319
C   C530      1.0  0.02170  0.53580  0.75731  1.0000 0.1584486319
C   C531      1.0  0.47830  0.03580  0.24269  1.0000 0.1584486319
C   C532      1.0  0.97830  0.96420  0.25731  1.0000 0.1584486319
C   C533      1.0  0.47830  0.53580  0.25731  1.0000 0.1584486319
C   C534      1.0  0.97830  0.46420  0.24269  1.0000 0.1584486319
C   C535      1.0  0.52170  0.96420  0.75731  1.0000 0.1584486319
C   C536      1.0  0.02170  0.03580  0.74269  1.0000 0.1584486319
C   C537      1.0  0.50370  0.40320  0.72822  1.0000 -0.1779056382
C   C538      1.0  0.00370  0.59680  0.77178  1.0000 -0.1779056382
C   C539      1.0  0.49630  0.09680  0.22822  1.0000 -0.1779056382
C   C540      1.0  0.99630  0.90320  0.27178  1.0000 -0.1779056382
C   C541      1.0  0.49630  0.59680  0.27178  1.0000 -0.1779056382
C   C542      1.0  0.99630  0.40320  0.22822  1.0000 -0.1779056382
C   C543      1.0  0.50370  0.90320  0.77178  1.0000 -0.1779056382
C   C544      1.0  0.00370  0.09680  0.72822  1.0000 -0.1779056382
C   C545      1.0  0.46520  0.40730  0.70376  1.0000 -0.0502305381
C   C546      1.0  0.96520  0.59270  0.79624  1.0000 -0.0502305381
C   C547      1.0  0.53480  0.09270  0.20376  1.0000 -0.0502305381
C   C548      1.0  0.03480  0.90730  0.29624  1.0000 -0.0502305381
C   C549      1.0  0.53480  0.59270  0.29624  1.0000 -0.0502305381
C   C550      1.0  0.03480  0.40730  0.20376  1.0000 -0.0502305381
C   C551      1.0  0.46520  0.90730  0.79624  1.0000 -0.0502305381
C   C552      1.0  0.96520  0.09270  0.70376  1.0000 -0.0502305381
C   C553      1.0  0.44370  0.47380  0.69501  1.0000 -0.0502305381
C   C554      1.0  0.94370  0.52620  0.80499  1.0000 -0.0502305381
C   C555      1.0  0.55630  0.02620  0.19501  1.0000 -0.0502305381
C   C556      1.0  0.05630  0.97380  0.30499  1.0000 -0.0502305381
C   C557      1.0  0.55630  0.52620  0.30499  1.0000 -0.0502305381
C   C558      1.0  0.05630  0.47380  0.19501  1.0000 -0.0502305381
C   C559      1.0  0.44370  0.97380  0.80499  1.0000 -0.0502305381
C   C560      1.0  0.94370  0.02620  0.69501  1.0000 -0.0502305381
C   C561      1.0  0.46230  0.53370  0.71047  1.0000 0.0600962453
C   C562      1.0  0.96230  0.46630  0.78953  1.0000 0.0600962453
C   C563      1.0  0.53770  0.96630  0.21047  1.0000 0.0600962453
C   C564      1.0  0.03770  0.03370  0.28953  1.0000 0.0600962453
C   C565      1.0  0.53770  0.46630  0.28953  1.0000 0.0600962453
C   C566      1.0  0.03770  0.53370  0.21047  1.0000 0.0600962453
C   C567      1.0  0.46230  0.03370  0.78953  1.0000 0.0600962453
C   C568      1.0  0.96230  0.96630  0.71047  1.0000 0.0600962453
C   C569      1.0  0.40080  0.48340  0.66932  1.0000 0.5667576445
C   C570      1.0  0.90080  0.51660  0.83068  1.0000 0.5667576445
C   C571      1.0  0.59920  0.01660  0.16932  1.0000 0.5667576445
C   C572      1.0  0.09920  0.98340  0.33068  1.0000 0.5667576445
C   C573      1.0  0.59920  0.51660  0.33068  1.0000 0.5667576445
C   C574      1.0  0.09920  0.48340  0.16932  1.0000 0.5667576445
C   C575      1.0  0.40080  0.98340  0.83068  1.0000 0.5667576445
C   C576      1.0  0.90080  0.01660  0.66932  1.0000 0.5667576445
N   N1        1.0  0.54560  0.37190  0.21837  1.0000 -0.2314890335
N   N2        1.0  0.04560  0.62810  0.28163  1.0000 -0.2314890335
N   N3        1.0  0.45440  0.12810  0.71837  1.0000 -0.2314890335
N   N4        1.0  0.95440  0.87190  0.78163  1.0000 -0.2314890335
N   N5        1.0  0.45440  0.62810  0.78163  1.0000 -0.2314890335
N   N6        1.0  0.95440  0.37190  0.71837  1.0000 -0.2314890335
N   N7        1.0  0.54560  0.87190  0.28163  1.0000 -0.2314890335
N   N8        1.0  0.04560  0.12810  0.21837  1.0000 -0.2314890335
N   N9        1.0  0.52240  0.30400  0.26579  1.0000 -0.2476142096
N   N10       1.0  0.02240  0.69600  0.23421  1.0000 -0.2476142096
N   N11       1.0  0.47760  0.19600  0.76579  1.0000 -0.2476142096
N   N12       1.0  0.97760  0.80400  0.73421  1.0000 -0.2476142096
N   N13       1.0  0.47760  0.69600  0.73421  1.0000 -0.2476142096
N   N14       1.0  0.97760  0.30400  0.76579  1.0000 -0.2476142096
N   N15       1.0  0.52240  0.80400  0.23421  1.0000 -0.2476142096
N   N16       1.0  0.02240  0.19600  0.26579  1.0000 -0.2476142096
N   N17       1.0  0.87480  0.13420  0.27360  1.0000 -0.2413925263
N   N18       1.0  0.37480  0.86580  0.22640  1.0000 -0.2413925263
N   N19       1.0  0.12520  0.36580  0.77360  1.0000 -0.2413925263
N   N20       1.0  0.62520  0.63420  0.72640  1.0000 -0.2413925263
N   N21       1.0  0.12520  0.86580  0.72640  1.0000 -0.2413925263
N   N22       1.0  0.62520  0.13420  0.77360  1.0000 -0.2413925263
N   N23       1.0  0.87480  0.63420  0.22640  1.0000 -0.2413925263
N   N24       1.0  0.37480  0.36580  0.27360  1.0000 -0.2413925263
N   N25       1.0  0.90170  0.20110  0.22660  1.0000 -0.2413925263
N   N26       1.0  0.40170  0.79890  0.27340  1.0000 -0.2413925263
N   N27       1.0  0.09830  0.29890  0.72660  1.0000 -0.2413925263
N   N28       1.0  0.59830  0.70110  0.77340  1.0000 -0.2413925263
N   N29       1.0  0.09830  0.79890  0.77340  1.0000 -0.2413925263
N   N30       1.0  0.59830  0.20110  0.72660  1.0000 -0.2413925263
N   N31       1.0  0.90170  0.70110  0.27340  1.0000 -0.2413925263
N   N32       1.0  0.40170  0.29890  0.22660  1.0000 -0.2413925263
N   N33       1.0  0.81430  0.79540  0.01477  1.0000 -0.2043409841
N   N34       1.0  0.31430  0.20460  0.48523  1.0000 -0.2043409841
N   N35       1.0  0.18570  0.70460  0.51477  1.0000 -0.2043409841
N   N36       1.0  0.68570  0.29540  0.98523  1.0000 -0.2043409841
N   N37       1.0  0.18570  0.20460  0.98523  1.0000 -0.2043409841
N   N38       1.0  0.68570  0.79540  0.51477  1.0000 -0.2043409841
N   N39       1.0  0.81430  0.29540  0.48523  1.0000 -0.2043409841
N   N40       1.0  0.31430  0.70460  0.01477  1.0000 -0.2043409841
N   N41       1.0  0.81800  0.71130  0.97343  1.0000 -0.2095570343
N   N42       1.0  0.31800  0.28870  0.52657  1.0000 -0.2095570343
N   N43       1.0  0.18200  0.78870  0.47343  1.0000 -0.2095570343
N   N44       1.0  0.68200  0.21130  0.02657  1.0000 -0.2095570343
N   N45       1.0  0.18200  0.28870  0.02657  1.0000 -0.2095570343
N   N46       1.0  0.68200  0.71130  0.47343  1.0000 -0.2095570343
N   N47       1.0  0.81800  0.21130  0.52657  1.0000 -0.2095570343
N   N48       1.0  0.31800  0.78870  0.97343  1.0000 -0.2095570343
N   N49       1.0  0.96830  0.78760  0.02208  1.0000 -0.2095570343
N   N50       1.0  0.46830  0.21240  0.47792  1.0000 -0.2095570343
N   N51       1.0  0.03170  0.71240  0.52208  1.0000 -0.2095570343
N   N52       1.0  0.53170  0.28760  0.97792  1.0000 -0.2095570343
N   N53       1.0  0.03170  0.21240  0.97792  1.0000 -0.2095570343
N   N54       1.0  0.53170  0.78760  0.52208  1.0000 -0.2095570343
N   N55       1.0  0.96830  0.28760  0.47792  1.0000 -0.2095570343
N   N56       1.0  0.46830  0.71240  0.02208  1.0000 -0.2095570343
N   N57       1.0  0.91280  0.83200  0.97632  1.0000 -0.2095570343
N   N58       1.0  0.41280  0.16800  0.52368  1.0000 -0.2095570343
N   N59       1.0  0.08720  0.66800  0.47632  1.0000 -0.2095570343
N   N60       1.0  0.58720  0.33200  0.02368  1.0000 -0.2095570343
N   N61       1.0  0.08720  0.16800  0.02368  1.0000 -0.2095570343
N   N62       1.0  0.58720  0.83200  0.47632  1.0000 -0.2095570343
N   N63       1.0  0.91280  0.33200  0.52368  1.0000 -0.2095570343
N   N64       1.0  0.41280  0.66800  0.97632  1.0000 -0.2095570343
N   N65       1.0  0.96980  0.69080  0.98162  1.0000 -0.2095570343
N   N66       1.0  0.46980  0.30920  0.51838  1.0000 -0.2095570343
N   N67       1.0  0.03020  0.80920  0.48162  1.0000 -0.2095570343
N   N68       1.0  0.53020  0.19080  0.01838  1.0000 -0.2095570343
N   N69       1.0  0.03020  0.30920  0.01838  1.0000 -0.2095570343
N   N70       1.0  0.53020  0.69080  0.48162  1.0000 -0.2095570343
N   N71       1.0  0.96980  0.19080  0.51838  1.0000 -0.2095570343
N   N72       1.0  0.46980  0.80920  0.98162  1.0000 -0.2095570343
N   N73       1.0  0.88290  0.66470  0.02247  1.0000 -0.2095570343
N   N74       1.0  0.38290  0.33530  0.47753  1.0000 -0.2095570343
N   N75       1.0  0.11710  0.83530  0.52247  1.0000 -0.2095570343
N   N76       1.0  0.61710  0.16470  0.97753  1.0000 -0.2095570343
N   N77       1.0  0.11710  0.33530  0.97753  1.0000 -0.2095570343
N   N78       1.0  0.61710  0.66470  0.52247  1.0000 -0.2095570343
N   N79       1.0  0.88290  0.16470  0.47753  1.0000 -0.2095570343
N   N80       1.0  0.38290  0.83530  0.02247  1.0000 -0.2095570343
N   N81       1.0  0.50180  0.52840  0.73325  1.0000 -0.2413925263
N   N82       1.0  0.00180  0.47160  0.76675  1.0000 -0.2413925263
N   N83       1.0  0.49820  0.97160  0.23325  1.0000 -0.2413925263
N   N84       1.0  0.99820  0.02840  0.26675  1.0000 -0.2413925263
N   N85       1.0  0.49820  0.47160  0.26675  1.0000 -0.2413925263
N   N86       1.0  0.99820  0.52840  0.23325  1.0000 -0.2413925263
N   N87       1.0  0.50180  0.02840  0.76675  1.0000 -0.2413925263
N   N88       1.0  0.00180  0.97160  0.73325  1.0000 -0.2413925263
N   N89       1.0  0.58590  0.53060  0.77661  1.0000 -0.2413925263
N   N90       1.0  0.08590  0.46940  0.72339  1.0000 -0.2413925263
N   N91       1.0  0.41410  0.96940  0.27661  1.0000 -0.2413925263
N   N92       1.0  0.91410  0.03060  0.22339  1.0000 -0.2413925263
N   N93       1.0  0.41410  0.46940  0.22339  1.0000 -0.2413925263
N   N94       1.0  0.91410  0.53060  0.27661  1.0000 -0.2413925263
N   N95       1.0  0.58590  0.03060  0.72339  1.0000 -0.2413925263
N   N96       1.0  0.08590  0.96940  0.77661  1.0000 -0.2413925263
Cl  Cl1       1.0  0.22515  0.99430  0.00658  1.0000 1.2586226119
Cl  Cl2       1.0  0.72515  0.00570  0.49342  1.0000 1.2586226119
Cl  Cl3       1.0  0.77485  0.50570  0.50658  1.0000 1.2586226119
Cl  Cl4       1.0  0.27485  0.49430  0.99342  1.0000 1.2586226119
Cl  Cl5       1.0  0.77485  0.00570  0.99342  1.0000 1.2586226119
Cl  Cl6       1.0  0.27485  0.99430  0.50658  1.0000 1.2586226119
Cl  Cl7       1.0  0.22515  0.49430  0.49342  1.0000 1.2586226119
Cl  Cl8       1.0  0.72515  0.50570  0.00658  1.0000 1.2586226119
O   O1        1.0  0.86060  0.36810  0.15516  1.0000 -0.6824832804
O   O2        1.0  0.36060  0.63190  0.34484  1.0000 -0.6824832804
O   O3        1.0  0.13940  0.13190  0.65516  1.0000 -0.6824832804
O   O4        1.0  0.63940  0.86810  0.84484  1.0000 -0.6824832804
O   O5        1.0  0.13940  0.63190  0.84484  1.0000 -0.6824832804
O   O6        1.0  0.63940  0.36810  0.65516  1.0000 -0.6824832804
O   O7        1.0  0.86060  0.86810  0.34484  1.0000 -0.6824832804
O   O8        1.0  0.36060  0.13190  0.15516  1.0000 -0.6824832804
O   O9        1.0  0.94590  0.28690  0.15085  1.0000 -0.5273916768
O   O10       1.0  0.44590  0.71310  0.34915  1.0000 -0.5273916768
O   O11       1.0  0.05410  0.21310  0.65085  1.0000 -0.5273916768
O   O12       1.0  0.55410  0.78690  0.84915  1.0000 -0.5273916768
O   O13       1.0  0.05410  0.71310  0.84915  1.0000 -0.5273916768
O   O14       1.0  0.55410  0.28690  0.65085  1.0000 -0.5273916768
O   O15       1.0  0.94590  0.78690  0.34915  1.0000 -0.5273916768
O   O16       1.0  0.44590  0.21310  0.15085  1.0000 -0.5273916768
O   O17       1.0  0.73600  0.09460  0.35332  1.0000 -0.7201685356
O   O18       1.0  0.23600  0.90540  0.14668  1.0000 -0.7201685356
O   O19       1.0  0.26400  0.40540  0.85332  1.0000 -0.7201685356
O   O20       1.0  0.76400  0.59460  0.64668  1.0000 -0.7201685356
O   O21       1.0  0.26400  0.90540  0.64668  1.0000 -0.7201685356
O   O22       1.0  0.76400  0.09460  0.85332  1.0000 -0.7201685356
O   O23       1.0  0.73600  0.59460  0.14668  1.0000 -0.7201685356
O   O24       1.0  0.23600  0.40540  0.35332  1.0000 -0.7201685356
O   O25       1.0  0.82290  0.01640  0.34360  1.0000 -0.6517897911
O   O26       1.0  0.32290  0.98360  0.15640  1.0000 -0.6517897911
O   O27       1.0  0.17710  0.48360  0.84360  1.0000 -0.6517897911
O   O28       1.0  0.67710  0.51640  0.65640  1.0000 -0.6517897911
O   O29       1.0  0.17710  0.98360  0.65640  1.0000 -0.6517897911
O   O30       1.0  0.67710  0.01640  0.84360  1.0000 -0.6517897911
O   O31       1.0  0.82290  0.51640  0.15640  1.0000 -0.6517897911
O   O32       1.0  0.32290  0.48360  0.34360  1.0000 -0.6517897911
O   O33       1.0  0.69610  0.43540  0.14438  1.0000 -0.6887456076
O   O34       1.0  0.19610  0.56460  0.35562  1.0000 -0.6887456076
O   O35       1.0  0.30390  0.06460  0.64438  1.0000 -0.6887456076
O   O36       1.0  0.80390  0.93540  0.85562  1.0000 -0.6887456076
O   O37       1.0  0.30390  0.56460  0.85562  1.0000 -0.6887456076
O   O38       1.0  0.80390  0.43540  0.64438  1.0000 -0.6887456076
O   O39       1.0  0.69610  0.93540  0.35562  1.0000 -0.6887456076
O   O40       1.0  0.19610  0.06460  0.14438  1.0000 -0.6887456076
O   O41       1.0  0.60060  0.50300  0.15193  1.0000 -0.6517897911
O   O42       1.0  0.10060  0.49700  0.34807  1.0000 -0.6517897911
O   O43       1.0  0.39940  0.99700  0.65193  1.0000 -0.6517897911
O   O44       1.0  0.89940  0.00300  0.84807  1.0000 -0.6517897911
O   O45       1.0  0.39940  0.49700  0.84807  1.0000 -0.6517897911
O   O46       1.0  0.89940  0.50300  0.65193  1.0000 -0.6517897911
O   O47       1.0  0.60060  0.00300  0.34807  1.0000 -0.6517897911
O   O48       1.0  0.10060  0.99700  0.15193  1.0000 -0.6517897911
O   O49       1.0  0.59310  0.15810  0.34089  1.0000 -0.6669708984
O   O50       1.0  0.09310  0.84190  0.15911  1.0000 -0.6669708984
O   O51       1.0  0.40690  0.34190  0.84089  1.0000 -0.6669708984
O   O52       1.0  0.90690  0.65810  0.65911  1.0000 -0.6669708984
O   O53       1.0  0.40690  0.84190  0.65911  1.0000 -0.6669708984
O   O54       1.0  0.90690  0.15810  0.84089  1.0000 -0.6669708984
O   O55       1.0  0.59310  0.65810  0.15911  1.0000 -0.6669708984
O   O56       1.0  0.09310  0.34190  0.34089  1.0000 -0.6669708984
O   O57       1.0  0.48950  0.21380  0.34255  1.0000 -0.5497965561
O   O58       1.0  0.98950  0.78620  0.15745  1.0000 -0.5497965561
O   O59       1.0  0.51050  0.28620  0.84255  1.0000 -0.5497965561
O   O60       1.0  0.01050  0.71380  0.65745  1.0000 -0.5497965561
O   O61       1.0  0.51050  0.78620  0.65745  1.0000 -0.5497965561
O   O62       1.0  0.01050  0.21380  0.84255  1.0000 -0.5497965561
O   O63       1.0  0.48950  0.71380  0.15745  1.0000 -0.5497965561
O   O64       1.0  0.98950  0.28620  0.34255  1.0000 -0.5497965561
O   O65       1.0  0.79690  0.52860  0.09744  1.0000 -0.6824832804
O   O66       1.0  0.29690  0.47140  0.40256  1.0000 -0.6824832804
O   O67       1.0  0.20310  0.97140  0.59744  1.0000 -0.6824832804
O   O68       1.0  0.70310  0.02860  0.90256  1.0000 -0.6824832804
O   O69       1.0  0.20310  0.47140  0.90256  1.0000 -0.6824832804
O   O70       1.0  0.70310  0.52860  0.59744  1.0000 -0.6824832804
O   O71       1.0  0.79690  0.02860  0.40256  1.0000 -0.6824832804
O   O72       1.0  0.29690  0.97140  0.09744  1.0000 -0.6824832804
O   O73       1.0  0.73400  0.62730  0.08758  1.0000 -0.6517897911
O   O74       1.0  0.23400  0.37270  0.41242  1.0000 -0.6517897911
O   O75       1.0  0.26600  0.87270  0.58758  1.0000 -0.6517897911
O   O76       1.0  0.76600  0.12730  0.91242  1.0000 -0.6550122844
O   O77       1.0  0.26600  0.37270  0.91242  1.0000 -0.6517897911
O   O78       1.0  0.76600  0.62730  0.58758  1.0000 -0.6517897911
O   O79       1.0  0.73400  0.12730  0.41242  1.0000 -0.6550122844
O   O80       1.0  0.23400  0.87270  0.08758  1.0000 -0.6517897911
O   O81       1.0  0.13620  0.62110  0.91448  1.0000 -0.6824832804
O   O82       1.0  0.63620  0.37890  0.58552  1.0000 -0.6824832804
O   O83       1.0  0.86380  0.87890  0.41448  1.0000 -0.6824832804
O   O84       1.0  0.36380  0.12110  0.08552  1.0000 -0.6824832804
O   O85       1.0  0.86380  0.37890  0.08552  1.0000 -0.6824832804
O   O86       1.0  0.36380  0.62110  0.41448  1.0000 -0.6824832804
O   O87       1.0  0.13620  0.12110  0.58552  1.0000 -0.6824832804
O   O88       1.0  0.63620  0.87890  0.91448  1.0000 -0.6824832804
O   O89       1.0  0.10650  0.73570  0.91476  1.0000 -0.5200834172
O   O90       1.0  0.60650  0.26430  0.58524  1.0000 -0.5200834172
O   O91       1.0  0.89350  0.76430  0.41476  1.0000 -0.5200834172
O   O92       1.0  0.39350  0.23570  0.08524  1.0000 -0.5200834172
O   O93       1.0  0.89350  0.26430  0.08524  1.0000 -0.5200834172
O   O94       1.0  0.39350  0.73570  0.41476  1.0000 -0.5200834172
O   O95       1.0  0.10650  0.23570  0.58524  1.0000 -0.5200834172
O   O96       1.0  0.60650  0.76430  0.91476  1.0000 -0.5200834172
O   O97       1.0  0.05780  0.69530  0.09063  1.0000 -0.393162732
O   O98       1.0  0.55780  0.30470  0.40937  1.0000 -0.393162732
O   O99       1.0  0.94220  0.80470  0.59063  1.0000 -0.393162732
O   O100      1.0  0.44220  0.19530  0.90937  1.0000 -0.393162732
O   O101      1.0  0.94220  0.30470  0.90937  1.0000 -0.393162732
O   O102      1.0  0.44220  0.69530  0.59063  1.0000 -0.393162732
O   O103      1.0  0.05780  0.19530  0.40937  1.0000 -0.393162732
O   O104      1.0  0.55780  0.80470  0.09063  1.0000 -0.393162732
O   O105      1.0  0.11330  0.79620  0.10211  1.0000 -0.6517897911
O   O106      1.0  0.61330  0.20380  0.39789  1.0000 -0.6517897911
O   O107      1.0  0.88670  0.70380  0.60211  1.0000 -0.6517897911
O   O108      1.0  0.38670  0.29620  0.89789  1.0000 -0.6517897911
O   O109      1.0  0.88670  0.20380  0.89789  1.0000 -0.6517897911
O   O110      1.0  0.38670  0.79620  0.60211  1.0000 -0.6517897911
O   O111      1.0  0.11330  0.29620  0.39789  1.0000 -0.6517897911
O   O112      1.0  0.61330  0.70380  0.10211  1.0000 -0.6517897911
O   O113      1.0  0.86520  0.00520  0.90812  1.0000 -0.7043258296
O   O114      1.0  0.36520  0.99480  0.59188  1.0000 -0.7043258296
O   O115      1.0  0.13480  0.49480  0.40812  1.0000 -0.7043258296
O   O116      1.0  0.63480  0.50520  0.09188  1.0000 -0.7043258296
O   O117      1.0  0.13480  0.99480  0.09188  1.0000 -0.7043258296
O   O118      1.0  0.63480  0.00520  0.40812  1.0000 -0.7043258296
O   O119      1.0  0.86520  0.50520  0.59188  1.0000 -0.7043258296
O   O120      1.0  0.36520  0.49480  0.90812  1.0000 -0.7043258296
O   O121      1.0  0.79120  0.91210  0.91291  1.0000 -0.6288151688
O   O122      1.0  0.29120  0.08790  0.58709  1.0000 -0.6288151688
O   O123      1.0  0.20880  0.58790  0.41291  1.0000 -0.6288151688
O   O124      1.0  0.70880  0.41210  0.08709  1.0000 -0.6288151688
O   O125      1.0  0.20880  0.08790  0.08709  1.0000 -0.6288151688
O   O126      1.0  0.70880  0.91210  0.41291  1.0000 -0.6288151688
O   O127      1.0  0.79120  0.41210  0.58709  1.0000 -0.6288151688
O   O128      1.0  0.29120  0.58790  0.91291  1.0000 -0.6288151688
O   O129      1.0  0.83540  0.94220  0.07591  1.0000 -0.5497965561
O   O130      1.0  0.33540  0.05780  0.42409  1.0000 -0.5497965561
O   O131      1.0  0.16460  0.55780  0.57591  1.0000 -0.5497965561
O   O132      1.0  0.66460  0.44220  0.92409  1.0000 -0.5497965561
O   O133      1.0  0.16460  0.05780  0.92409  1.0000 -0.5497965561
O   O134      1.0  0.66460  0.94220  0.57591  1.0000 -0.5497965561
O   O135      1.0  0.83540  0.44220  0.42409  1.0000 -0.5497965561
O   O136      1.0  0.33540  0.55780  0.07591  1.0000 -0.5497965561
O   O137      1.0  0.71600  0.94530  0.08265  1.0000 -0.6416519033
O   O138      1.0  0.21600  0.05470  0.41735  1.0000 -0.6416519033
O   O139      1.0  0.28400  0.55470  0.58265  1.0000 -0.6416519033
O   O140      1.0  0.78400  0.44530  0.91735  1.0000 -0.6416519033
O   O141      1.0  0.28400  0.05470  0.91735  1.0000 -0.6416519033
O   O142      1.0  0.78400  0.94530  0.58265  1.0000 -0.6416519033
O   O143      1.0  0.71600  0.44530  0.41735  1.0000 -0.6416519033
O   O144      1.0  0.21600  0.55470  0.08265  1.0000 -0.6416519033
O   O145      1.0  0.84780  0.58000  0.90651  1.0000 -0.6288151688
O   O146      1.0  0.34780  0.42000  0.59349  1.0000 -0.6288151688
O   O147      1.0  0.15220  0.92000  0.40651  1.0000 -0.6288151688
O   O148      1.0  0.65220  0.08000  0.09349  1.0000 -0.6288151688
O   O149      1.0  0.15220  0.42000  0.09349  1.0000 -0.6288151688
O   O150      1.0  0.65220  0.58000  0.40651  1.0000 -0.6288151688
O   O151      1.0  0.84780  0.08000  0.59349  1.0000 -0.6288151688
O   O152      1.0  0.34780  0.92000  0.90651  1.0000 -0.6288151688
O   O153      1.0  0.73360  0.58370  0.89549  1.0000 -0.5787241357
O   O154      1.0  0.23360  0.41630  0.60451  1.0000 -0.5787241357
O   O155      1.0  0.26640  0.91630  0.39549  1.0000 -0.5787241357
O   O156      1.0  0.76640  0.08370  0.10451  1.0000 -0.5787241357
O   O157      1.0  0.26640  0.41630  0.10451  1.0000 -0.5787241357
O   O158      1.0  0.76640  0.58370  0.39549  1.0000 -0.5787241357
O   O159      1.0  0.73360  0.08370  0.60451  1.0000 -0.5787241357
O   O160      1.0  0.23360  0.91630  0.89549  1.0000 -0.5787241357
O   O161      1.0  0.70320  0.43800  0.85581  1.0000 -0.6129244762
O   O162      1.0  0.20320  0.56200  0.64419  1.0000 -0.6129244762
O   O163      1.0  0.29680  0.06200  0.35581  1.0000 -0.6129244762
O   O164      1.0  0.79680  0.93800  0.14419  1.0000 -0.6129244762
O   O165      1.0  0.29680  0.56200  0.14419  1.0000 -0.6129244762
O   O166      1.0  0.79680  0.43800  0.35581  1.0000 -0.6129244762
O   O167      1.0  0.70320  0.93800  0.64419  1.0000 -0.6129244762
O   O168      1.0  0.20320  0.06200  0.85581  1.0000 -0.6129244762
O   O169      1.0  0.74000  0.53860  0.83829  1.0000 -0.5872349487
O   O170      1.0  0.24000  0.46140  0.66171  1.0000 -0.5872349487
O   O171      1.0  0.26000  0.96140  0.33829  1.0000 -0.5872349487
O   O172      1.0  0.76000  0.03860  0.16171  1.0000 -0.5872349487
O   O173      1.0  0.26000  0.46140  0.16171  1.0000 -0.5872349487
O   O174      1.0  0.76000  0.53860  0.33829  1.0000 -0.5872349487
O   O175      1.0  0.74000  0.03860  0.66171  1.0000 -0.5872349487
O   O176      1.0  0.24000  0.96140  0.83829  1.0000 -0.5872349487
O   O177      1.0  0.39200  0.43490  0.65236  1.0000 -0.5714456187
O   O178      1.0  0.89200  0.56510  0.84764  1.0000 -0.5714456187
O   O179      1.0  0.60800  0.06510  0.15236  1.0000 -0.5714456187
O   O180      1.0  0.10800  0.93490  0.34764  1.0000 -0.5714456187
O   O181      1.0  0.60800  0.56510  0.34764  1.0000 -0.5714456187
O   O182      1.0  0.10800  0.43490  0.15236  1.0000 -0.5714456187
O   O183      1.0  0.39200  0.93490  0.84764  1.0000 -0.5714456187
O   O184      1.0  0.89200  0.06510  0.65236  1.0000 -0.5714456187
O   O185      1.0  0.37450  0.54510  0.66515  1.0000 -0.6288151688
O   O186      1.0  0.87450  0.45490  0.83485  1.0000 -0.6288151688
O   O187      1.0  0.62550  0.95490  0.16515  1.0000 -0.6288151688
O   O188      1.0  0.12550  0.04510  0.33485  1.0000 -0.6288151688
O   O189      1.0  0.62550  0.45490  0.33485  1.0000 -0.6288151688
O   O190      1.0  0.12550  0.54510  0.16515  1.0000 -0.6288151688
O   O191      1.0  0.37450  0.04510  0.83485  1.0000 -0.6288151688
O   O192      1.0  0.87450  0.95490  0.66515  1.0000 -0.6288151688
O   O193      1.0  0.51530  0.58710  0.11117  1.0000 -0.7726715403
O   O194      1.0  0.01530  0.41290  0.38883  1.0000 -0.7726715403
O   O195      1.0  0.48470  0.91290  0.61117  1.0000 -0.7726715403
O   O196      1.0  0.98470  0.08710  0.88883  1.0000 -0.7726715403
O   O197      1.0  0.48470  0.41290  0.88883  1.0000 -0.7726715403
O   O198      1.0  0.98470  0.58710  0.61117  1.0000 -0.7726715403
O   O199      1.0  0.51530  0.08710  0.38883  1.0000 -0.7726715403
O   O200      1.0  0.01530  0.91290  0.11117  1.0000 -0.7726715403
O   O201      1.0  0.76140  0.30270  0.12062  1.0000 -0.7554540383
O   O202      1.0  0.26140  0.69730  0.37938  1.0000 -0.7554540383
O   O203      1.0  0.23860  0.19730  0.62062  1.0000 -0.7554540383
O   O204      1.0  0.73860  0.80270  0.87938  1.0000 -0.7554540383
O   O205      1.0  0.23860  0.69730  0.87938  1.0000 -0.7554540383
O   O206      1.0  0.73860  0.30270  0.62062  1.0000 -0.7554540383
O   O207      1.0  0.76140  0.80270  0.37938  1.0000 -0.7554540383
O   O208      1.0  0.26140  0.19730  0.12062  1.0000 -0.7554540383
O   O209      1.0  0.93140  0.47440  0.12188  1.0000 -0.7201685356
O   O210      1.0  0.43140  0.52560  0.37812  1.0000 -0.7201685356
O   O211      1.0  0.06860  0.02560  0.62188  1.0000 -0.7201685356
O   O212      1.0  0.56860  0.97440  0.87812  1.0000 -0.7201685356
O   O213      1.0  0.06860  0.52560  0.87812  1.0000 -0.7201685356
O   O214      1.0  0.56860  0.47440  0.62188  1.0000 -0.7201685356
O   O215      1.0  0.93140  0.97440  0.37812  1.0000 -0.7201685356
O   O216      1.0  0.43140  0.02560  0.12188  1.0000 -0.7201685356
O   O217      1.0  0.92830  0.45290  0.89383  1.0000 -0.7496077912
O   O218      1.0  0.42830  0.54710  0.60617  1.0000 -0.7496077912
O   O219      1.0  0.07170  0.04710  0.39383  1.0000 -0.7496077912
O   O220      1.0  0.57170  0.95290  0.10617  1.0000 -0.7496077912
O   O221      1.0  0.07170  0.54710  0.10617  1.0000 -0.7496077912
O   O222      1.0  0.57170  0.45290  0.39383  1.0000 -0.7496077912
O   O223      1.0  0.92830  0.95290  0.60617  1.0000 -0.7496077912
O   O224      1.0  0.42830  0.04710  0.89383  1.0000 -0.7496077912
O   O225      1.0  0.82330  0.35660  0.87307  1.0000 -0.7496077912
O   O226      1.0  0.32330  0.64340  0.62693  1.0000 -0.7496077912
O   O227      1.0  0.17670  0.14340  0.37307  1.0000 -0.7496077912
O   O228      1.0  0.67670  0.85660  0.12693  1.0000 -0.7496077912
O   O229      1.0  0.17670  0.64340  0.12693  1.0000 -0.7496077912
O   O230      1.0  0.67670  0.35660  0.37307  1.0000 -0.7496077912
O   O231      1.0  0.82330  0.85660  0.62693  1.0000 -0.7496077912
O   O232      1.0  0.32330  0.14340  0.87307  1.0000 -0.7496077912
O   O233      1.0  0.27570  0.96020  0.99090  1.0000 -0.4328140961
O   O234      1.0  0.25190  0.06080  0.01457  1.0000 -0.4553459035
O   O235      1.0  0.21060  0.95260  0.03029  1.0000 -0.4728381382
O   O236      1.0  0.15940  0.00560  0.99209  1.0000 -0.4809186058
O   O237      1.0  0.77570  0.03980  0.50910  1.0000 -0.4328140961
O   O238      1.0  0.75190  0.93920  0.48543  1.0000 -0.4553459035
O   O239      1.0  0.71060  0.04740  0.46971  1.0000 -0.4728381382
O   O240      1.0  0.65940  0.99440  0.50791  1.0000 -0.4809186058
O   O241      1.0  0.72430  0.53980  0.49090  1.0000 -0.4328140961
O   O242      1.0  0.74810  0.43920  0.51457  1.0000 -0.4553459035
O   O243      1.0  0.78940  0.54740  0.53029  1.0000 -0.4728381382
O   O244      1.0  0.84060  0.49440  0.49209  1.0000 -0.4809186058
O   O245      1.0  0.22430  0.46020  0.00910  1.0000 -0.4328140961
O   O246      1.0  0.24810  0.56080  0.98543  1.0000 -0.4553459035
O   O247      1.0  0.28940  0.45260  0.96971  1.0000 -0.4728381382
O   O248      1.0  0.34060  0.50560  0.00791  1.0000 -0.4809186058
O   O249      1.0  0.72430  0.03980  0.00910  1.0000 -0.4328140961
O   O250      1.0  0.74810  0.93920  0.98543  1.0000 -0.4553459035
O   O251      1.0  0.78940  0.04740  0.96971  1.0000 -0.4728381382
O   O252      1.0  0.84060  0.99440  0.00791  1.0000 -0.4809186058
O   O253      1.0  0.22430  0.96020  0.49090  1.0000 -0.4328140961
O   O254      1.0  0.24810  0.06080  0.51457  1.0000 -0.4553459035
O   O255      1.0  0.28940  0.95260  0.53029  1.0000 -0.4728381382
O   O256      1.0  0.34060  0.00560  0.49209  1.0000 -0.4809186058
O   O257      1.0  0.27570  0.46020  0.50910  1.0000 -0.4328140961
O   O258      1.0  0.25190  0.56080  0.48543  1.0000 -0.4553459035
O   O259      1.0  0.21060  0.45260  0.46971  1.0000 -0.4728381382
O   O260      1.0  0.15940  0.50560  0.50791  1.0000 -0.4809186058
O   O261      1.0  0.77570  0.53980  0.99090  1.0000 -0.4328140961
O   O262      1.0  0.75190  0.43920  0.01457  1.0000 -0.4553459035
O   O263      1.0  0.71060  0.54740  0.03029  1.0000 -0.4728381382
O   O264      1.0  0.65940  0.49440  0.99209  1.0000 -0.4809186058
