# DDEC6 charges by PACMAN v1.1 (https://github.com/mtap-research/PACMAN-charge/)
data_2012[CeW][nan]3[ION]1
_chemical_formula_sum              "Ce8 H56 W48 C40 N24 O204"
_cell_length_a       12.283
_cell_length_b       21.743
_cell_length_c       22.757
_cell_angle_alpha    90
_cell_angle_beta     91.631
_cell_angle_gamma    90

_symmetry_space_group_name_H-M    "P 1"
_symmetry_Int_Tables_number       1

loop_
  _symmetry_equiv_pos_as_xyz
  'x, y, z'

loop_
  _atom_site_type_symbol
  _atom_site_label
  _atom_site_symmetry_multiplicity
  _atom_site_fract_x
  _atom_site_fract_y
  _atom_site_fract_z
  _atom_site_occupancy
  _atom_site_charge
Ce  Ce1       1.0  0.85323  0.11443  0.91654  1.0000 2.0723019877
Ce  Ce2       1.0  0.14677  0.61443  0.58346  1.0000 2.0723019877
Ce  Ce3       1.0  0.14677  0.88557  0.08346  1.0000 2.0723019877
Ce  Ce4       1.0  0.85323  0.38557  0.41654  1.0000 2.0723019877
Ce  Ce5       1.0  0.36671  0.21126  0.91477  1.0000 2.0423312822
Ce  Ce6       1.0  0.63329  0.71126  0.58523  1.0000 2.0423312822
Ce  Ce7       1.0  0.63329  0.78874  0.08523  1.0000 2.0423312822
Ce  Ce8       1.0  0.36671  0.28874  0.41477  1.0000 2.0423312822
H   H1        1.0  0.87680  0.06770  0.76220  1.0000 0.1392877737
H   H2        1.0  0.12320  0.56770  0.73780  1.0000 0.1392877737
H   H3        1.0  0.12320  0.93230  0.23780  1.0000 0.1392877737
H   H4        1.0  0.87680  0.43230  0.26220  1.0000 0.1392877737
H   H5        1.0  0.79540  0.08210  0.66667  1.0000 0.1599560642
H   H6        1.0  0.20460  0.58210  0.83340  1.0000 0.1599560642
H   H7        1.0  0.20460  0.91790  0.33340  1.0000 0.1599560642
H   H8        1.0  0.79540  0.41790  0.16660  1.0000 0.1599560642
H   H9        1.0  0.54290  0.15360  0.73990  1.0000 0.1501684041
H   H10       1.0  0.45710  0.65360  0.76010  1.0000 0.1501684041
H   H11       1.0  0.45710  0.84640  0.26010  1.0000 0.1501684041
H   H12       1.0  0.54290  0.34640  0.23990  1.0000 0.1501684041
H   H13       1.0  0.36440  0.23720  0.75910  1.0000 0.1392877737
H   H14       1.0  0.63560  0.73720  0.74090  1.0000 0.1392877737
H   H15       1.0  0.63560  0.76280  0.24090  1.0000 0.1392877737
H   H16       1.0  0.36440  0.26280  0.25910  1.0000 0.1392877737
H   H17       1.0  0.27340  0.21810  0.67140  1.0000 0.1501684041
H   H18       1.0  0.72660  0.71810  0.82860  1.0000 0.1501684041
H   H19       1.0  0.72660  0.78190  0.32860  1.0000 0.1501684041
H   H20       1.0  0.27340  0.28190  0.17140  1.0000 0.1501684041
H   H21       1.0  0.01670  0.16680  0.76040  1.0000 0.1392877737
H   H22       1.0  0.98330  0.66680  0.73960  1.0000 0.1392877737
H   H23       1.0  0.98330  0.83320  0.23960  1.0000 0.1392877737
H   H24       1.0  0.01670  0.33320  0.26040  1.0000 0.1392877737
H   H25       1.0  0.18560  0.07180  0.33420  1.0000 0.3031003365
H   H26       1.0  0.28000  0.05010  0.37700  1.0000 0.3120756026
H   H27       1.0  0.30050  0.10300  0.33180  1.0000 0.3330308685
H   H28       1.0  0.22630  0.11470  0.38560  1.0000 0.3151254454
H   H29       1.0  0.81440  0.57180  0.16580  1.0000 0.3031003365
H   H30       1.0  0.72000  0.55010  0.12300  1.0000 0.3151254454
H   H31       1.0  0.69950  0.60300  0.16820  1.0000 0.3330308685
H   H32       1.0  0.77370  0.61470  0.11440  1.0000 0.3151254454
H   H33       1.0  0.81440  0.92820  0.66580  1.0000 0.3031003365
H   H34       1.0  0.72000  0.94990  0.62300  1.0000 0.3120756026
H   H35       1.0  0.69950  0.89700  0.66820  1.0000 0.3330308685
H   H36       1.0  0.77370  0.88530  0.61440  1.0000 0.3151254454
H   H37       1.0  0.18560  0.42820  0.83420  1.0000 0.3031003365
H   H38       1.0  0.28000  0.44990  0.87700  1.0000 0.3120756026
H   H39       1.0  0.30050  0.39700  0.83180  1.0000 0.3330308685
H   H40       1.0  0.22630  0.38530  0.88560  1.0000 0.3151254454
H   H41       1.0  0.99270  0.16620  0.40740  1.0000 0.3120756026
H   H42       1.0  0.02550  0.16800  0.47450  1.0000 0.3120756026
H   H43       1.0  0.10390  0.19560  0.42820  1.0000 0.3431052381
H   H44       1.0  0.99410  0.22890  0.44140  1.0000 0.3469218203
H   H45       1.0  0.00730  0.66620  0.09260  1.0000 0.3120756026
H   H46       1.0  0.97450  0.66800  0.02550  1.0000 0.3120756026
H   H47       1.0  0.89610  0.69560  0.07180  1.0000 0.3431052381
H   H48       1.0  0.00590  0.72890  0.05860  1.0000 0.3469218203
H   H49       1.0  0.00730  0.83380  0.59260  1.0000 0.3120756026
H   H50       1.0  0.97450  0.83200  0.52550  1.0000 0.3120756026
H   H51       1.0  0.89610  0.80440  0.57180  1.0000 0.3431052381
H   H52       1.0  0.00590  0.77110  0.55860  1.0000 0.3469218203
H   H53       1.0  0.99270  0.33380  0.90740  1.0000 0.3120756026
H   H54       1.0  0.02550  0.33200  0.97450  1.0000 0.3120756026
H   H55       1.0  0.10390  0.30440  0.92820  1.0000 0.3431052381
H   H56       1.0  0.99410  0.27110  0.94140  1.0000 0.3469218203
W   W1        1.0  0.68323  0.53414  0.64833  1.0000 2.4496349433
W   W2        1.0  0.31677  0.03414  0.85167  1.0000 2.4496349433
W   W3        1.0  0.31677  0.46586  0.35167  1.0000 2.4496349433
W   W4        1.0  0.68323  0.96586  0.14833  1.0000 2.4496349433
W   W5        1.0  0.75856  0.40329  0.58863  1.0000 2.4220306656
W   W6        1.0  0.24144  0.90329  0.91137  1.0000 2.4220306656
W   W7        1.0  0.24144  0.59671  0.41137  1.0000 2.4220306656
W   W8        1.0  0.75856  0.09671  0.08863  1.0000 2.4251415172
W   W9        1.0  0.94097  0.48721  0.66417  1.0000 2.4496349433
W   W10       1.0  0.05903  0.98721  0.83583  1.0000 2.4496349433
W   W11       1.0  0.05903  0.51279  0.33583  1.0000 2.4496349433
W   W12       1.0  0.94097  0.01279  0.16417  1.0000 2.4496349433
W   W13       1.0  0.00605  0.35692  0.75653  1.0000 2.332881077
W   W14       1.0  0.99395  0.85692  0.74347  1.0000 2.332881077
W   W15       1.0  0.99395  0.64308  0.24347  1.0000 2.332881077
W   W16       1.0  0.00605  0.14308  0.25653  1.0000 2.3352474609
W   W17       1.0  0.80359  0.28147  0.82190  1.0000 2.4107850829
W   W18       1.0  0.19641  0.78147  0.67810  1.0000 2.4107850829
W   W19       1.0  0.19641  0.71853  0.17810  1.0000 2.4107850829
W   W20       1.0  0.80359  0.21853  0.32190  1.0000 2.4107850829
W   W21       1.0  0.82629  0.27134  0.67575  1.0000 2.4220306656
W   W22       1.0  0.17371  0.77134  0.82425  1.0000 2.4220306656
W   W23       1.0  0.17371  0.72866  0.32425  1.0000 2.4220306656
W   W24       1.0  0.82629  0.22866  0.17575  1.0000 2.4220306656
W   W25       1.0  0.54778  0.31948  0.65874  1.0000 2.3813830057
W   W26       1.0  0.45222  0.81948  0.84126  1.0000 2.3813830057
W   W27       1.0  0.45222  0.68052  0.34126  1.0000 2.3813830057
W   W28       1.0  0.54778  0.18052  0.15874  1.0000 2.3813830057
W   W29       1.0  0.52912  0.33342  0.80471  1.0000 2.4023691157
W   W30       1.0  0.47088  0.83342  0.69529  1.0000 2.4023691157
W   W31       1.0  0.47088  0.66658  0.19529  1.0000 2.4023691157
W   W32       1.0  0.52912  0.16658  0.30471  1.0000 2.4023691157
W   W33       1.0  0.46712  0.45432  0.71849  1.0000 2.4023691157
W   W34       1.0  0.53288  0.95432  0.78151  1.0000 2.4023691157
W   W35       1.0  0.53288  0.54568  0.28151  1.0000 2.4023691157
W   W36       1.0  0.46712  0.04568  0.21849  1.0000 2.4023691157
W   W37       1.0  0.65663  0.54480  0.80536  1.0000 2.3813830057
W   W38       1.0  0.34337  0.04480  0.69464  1.0000 2.3813830057
W   W39       1.0  0.34337  0.45520  0.19464  1.0000 2.3813830057
W   W40       1.0  0.65663  0.95520  0.30536  1.0000 2.3813830057
W   W41       1.0  0.92068  0.49903  0.82160  1.0000 2.3674209753
W   W42       1.0  0.07932  0.99903  0.67840  1.0000 2.3674209753
W   W43       1.0  0.07932  0.50097  0.17840  1.0000 2.3674209753
W   W44       1.0  0.92068  0.00097  0.32160  1.0000 2.3674209753
W   W45       1.0  0.72149  0.42114  0.89140  1.0000 2.2389990726
W   W46       1.0  0.27851  0.92114  0.60860  1.0000 2.2216686645
W   W47       1.0  0.27851  0.57886  0.10860  1.0000 2.2216686645
W   W48       1.0  0.72149  0.07886  0.39140  1.0000 2.2389990726
C   C1        1.0  0.80700  0.08780  0.75810  1.0000 0.1392877737
C   C2        1.0  0.19300  0.58780  0.74190  1.0000 0.1392877737
C   C3        1.0  0.19300  0.91220  0.24190  1.0000 0.1392877737
C   C4        1.0  0.80700  0.41220  0.25810  1.0000 0.1392877737
C   C5        1.0  0.76000  0.09500  0.70150  1.0000 0.033789769
C   C6        1.0  0.24000  0.59500  0.79850  1.0000 0.033789769
C   C7        1.0  0.24000  0.90500  0.29850  1.0000 0.033789769
C   C8        1.0  0.76000  0.40500  0.20150  1.0000 0.033789769
C   C9        1.0  0.61600  0.13770  0.74310  1.0000 0.0837255308
C   C10       1.0  0.38400  0.63770  0.75690  1.0000 0.0837255308
C   C11       1.0  0.38400  0.86230  0.25690  1.0000 0.0837255308
C   C12       1.0  0.61600  0.36230  0.24310  1.0000 0.0837255308
C   C13       1.0  0.66100  0.13120  0.80060  1.0000 0.1080983609
C   C14       1.0  0.33900  0.63120  0.69940  1.0000 0.1080983609
C   C15       1.0  0.33900  0.86880  0.19940  1.0000 0.1080983609
C   C16       1.0  0.66100  0.36880  0.30060  1.0000 0.1080983609
C   C17       1.0  0.60500  0.14780  0.85930  1.0000 0.5862745085
C   C18       1.0  0.39500  0.64780  0.64070  1.0000 0.5862745085
C   C19       1.0  0.39500  0.85220  0.14070  1.0000 0.5862745085
C   C20       1.0  0.60500  0.35220  0.35930  1.0000 0.5841658154
C   C21       1.0  0.29400  0.21830  0.75980  1.0000 0.1080983609
C   C22       1.0  0.70600  0.71830  0.74020  1.0000 0.1080983609
C   C23       1.0  0.70600  0.78170  0.24020  1.0000 0.1080983609
C   C24       1.0  0.29400  0.28170  0.25980  1.0000 0.1080983609
C   C25       1.0  0.23800  0.21100  0.70790  1.0000 0.0565760603
C   C26       1.0  0.76200  0.71100  0.79210  1.0000 0.0565760603
C   C27       1.0  0.76200  0.78900  0.29210  1.0000 0.0565760603
C   C28       1.0  0.23800  0.28900  0.20790  1.0000 0.0565760603
C   C29       1.0  0.09100  0.17990  0.75970  1.0000 0.0446694718
C   C30       1.0  0.90900  0.67990  0.74030  1.0000 0.0446694718
C   C31       1.0  0.90900  0.82010  0.24030  1.0000 0.0446694718
C   C32       1.0  0.09100  0.32010  0.25970  1.0000 0.0446694718
C   C33       1.0  0.14900  0.18490  0.80960  1.0000 0.0116593553
C   C34       1.0  0.85100  0.68490  0.69040  1.0000 0.0116593553
C   C35       1.0  0.85100  0.81510  0.19040  1.0000 0.0116593553
C   C36       1.0  0.14900  0.31510  0.30960  1.0000 0.0116593553
C   C37       1.0  0.11400  0.17410  0.86810  1.0000 0.5862745085
C   C38       1.0  0.88600  0.67410  0.63190  1.0000 0.5862745085
C   C39       1.0  0.88600  0.82590  0.13190  1.0000 0.5862745085
C   C40       1.0  0.11400  0.32590  0.36810  1.0000 0.5862745085
N   N1        1.0  0.25880  0.20200  0.80980  1.0000 -0.2635379693
N   N2        1.0  0.74120  0.70200  0.69020  1.0000 -0.2635379693
N   N3        1.0  0.74120  0.79800  0.19020  1.0000 -0.2635379693
N   N4        1.0  0.25880  0.29800  0.30980  1.0000 -0.2635379693
N   N5        1.0  0.13600  0.19300  0.70660  1.0000 -0.0336436069
N   N6        1.0  0.86400  0.69300  0.79340  1.0000 -0.0370255844
N   N7        1.0  0.86400  0.80700  0.29340  1.0000 -0.0370255844
N   N8        1.0  0.13600  0.30700  0.20660  1.0000 -0.0370255844
N   N9        1.0  0.76040  0.10700  0.80530  1.0000 -0.2815239808
N   N10       1.0  0.23960  0.60700  0.69470  1.0000 -0.2815239808
N   N11       1.0  0.23960  0.89300  0.19470  1.0000 -0.2815239808
N   N12       1.0  0.76040  0.39300  0.30530  1.0000 -0.2815239808
N   N13       1.0  0.65800  0.12260  0.69780  1.0000 0.0202010537
N   N14       1.0  0.34200  0.62260  0.80220  1.0000 0.0202010537
N   N15       1.0  0.34200  0.87740  0.30220  1.0000 0.0202010537
N   N16       1.0  0.65800  0.37740  0.19780  1.0000 0.0202010537
N   N17       1.0  0.24800  0.08490  0.35720  1.0000 -0.6899387499
N   N18       1.0  0.75200  0.58490  0.14280  1.0000 -0.6899387499
N   N19       1.0  0.75200  0.91510  0.64280  1.0000 -0.6899387499
N   N20       1.0  0.24800  0.41510  0.85720  1.0000 -0.6899387499
N   N21       1.0  0.02900  0.18970  0.43780  1.0000 -0.6504778898
N   N22       1.0  0.97100  0.68970  0.06220  1.0000 -0.6504778898
N   N23       1.0  0.97100  0.81030  0.56220  1.0000 -0.6504778898
N   N24       1.0  0.02900  0.31030  0.93780  1.0000 -0.6504778898
O   O1        1.0  0.77360  0.45000  0.66830  1.0000 -0.9725268593
O   O2        1.0  0.22640  0.95000  0.83170  1.0000 -0.9725268593
O   O3        1.0  0.22640  0.55000  0.33170  1.0000 -0.9725268593
O   O4        1.0  0.77360  0.05000  0.16830  1.0000 -0.9725268593
O   O5        1.0  0.82260  0.34260  0.74470  1.0000 -0.9056736788
O   O6        1.0  0.17740  0.84260  0.75530  1.0000 -0.9029236795
O   O7        1.0  0.17740  0.65740  0.25530  1.0000 -0.9029236795
O   O8        1.0  0.82260  0.15740  0.24470  1.0000 -0.9029236795
O   O9        1.0  0.60100  0.38470  0.72930  1.0000 -0.9526329002
O   O10       1.0  0.39900  0.88470  0.77070  1.0000 -0.9526329002
O   O11       1.0  0.39900  0.61530  0.27070  1.0000 -0.9526329002
O   O12       1.0  0.60100  0.11530  0.22930  1.0000 -0.9526329002
O   O13       1.0  0.75700  0.45640  0.79640  1.0000 -0.8745810947
O   O14       1.0  0.24300  0.95640  0.70360  1.0000 -0.8754125795
O   O15       1.0  0.24300  0.54360  0.20360  1.0000 -0.8754125795
O   O16       1.0  0.75700  0.04360  0.29640  1.0000 -0.8754125795
O   O17       1.0  0.14020  0.34150  0.76250  1.0000 -0.5517208917
O   O18       1.0  0.85980  0.84150  0.73750  1.0000 -0.5517208917
O   O19       1.0  0.85980  0.65850  0.23750  1.0000 -0.5517208917
O   O20       1.0  0.14020  0.15850  0.26250  1.0000 -0.5556760988
O   O21       1.0  0.81930  0.21860  0.87120  1.0000 -0.830643809
O   O22       1.0  0.18070  0.71860  0.62880  1.0000 -0.830643809
O   O23       1.0  0.18070  0.78140  0.12880  1.0000 -0.830643809
O   O24       1.0  0.81930  0.28140  0.37120  1.0000 -0.830643809
O   O25       1.0  0.85500  0.20500  0.63630  1.0000 -0.6504778898
O   O26       1.0  0.14500  0.70500  0.86370  1.0000 -0.6504778898
O   O27       1.0  0.14500  0.79500  0.36370  1.0000 -0.6504778898
O   O28       1.0  0.85500  0.29500  0.13630  1.0000 -0.6504778898
O   O29       1.0  0.46600  0.27710  0.61340  1.0000 -0.5517208917
O   O30       1.0  0.53400  0.77710  0.88660  1.0000 -0.5517208917
O   O31       1.0  0.53400  0.72290  0.38660  1.0000 -0.5517208917
O   O32       1.0  0.46600  0.22290  0.11340  1.0000 -0.5517208917
O   O33       1.0  0.43350  0.29190  0.84590  1.0000 -0.783196488
O   O34       1.0  0.56650  0.79190  0.65410  1.0000 -0.783196488
O   O35       1.0  0.56650  0.70810  0.15410  1.0000 -0.783196488
O   O36       1.0  0.43350  0.20810  0.34590  1.0000 -0.783196488
O   O37       1.0  0.33910  0.48440  0.70870  1.0000 -0.5882797053
O   O38       1.0  0.66090  0.98440  0.79130  1.0000 -0.5882797053
O   O39       1.0  0.66090  0.51560  0.29130  1.0000 -0.5882797053
O   O40       1.0  0.33910  0.01560  0.20870  1.0000 -0.5882797053
O   O41       1.0  0.60750  0.61300  0.82710  1.0000 -0.6188333145
O   O42       1.0  0.39250  0.11300  0.67290  1.0000 -0.6188333145
O   O43       1.0  0.39250  0.38700  0.17290  1.0000 -0.6188333145
O   O44       1.0  0.60750  0.88700  0.32710  1.0000 -0.6188333145
O   O45       1.0  0.02000  0.54180  0.85640  1.0000 -0.6324498465
O   O46       1.0  0.98000  0.04180  0.64360  1.0000 -0.6324498465
O   O47       1.0  0.98000  0.45820  0.14360  1.0000 -0.6324498465
O   O48       1.0  0.02000  0.95820  0.35640  1.0000 -0.6324498465
O   O49       1.0  0.70680  0.41690  0.96230  1.0000 -0.5067363789
O   O50       1.0  0.29320  0.91690  0.53770  1.0000 -0.5067363789
O   O51       1.0  0.29320  0.58310  0.03770  1.0000 -0.5067363789
O   O52       1.0  0.70680  0.08310  0.46230  1.0000 -0.5067363789
O   O53       1.0  0.69390  0.48430  0.57670  1.0000 -0.8596987984
O   O54       1.0  0.30610  0.98430  0.92330  1.0000 -0.8596987984
O   O55       1.0  0.30610  0.51570  0.42330  1.0000 -0.8596987984
O   O56       1.0  0.69390  0.01570  0.07670  1.0000 -0.8596987984
O   O57       1.0  0.83960  0.55080  0.64300  1.0000 -0.8483067384
O   O58       1.0  0.16040  0.05080  0.85700  1.0000 -0.8483067384
O   O59       1.0  0.16040  0.44920  0.35700  1.0000 -0.8483067384
O   O60       1.0  0.83960  0.94920  0.14300  1.0000 -0.8483067384
O   O61       1.0  0.54900  0.49460  0.66060  1.0000 -0.8404799388
O   O62       1.0  0.45100  0.99460  0.83940  1.0000 -0.8404799388
O   O63       1.0  0.45100  0.50540  0.33940  1.0000 -0.8404799388
O   O64       1.0  0.54900  0.00540  0.16060  1.0000 -0.8404799388
O   O65       1.0  0.68300  0.56350  0.72600  1.0000 -0.830643809
O   O66       1.0  0.31700  0.06350  0.77400  1.0000 -0.830643809
O   O67       1.0  0.31700  0.43650  0.27400  1.0000 -0.8404799388
O   O68       1.0  0.68300  0.93650  0.22600  1.0000 -0.8404799388
O   O69       1.0  0.90100  0.44720  0.59120  1.0000 -0.8404799388
O   O70       1.0  0.09900  0.94720  0.90880  1.0000 -0.8404799388
O   O71       1.0  0.09900  0.55280  0.40880  1.0000 -0.8404799388
O   O72       1.0  0.90100  0.05280  0.09120  1.0000 -0.8404799388
O   O73       1.0  0.62100  0.36910  0.60180  1.0000 -0.8596987984
O   O74       1.0  0.37900  0.86910  0.89820  1.0000 -0.8596987984
O   O75       1.0  0.37900  0.63090  0.39820  1.0000 -0.8596987984
O   O76       1.0  0.62100  0.13090  0.10180  1.0000 -0.8596987984
O   O77       1.0  0.82800  0.33200  0.61570  1.0000 -0.8404799388
O   O78       1.0  0.17200  0.83200  0.88430  1.0000 -0.8404799388
O   O79       1.0  0.17200  0.66800  0.38430  1.0000 -0.8404799388
O   O80       1.0  0.82800  0.16800  0.11570  1.0000 -0.8404799388
O   O81       1.0  0.00430  0.41540  0.69530  1.0000 -0.830643809
O   O82       1.0  0.99570  0.91540  0.80470  1.0000 -0.830643809
O   O83       1.0  0.99570  0.58460  0.30470  1.0000 -0.830643809
O   O84       1.0  0.00430  0.08460  0.19530  1.0000 -0.830643809
O   O85       1.0  0.94380  0.51870  0.74250  1.0000 -0.8483067384
O   O86       1.0  0.05620  0.01870  0.75750  1.0000 -0.8483067384
O   O87       1.0  0.05620  0.48130  0.25750  1.0000 -0.8483067384
O   O88       1.0  0.94380  0.98130  0.24250  1.0000 -0.8483067384
O   O89       1.0  0.95900  0.30020  0.81420  1.0000 -0.8217165994
O   O90       1.0  0.04100  0.80020  0.68580  1.0000 -0.8217165994
O   O91       1.0  0.04100  0.69980  0.18580  1.0000 -0.8217165994
O   O92       1.0  0.95900  0.19980  0.31420  1.0000 -0.830643809
O   O93       1.0  0.96800  0.29650  0.69600  1.0000 -0.8217165994
O   O94       1.0  0.03200  0.79650  0.80400  1.0000 -0.8217165994
O   O95       1.0  0.03200  0.70350  0.30400  1.0000 -0.8217165994
O   O96       1.0  0.96800  0.20350  0.19600  1.0000 -0.8217165994
O   O97       1.0  0.98260  0.42230  0.80960  1.0000 -0.8217165994
O   O98       1.0  0.01740  0.92230  0.69040  1.0000 -0.8217165994
O   O99       1.0  0.01740  0.57770  0.19040  1.0000 -0.8217165994
O   O100      1.0  0.98260  0.07770  0.30960  1.0000 -0.8217165994
O   O101      1.0  0.81440  0.23030  0.74890  1.0000 -0.8483067384
O   O102      1.0  0.18560  0.73030  0.75110  1.0000 -0.8483067384
O   O103      1.0  0.18560  0.76970  0.25110  1.0000 -0.8483067384
O   O104      1.0  0.81440  0.26970  0.24890  1.0000 -0.8483067384
O   O105      1.0  0.65630  0.28500  0.80980  1.0000 -0.8002297988
O   O106      1.0  0.34370  0.78500  0.69020  1.0000 -0.8002297988
O   O107      1.0  0.34370  0.71500  0.19020  1.0000 -0.8002297988
O   O108      1.0  0.65630  0.21500  0.30980  1.0000 -0.8002297988
O   O109      1.0  0.79300  0.34770  0.87640  1.0000 -0.8217165994
O   O110      1.0  0.20700  0.84770  0.62360  1.0000 -0.8217165994
O   O111      1.0  0.20700  0.65230  0.12360  1.0000 -0.8217165994
O   O112      1.0  0.79300  0.15230  0.37640  1.0000 -0.830643809
O   O113      1.0  0.67160  0.27340  0.67070  1.0000 -0.830643809
O   O114      1.0  0.32840  0.77340  0.82930  1.0000 -0.830643809
O   O115      1.0  0.32840  0.72660  0.32930  1.0000 -0.830643809
O   O116      1.0  0.67160  0.22660  0.17070  1.0000 -0.830643809
O   O117      1.0  0.49700  0.28680  0.72910  1.0000 -0.8404799388
O   O118      1.0  0.50300  0.78680  0.77090  1.0000 -0.830643809
O   O119      1.0  0.50300  0.71320  0.27090  1.0000 -0.8404799388
O   O120      1.0  0.49700  0.21320  0.22910  1.0000 -0.8404799388
O   O121      1.0  0.44400  0.38890  0.66030  1.0000 -0.8483067384
O   O122      1.0  0.55600  0.88890  0.83970  1.0000 -0.8483067384
O   O123      1.0  0.55600  0.61110  0.33970  1.0000 -0.8483067384
O   O124      1.0  0.44400  0.11110  0.16030  1.0000 -0.8483067384
O   O125      1.0  0.42700  0.39750  0.77790  1.0000 -0.8404799388
O   O126      1.0  0.57300  0.89750  0.72210  1.0000 -0.8404799388
O   O127      1.0  0.57300  0.60250  0.22210  1.0000 -0.8404799388
O   O128      1.0  0.42700  0.10250  0.27790  1.0000 -0.8404799388
O   O129      1.0  0.58900  0.38760  0.85720  1.0000 -0.7925606093
O   O130      1.0  0.41100  0.88760  0.64280  1.0000 -0.7925606093
O   O131      1.0  0.41100  0.61240  0.14280  1.0000 -0.7925606093
O   O132      1.0  0.58900  0.11240  0.35720  1.0000 -0.7925606093
O   O133      1.0  0.53100  0.50520  0.77890  1.0000 -0.830643809
O   O134      1.0  0.46900  0.00520  0.72110  1.0000 -0.8404799388
O   O135      1.0  0.46900  0.49480  0.22110  1.0000 -0.8404799388
O   O136      1.0  0.53100  0.99480  0.27890  1.0000 -0.8404799388
O   O137      1.0  0.80720  0.56040  0.82330  1.0000 -0.8483067384
O   O138      1.0  0.19280  0.06040  0.67670  1.0000 -0.8483067384
O   O139      1.0  0.19280  0.43960  0.17670  1.0000 -0.8483067384
O   O140      1.0  0.80720  0.93960  0.32330  1.0000 -0.8483067384
O   O141      1.0  0.64890  0.49630  0.87480  1.0000 -0.8217165994
O   O142      1.0  0.35110  0.99630  0.62520  1.0000 -0.8217165994
O   O143      1.0  0.35110  0.50370  0.12520  1.0000 -0.8217165994
O   O144      1.0  0.64890  0.00370  0.37480  1.0000 -0.8217165994
O   O145      1.0  0.85100  0.46020  0.88620  1.0000 -0.7468937
O   O146      1.0  0.14900  0.96020  0.61380  1.0000 -0.7468937
O   O147      1.0  0.14900  0.53980  0.11380  1.0000 -0.7468937
O   O148      1.0  0.85100  0.03980  0.38620  1.0000 -0.7468937
O   O149      1.0  0.51490  0.17230  0.84980  1.0000 -0.5517208917
O   O150      1.0  0.48510  0.67230  0.65020  1.0000 -0.5517208917
O   O151      1.0  0.48510  0.82770  0.15020  1.0000 -0.5517208917
O   O152      1.0  0.51490  0.32770  0.34980  1.0000 -0.5517208917
O   O153      1.0  0.65470  0.13600  0.90420  1.0000 -0.4978432095
O   O154      1.0  0.34530  0.63600  0.59580  1.0000 -0.4978432095
O   O155      1.0  0.34530  0.86400  0.09580  1.0000 -0.4978432095
O   O156      1.0  0.65470  0.36400  0.40420  1.0000 -0.4978432095
O   O157      1.0  0.76940  0.39030  0.51380  1.0000 -0.783196488
O   O158      1.0  0.23060  0.89030  0.98620  1.0000 -0.783196488
O   O159      1.0  0.23060  0.60970  0.48620  1.0000 -0.783196488
O   O160      1.0  0.76940  0.10970  0.01380  1.0000 -0.7925606093
O   O161      1.0  0.91750  0.20670  0.98410  1.0000 -0.3195071579
O   O162      1.0  0.08250  0.70670  0.51590  1.0000 -0.3195071579
O   O163      1.0  0.08250  0.79330  0.01590  1.0000 -0.3195071579
O   O164      1.0  0.91750  0.29330  0.48410  1.0000 -0.313637223
O   O165      1.0  0.00100  0.07100  0.98580  1.0000 -0.1664324215
O   O166      1.0  0.99900  0.57100  0.51420  1.0000 -0.1603953551
O   O167      1.0  0.99900  0.92900  0.01420  1.0000 -0.1603953551
O   O168      1.0  0.00100  0.42900  0.48580  1.0000 -0.1603953551
O   O169      1.0  0.76400  0.01250  0.92870  1.0000 -0.3864701252
O   O170      1.0  0.23600  0.51250  0.57130  1.0000 -0.3864701252
O   O171      1.0  0.23600  0.98750  0.07130  1.0000 -0.3864701252
O   O172      1.0  0.76400  0.48750  0.42870  1.0000 -0.3834126255
O   O173      1.0  0.05010  0.52700  0.63800  1.0000 -0.7325691691
O   O174      1.0  0.94990  0.02700  0.86200  1.0000 -0.7325691691
O   O175      1.0  0.94990  0.47300  0.36200  1.0000 -0.7325691691
O   O176      1.0  0.05010  0.97300  0.13800  1.0000 -0.7325691691
O   O177      1.0  0.00900  0.15240  0.86710  1.0000 -0.6188333145
O   O178      1.0  0.99100  0.65240  0.63290  1.0000 -0.6188333145
O   O179      1.0  0.99100  0.84760  0.13290  1.0000 -0.6188333145
O   O180      1.0  0.00900  0.34760  0.36710  1.0000 -0.6188333145
O   O181      1.0  0.48700  0.28690  0.97110  1.0000 -0.2870843868
O   O182      1.0  0.51300  0.78690  0.52890  1.0000 -0.2815239808
O   O183      1.0  0.51300  0.71310  0.02890  1.0000 -0.2870843868
O   O184      1.0  0.48700  0.21310  0.47110  1.0000 -0.2870843868
O   O185      1.0  0.24800  0.30470  0.92060  1.0000 -0.5708124003
O   O186      1.0  0.75200  0.80470  0.57940  1.0000 -0.5708124003
O   O187      1.0  0.75200  0.69530  0.07940  1.0000 -0.5708124003
O   O188      1.0  0.24800  0.19530  0.42060  1.0000 -0.5708124003
O   O189      1.0  0.30300  0.20960  0.01870  1.0000 -0.3328116348
O   O190      1.0  0.69700  0.70960  0.48130  1.0000 -0.3328116348
O   O191      1.0  0.69700  0.79040  0.98130  1.0000 -0.3328116348
O   O192      1.0  0.30300  0.29040  0.51870  1.0000 -0.3328116348
O   O193      1.0  0.50200  0.15030  0.97940  1.0000 -0.1408346704
O   O194      1.0  0.49800  0.65030  0.52060  1.0000 -0.1294803183
O   O195      1.0  0.49800  0.84970  0.02060  1.0000 -0.1294803183
O   O196      1.0  0.50200  0.34970  0.47940  1.0000 -0.1294803183
O   O197      1.0  0.16600  0.17980  0.91380  1.0000 -0.608372903
O   O198      1.0  0.83400  0.67980  0.58620  1.0000 -0.608372903
O   O199      1.0  0.83400  0.82020  0.08620  1.0000 -0.608372903
O   O200      1.0  0.16600  0.32020  0.41380  1.0000 -0.6040806732
O   O201      1.0  0.65110  0.59790  0.61040  1.0000 -0.7325691691
O   O202      1.0  0.34890  0.09790  0.88960  1.0000 -0.7325691691
O   O203      1.0  0.34890  0.40210  0.38960  1.0000 -0.7325691691
O   O204      1.0  0.65110  0.90210  0.11040  1.0000 -0.7325691691
