# DDEC6 charges by PACMAN v1.1 (https://github.com/mtap-research/PACMAN-charge/)
data_2012[Co][pcu]3[ION]1
_chemical_formula_sum              "Co6 H48 C56 N4 O40"
_cell_length_a       9.2915
_cell_length_b       15.0734
_cell_length_c       17.8179
_cell_angle_alpha    90
_cell_angle_beta     97.323
_cell_angle_gamma    90

_symmetry_space_group_name_H-M    "P 1"
_symmetry_Int_Tables_number       1

loop_
  _symmetry_equiv_pos_as_xyz
  'x, y, z'

loop_
  _atom_site_type_symbol
  _atom_site_label
  _atom_site_symmetry_multiplicity
  _atom_site_fract_x
  _atom_site_fract_y
  _atom_site_fract_z
  _atom_site_occupancy
  _atom_site_charge
Co  Co1       1.0  0.50000  0.00000  0.50000  1.0000 1.0367954928
Co  Co2       1.0  0.50000  0.50000  0.00000  1.0000 1.0367954928
Co  Co3       1.0  0.42287  0.11256  0.33636  1.0000 0.9272773672
Co  Co4       1.0  0.57713  0.61256  0.16364  1.0000 0.9272773672
Co  Co5       1.0  0.57713  0.88744  0.66364  1.0000 0.9272773672
Co  Co6       1.0  0.42287  0.38744  0.83636  1.0000 0.9272773672
H   H1        1.0  0.04600  0.85970  0.45430  1.0000 0.1500002124
H   H2        1.0  0.95400  0.35970  0.04570  1.0000 0.1500002124
H   H3        1.0  0.95400  0.14030  0.54570  1.0000 0.1500002124
H   H4        1.0  0.04600  0.64030  0.95430  1.0000 0.1500002124
H   H5        1.0  0.77180  0.88020  0.43350  1.0000 0.1500002124
H   H6        1.0  0.22820  0.38020  0.06650  1.0000 0.1500002124
H   H7        1.0  0.22820  0.11980  0.56650  1.0000 0.1500002124
H   H8        1.0  0.77180  0.61980  0.93350  1.0000 0.1500002124
H   H9        1.0  0.63580  0.50660  0.44810  1.0000 0.1385417581
H   H10       1.0  0.36420  0.00660  0.05190  1.0000 0.1385417581
H   H11       1.0  0.36420  0.49340  0.55190  1.0000 0.1385417581
H   H12       1.0  0.63580  0.99340  0.94810  1.0000 0.1385417581
H   H13       1.0  0.61000  0.60250  0.56210  1.0000 0.1385417581
H   H14       1.0  0.39000  0.10250  0.93790  1.0000 0.1385417581
H   H15       1.0  0.39000  0.39750  0.43790  1.0000 0.1385417581
H   H16       1.0  0.61000  0.89750  0.06210  1.0000 0.1385417581
H   H17       1.0  0.46140  0.78000  0.22260  1.0000 0.2570791204
H   H18       1.0  0.40400  0.86380  0.19290  1.0000 0.2570791204
H   H19       1.0  0.62980  0.88360  0.29470  1.0000 0.1301546258
H   H20       1.0  0.59620  0.92940  0.21540  1.0000 0.1301546258
H   H21       1.0  0.66110  0.83333  0.22150  1.0000 0.1385417581
H   H22       1.0  0.42460  0.85250  0.34080  1.0000 0.1385417581
H   H23       1.0  0.31080  0.78930  0.29570  1.0000 0.1385417581
H   H24       1.0  0.29820  0.89220  0.28410  1.0000 0.1301546258
H   H25       1.0  0.53860  0.28000  0.27740  1.0000 0.2570791204
H   H26       1.0  0.59600  0.36380  0.30710  1.0000 0.2570791204
H   H27       1.0  0.37020  0.38360  0.20530  1.0000 0.1301546258
H   H28       1.0  0.40380  0.42940  0.28460  1.0000 0.1301546258
H   H29       1.0  0.33890  0.33333  0.27850  1.0000 0.1385417581
H   H30       1.0  0.57540  0.35250  0.15920  1.0000 0.1385417581
H   H31       1.0  0.68920  0.28930  0.20430  1.0000 0.1301546258
H   H32       1.0  0.70180  0.39220  0.21590  1.0000 0.1301546258
H   H33       1.0  0.53860  0.22000  0.77740  1.0000 0.2570791204
H   H34       1.0  0.59600  0.13620  0.80710  1.0000 0.2570791204
H   H35       1.0  0.37020  0.11640  0.70530  1.0000 0.1301546258
H   H36       1.0  0.40380  0.07060  0.78460  1.0000 0.1301546258
H   H37       1.0  0.33890  0.16667  0.77850  1.0000 0.1385417581
H   H38       1.0  0.57540  0.14750  0.65920  1.0000 0.1385417581
H   H39       1.0  0.68920  0.21070  0.70430  1.0000 0.1301546258
H   H40       1.0  0.70180  0.10780  0.71590  1.0000 0.1301546258
H   H41       1.0  0.46140  0.72000  0.72260  1.0000 0.2570791204
H   H42       1.0  0.40400  0.63620  0.69290  1.0000 0.2570791204
H   H43       1.0  0.62980  0.61640  0.79470  1.0000 0.1301546258
H   H44       1.0  0.59620  0.57060  0.71540  1.0000 0.1301546258
H   H45       1.0  0.66110  0.66667  0.72150  1.0000 0.1385417581
H   H46       1.0  0.42460  0.64750  0.84080  1.0000 0.1385417581
H   H47       1.0  0.31080  0.71070  0.79570  1.0000 0.1385417581
H   H48       1.0  0.29820  0.60780  0.78410  1.0000 0.1301546258
C   C1        1.0  0.05300  0.98160  0.40400  1.0000 0.098673835
C   C2        1.0  0.94700  0.48160  0.09600  1.0000 0.098673835
C   C3        1.0  0.94700  0.01840  0.59600  1.0000 0.098673835
C   C4        1.0  0.05300  0.51840  0.90400  1.0000 0.098673835
C   C5        1.0  0.99550  0.90830  0.43210  1.0000 -0.1808386386
C   C6        1.0  0.00450  0.40830  0.06790  1.0000 -0.1808386386
C   C7        1.0  0.00450  0.09170  0.56790  1.0000 -0.1808386386
C   C8        1.0  0.99550  0.59170  0.93210  1.0000 -0.1808386386
C   C9        1.0  0.84140  0.92010  0.42110  1.0000 -0.1706673395
C   C10       1.0  0.15860  0.42010  0.07890  1.0000 -0.1706673395
C   C11       1.0  0.15860  0.07990  0.57890  1.0000 -0.1706673395
C   C12       1.0  0.84140  0.57990  0.92110  1.0000 -0.1706673395
C   C13       1.0  0.81720  0.00060  0.38920  1.0000 0.0748358105
C   C14       1.0  0.18280  0.50060  0.11080  1.0000 0.0748358105
C   C15       1.0  0.18280  0.99940  0.61080  1.0000 0.0748358105
C   C16       1.0  0.81720  0.49940  0.88920  1.0000 0.0748358105
C   C17       1.0  0.68510  0.05210  0.36560  1.0000 0.5207096894
C   C18       1.0  0.31490  0.55210  0.13440  1.0000 0.5207096894
C   C19       1.0  0.31490  0.94790  0.63440  1.0000 0.5207096894
C   C20       1.0  0.68510  0.44790  0.86560  1.0000 0.5207096894
C   C21       1.0  0.20570  0.00960  0.40150  1.0000 0.5471489687
C   C22       1.0  0.79430  0.50960  0.09850  1.0000 0.5471489687
C   C23       1.0  0.79430  0.99040  0.59850  1.0000 0.5471489687
C   C24       1.0  0.20570  0.49040  0.90150  1.0000 0.5471489687
C   C25       1.0  0.58690  0.70550  0.48750  1.0000 0.098673835
C   C26       1.0  0.41310  0.20550  0.01250  1.0000 0.098673835
C   C27       1.0  0.41310  0.29450  0.51250  1.0000 0.098673835
C   C28       1.0  0.58690  0.79450  0.98750  1.0000 0.098673835
C   C29       1.0  0.61360  0.62280  0.38960  1.0000 0.0787455026
C   C30       1.0  0.38640  0.12280  0.11040  1.0000 0.0787455026
C   C31       1.0  0.38640  0.37720  0.61040  1.0000 0.0787455026
C   C32       1.0  0.61360  0.87720  0.88960  1.0000 0.0787455026
C   C33       1.0  0.62230  0.56770  0.44860  1.0000 -0.1808386386
C   C34       1.0  0.37770  0.06770  0.05140  1.0000 -0.1808386386
C   C35       1.0  0.37770  0.43230  0.55140  1.0000 -0.1808386386
C   C36       1.0  0.62230  0.93230  0.94860  1.0000 -0.1808386386
C   C37       1.0  0.60690  0.62160  0.51230  1.0000 -0.1851944815
C   C38       1.0  0.39310  0.12160  0.98770  1.0000 -0.1808386386
C   C39       1.0  0.39310  0.37840  0.48770  1.0000 -0.1851944815
C   C40       1.0  0.60690  0.87840  0.01230  1.0000 -0.1851944815
C   C41       1.0  0.56310  0.79010  0.52750  1.0000 0.5471489687
C   C42       1.0  0.43690  0.29010  0.97250  1.0000 0.5471489687
C   C43       1.0  0.43690  0.20990  0.47250  1.0000 0.5471489687
C   C44       1.0  0.56310  0.70990  0.02750  1.0000 0.5471489687
C   C45       1.0  0.61520  0.60900  0.30750  1.0000 0.5102932413
C   C46       1.0  0.38480  0.10900  0.19250  1.0000 0.5102932413
C   C47       1.0  0.38480  0.39100  0.69250  1.0000 0.5102932413
C   C48       1.0  0.61520  0.89100  0.80750  1.0000 0.5102932413
C   C49       1.0  0.59690  0.87400  0.24200  1.0000 -0.2882965695
C   C50       1.0  0.36440  0.84340  0.29350  1.0000 -0.2830709558
C   C51       1.0  0.40310  0.37400  0.25800  1.0000 -0.2882965695
C   C52       1.0  0.63560  0.34340  0.20650  1.0000 -0.2830709558
C   C53       1.0  0.40310  0.12600  0.75800  1.0000 -0.2882965695
C   C54       1.0  0.63560  0.15660  0.70650  1.0000 -0.2830709558
C   C55       1.0  0.59690  0.62600  0.74200  1.0000 -0.2882965695
C   C56       1.0  0.36440  0.65660  0.79350  1.0000 -0.2830709558
N   N1        1.0  0.45360  0.83790  0.23380  1.0000 -0.0783487301
N   N2        1.0  0.54640  0.33790  0.26620  1.0000 -0.0783487301
N   N3        1.0  0.54640  0.16210  0.76620  1.0000 -0.0783487301
N   N4        1.0  0.45360  0.66210  0.73380  1.0000 -0.0783487301
O   O1        1.0  0.94710  0.03950  0.37630  1.0000 -0.0783487301
O   O2        1.0  0.05290  0.53950  0.12370  1.0000 -0.0783487301
O   O3        1.0  0.05290  0.96050  0.62370  1.0000 -0.0783487301
O   O4        1.0  0.94710  0.46050  0.87630  1.0000 -0.0783487301
O   O5        1.0  0.68270  0.11940  0.32790  1.0000 -0.477662627
O   O6        1.0  0.31730  0.61940  0.17210  1.0000 -0.477662627
O   O7        1.0  0.31730  0.88060  0.67210  1.0000 -0.477662627
O   O8        1.0  0.68270  0.38060  0.82790  1.0000 -0.477662627
O   O9        1.0  0.56520  0.01900  0.38630  1.0000 -0.5972510021
O   O10       1.0  0.43480  0.51900  0.11370  1.0000 -0.5972510021
O   O11       1.0  0.43480  0.98100  0.61370  1.0000 -0.5972510021
O   O12       1.0  0.56520  0.48100  0.88630  1.0000 -0.5972510021
O   O13       1.0  0.22810  0.07170  0.35970  1.0000 -0.5044056218
O   O14       1.0  0.77190  0.57170  0.14030  1.0000 -0.5044056218
O   O15       1.0  0.77190  0.92830  0.64030  1.0000 -0.5044056218
O   O16       1.0  0.22810  0.42830  0.85970  1.0000 -0.5044056218
O   O17       1.0  0.29790  0.96630  0.44560  1.0000 -0.5588377457
O   O18       1.0  0.70210  0.46630  0.05440  1.0000 -0.5588377457
O   O19       1.0  0.70210  0.03370  0.55440  1.0000 -0.5588377457
O   O20       1.0  0.29790  0.53370  0.94560  1.0000 -0.5588377457
O   O21       1.0  0.59020  0.70870  0.41150  1.0000 -0.1030844565
O   O22       1.0  0.40980  0.20870  0.08850  1.0000 -0.1030844565
O   O23       1.0  0.40980  0.29130  0.58850  1.0000 -0.1030844565
O   O24       1.0  0.59020  0.79130  0.91150  1.0000 -0.1030844565
O   O25       1.0  0.55420  0.86030  0.49130  1.0000 -0.5509586673
O   O26       1.0  0.44580  0.36030  0.00870  1.0000 -0.5509586673
O   O27       1.0  0.44580  0.13970  0.50870  1.0000 -0.5509586673
O   O28       1.0  0.55420  0.63970  0.99130  1.0000 -0.5509586673
O   O29       1.0  0.55780  0.78090  0.59770  1.0000 -0.5509586673
O   O30       1.0  0.44220  0.28090  0.90230  1.0000 -0.5509586673
O   O31       1.0  0.44220  0.21910  0.40230  1.0000 -0.5509586673
O   O32       1.0  0.55780  0.71910  0.09770  1.0000 -0.5509586673
O   O33       1.0  0.60480  0.67590  0.26460  1.0000 -0.5079734068
O   O34       1.0  0.39520  0.17590  0.23540  1.0000 -0.5079734068
O   O35       1.0  0.39520  0.32410  0.73540  1.0000 -0.5079734068
O   O36       1.0  0.60480  0.82410  0.76460  1.0000 -0.5079734068
O   O37       1.0  0.62180  0.53310  0.28200  1.0000 -0.5193954151
O   O38       1.0  0.37820  0.03310  0.21800  1.0000 -0.5193954151
O   O39       1.0  0.37820  0.46690  0.71800  1.0000 -0.5193954151
O   O40       1.0  0.62180  0.96690  0.78200  1.0000 -0.5193954151
