# DDEC6 charges by PACMAN v1.1 (https://github.com/mtap-research/PACMAN-charge/)
data_2012[Ce][nan]3[ION]2
_chemical_formula_sum              "Na4 Mn4 Zn6 Mo24 P16 H32 C24 N16 O128"
_cell_length_a       17.0497
_cell_length_b       17.0497
_cell_length_c       24.908
_cell_angle_alpha    120.071
_cell_angle_beta     120.071
_cell_angle_gamma    50.5976

_symmetry_space_group_name_H-M    "P 1"
_symmetry_Int_Tables_number       1

loop_
  _symmetry_equiv_pos_as_xyz
  'x, y, z'

loop_
  _atom_site_type_symbol
  _atom_site_label
  _atom_site_symmetry_multiplicity
  _atom_site_fract_x
  _atom_site_fract_y
  _atom_site_fract_z
  _atom_site_occupancy
  _atom_site_charge
Na  Na1       1.0  0.72543  0.21023  0.29401  1.0000 0.941718885
Na  Na2       1.0  0.78977  0.27457  0.20599  1.0000 0.941718885
Na  Na3       1.0  0.27457  0.78977  0.70599  1.0000 0.941718885
Na  Na4       1.0  0.21023  0.72543  0.79401  1.0000 0.941718885
Mn  Mn1       1.0  0.50000  0.00000  0.00000  1.0000 1.3281995293
Mn  Mn2       1.0  0.00000  0.50000  0.50000  1.0000 1.3281995293
Mn  Mn3       1.0  0.58248  0.41752  0.25000  1.0000 1.2639894721
Mn  Mn4       1.0  0.41752  0.58248  0.75000  1.0000 1.2639894721
Zn  Zn1       1.0  0.43896  0.47748  0.40729  1.0000 0.9967608091
Zn  Zn2       1.0  0.52252  0.56104  0.09271  1.0000 0.9967608091
Zn  Zn3       1.0  0.56104  0.52252  0.59271  1.0000 0.9967608091
Zn  Zn4       1.0  0.47748  0.43896  0.90729  1.0000 0.9967608091
Zn  Zn5       1.0  0.14334  0.85666  0.25000  1.0000 0.8912230965
Zn  Zn6       1.0  0.85666  0.14334  0.75000  1.0000 0.8912230965
Mo  Mo1       1.0  0.35405  0.26769  0.11144  1.0000 2.0317460718
Mo  Mo2       1.0  0.57973  0.06705  0.18489  1.0000 2.0317460718
Mo  Mo3       1.0  0.35602  0.29486  0.01822  1.0000 2.0463450786
Mo  Mo4       1.0  0.58378  0.13044  0.96514  1.0000 2.0390171048
Mo  Mo5       1.0  0.74899  0.98077  0.01788  1.0000 2.0317460718
Mo  Mo6       1.0  0.74723  0.94621  0.14469  1.0000 2.0317460718
Mo  Mo7       1.0  0.73231  0.64595  0.38856  1.0000 2.0317460718
Mo  Mo8       1.0  0.93295  0.42027  0.31511  1.0000 2.0212761399
Mo  Mo9       1.0  0.70514  0.64398  0.48178  1.0000 2.0463450786
Mo  Mo10      1.0  0.86956  0.41622  0.53486  1.0000 2.0390171048
Mo  Mo11      1.0  0.01923  0.25101  0.48212  1.0000 2.0317460718
Mo  Mo12      1.0  0.05379  0.25277  0.35531  1.0000 2.0390171048
Mo  Mo13      1.0  0.64595  0.73231  0.88856  1.0000 2.0317460718
Mo  Mo14      1.0  0.42027  0.93295  0.81511  1.0000 2.0317460718
Mo  Mo15      1.0  0.64398  0.70514  0.98178  1.0000 2.0463450786
Mo  Mo16      1.0  0.41622  0.86956  0.03486  1.0000 2.0390171048
Mo  Mo17      1.0  0.25101  0.01923  0.98212  1.0000 2.0317460718
Mo  Mo18      1.0  0.25277  0.05379  0.85531  1.0000 2.0390171048
Mo  Mo19      1.0  0.26769  0.35405  0.61144  1.0000 2.0317460718
Mo  Mo20      1.0  0.06705  0.57973  0.68489  1.0000 2.0317460718
Mo  Mo21      1.0  0.29486  0.35602  0.51822  1.0000 2.0463450786
Mo  Mo22      1.0  0.13044  0.58378  0.46514  1.0000 2.0390171048
Mo  Mo23      1.0  0.98077  0.74899  0.51788  1.0000 2.0317460718
Mo  Mo24      1.0  0.94621  0.74723  0.64469  1.0000 2.0317460718
P   P1        1.0  0.60321  0.19223  0.12555  1.0000 1.5791171428
P   P2        1.0  0.46291  0.39241  0.00625  1.0000 1.5791171428
P   P3        1.0  0.46913  0.31755  0.26889  1.0000 1.6030559775
P   P4        1.0  0.93071  0.97691  0.15769  1.0000 1.5607125994
P   P5        1.0  0.80777  0.39679  0.37445  1.0000 1.5791171428
P   P6        1.0  0.60759  0.53709  0.49375  1.0000 1.5791171428
P   P7        1.0  0.68245  0.53087  0.23111  1.0000 1.6030559775
P   P8        1.0  0.02309  0.06929  0.34231  1.0000 1.570901179
P   P9        1.0  0.39679  0.80777  0.87445  1.0000 1.5791171428
P   P10       1.0  0.53709  0.60759  0.99375  1.0000 1.570901179
P   P11       1.0  0.53087  0.68245  0.73111  1.0000 1.6030559775
P   P12       1.0  0.06929  0.02309  0.84231  1.0000 1.570901179
P   P13       1.0  0.19223  0.60321  0.62555  1.0000 1.5791171428
P   P14       1.0  0.39241  0.46291  0.50625  1.0000 1.570901179
P   P15       1.0  0.31755  0.46913  0.76889  1.0000 1.6030559775
P   P16       1.0  0.97691  0.93071  0.65769  1.0000 1.5607125994
H   H1        1.0  0.09300  0.79200  0.37430  1.0000 0.3354225543
H   H2        1.0  0.51200  0.72980  0.28520  1.0000 0.3354225543
H   H3        1.0  0.18790  0.59950  0.35180  1.0000 0.154161637
H   H4        1.0  0.38650  0.69870  0.42310  1.0000 0.159105281
H   H5        1.0  0.20270  0.85730  0.40230  1.0000 0.159105281
H   H6        1.0  0.37860  0.68960  0.24200  1.0000 0.1223783505
H   H7        1.0  0.24250  0.99490  0.30380  1.0000 0.159105281
H   H8        1.0  0.43250  0.92290  0.32080  1.0000 0.159105281
H   H9        1.0  0.20800  0.90700  0.12570  1.0000 0.3354225543
H   H10       1.0  0.27020  0.48800  0.21480  1.0000 0.3354225543
H   H11       1.0  0.40050  0.81210  0.14820  1.0000 0.154161637
H   H12       1.0  0.30130  0.61350  0.07690  1.0000 0.159105281
H   H13       1.0  0.14270  0.79730  0.09770  1.0000 0.159105281
H   H14       1.0  0.31040  0.62140  0.25800  1.0000 0.1223783505
H   H15       1.0  0.00510  0.75750  0.19620  1.0000 0.159105281
H   H16       1.0  0.07710  0.56750  0.17920  1.0000 0.159105281
H   H17       1.0  0.90700  0.20800  0.62570  1.0000 0.3354225543
H   H18       1.0  0.48800  0.27020  0.71480  1.0000 0.3354225543
H   H19       1.0  0.81210  0.40050  0.64820  1.0000 0.154161637
H   H20       1.0  0.61350  0.30130  0.57690  1.0000 0.159105281
H   H21       1.0  0.79730  0.14270  0.59770  1.0000 0.159105281
H   H22       1.0  0.62140  0.31040  0.75800  1.0000 0.1223783505
H   H23       1.0  0.75750  0.00510  0.69620  1.0000 0.159105281
H   H24       1.0  0.56750  0.07710  0.67920  1.0000 0.159105281
H   H25       1.0  0.79200  0.09300  0.87430  1.0000 0.3354225543
H   H26       1.0  0.72980  0.51200  0.78520  1.0000 0.3354225543
H   H27       1.0  0.59950  0.18790  0.85180  1.0000 0.154161637
H   H28       1.0  0.69870  0.38650  0.92310  1.0000 0.159105281
H   H29       1.0  0.85730  0.20270  0.90230  1.0000 0.159105281
H   H30       1.0  0.68960  0.37860  0.74200  1.0000 0.1223783505
H   H31       1.0  0.99490  0.24250  0.80380  1.0000 0.159105281
H   H32       1.0  0.92290  0.43250  0.82080  1.0000 0.159105281
C   C1        1.0  0.21460  0.64420  0.37200  1.0000 0.159105281
C   C2        1.0  0.32370  0.70130  0.41060  1.0000 0.0098816555
C   C3        1.0  0.22190  0.79050  0.39860  1.0000 0.0098816555
C   C4        1.0  0.36930  0.75690  0.26200  1.0000 0.159105281
C   C5        1.0  0.29460  0.92400  0.29510  1.0000 -0.0005501702
C   C6        1.0  0.40020  0.88440  0.30440  1.0000 -0.0102210732
C   C7        1.0  0.35580  0.78540  0.12800  1.0000 0.159105281
C   C8        1.0  0.29870  0.67630  0.08940  1.0000 0.0098816555
C   C9        1.0  0.20950  0.77810  0.10140  1.0000 0.0098816555
C   C10       1.0  0.24310  0.63070  0.23800  1.0000 0.159105281
C   C11       1.0  0.07600  0.70540  0.20490  1.0000 -0.0005501702
C   C12       1.0  0.11560  0.59980  0.19560  1.0000 -0.0102210732
C   C13       1.0  0.78540  0.35580  0.62800  1.0000 0.159105281
C   C14       1.0  0.67630  0.29870  0.58940  1.0000 0.0098816555
C   C15       1.0  0.77810  0.20950  0.60140  1.0000 0.0098816555
C   C16       1.0  0.63070  0.24310  0.73800  1.0000 0.159105281
C   C17       1.0  0.70540  0.07600  0.70490  1.0000 -0.0005501702
C   C18       1.0  0.59980  0.11560  0.69560  1.0000 -0.0102210732
C   C19       1.0  0.64420  0.21460  0.87200  1.0000 0.159105281
C   C20       1.0  0.70130  0.32370  0.91060  1.0000 0.0098816555
C   C21       1.0  0.79050  0.22190  0.89860  1.0000 0.0098816555
C   C22       1.0  0.75690  0.36930  0.76200  1.0000 0.159105281
C   C23       1.0  0.92400  0.29460  0.79510  1.0000 -0.0005501702
C   C24       1.0  0.88440  0.40020  0.80440  1.0000 -0.0102210732
N   N1        1.0  0.31700  0.62060  0.40130  1.0000 -0.2730686727
N   N2        1.0  0.16030  0.75250  0.38030  1.0000 -0.1358521742
N   N3        1.0  0.28140  0.84020  0.27090  1.0000 -0.2849914494
N   N4        1.0  0.44660  0.77580  0.28400  1.0000 -0.159500553
N   N5        1.0  0.37940  0.68300  0.09870  1.0000 -0.2730686727
N   N6        1.0  0.24750  0.83970  0.11970  1.0000 -0.1346340987
N   N7        1.0  0.15980  0.71860  0.22910  1.0000 -0.2849914494
N   N8        1.0  0.22420  0.55340  0.21600  1.0000 -0.159500553
N   N9        1.0  0.68300  0.37940  0.59870  1.0000 -0.2730686727
N   N10       1.0  0.83970  0.24750  0.61970  1.0000 -0.1358521742
N   N11       1.0  0.71860  0.15980  0.72910  1.0000 -0.2849914494
N   N12       1.0  0.55340  0.22420  0.71600  1.0000 -0.159500553
N   N13       1.0  0.62060  0.31700  0.90130  1.0000 -0.2730686727
N   N14       1.0  0.75250  0.16030  0.88030  1.0000 -0.1358521742
N   N15       1.0  0.84020  0.28140  0.77090  1.0000 -0.2849914494
N   N16       1.0  0.77580  0.44660  0.78400  1.0000 -0.159500553
O   O1        1.0  0.53154  0.19274  0.14680  1.0000 -0.8534697754
O   O2        1.0  0.69492  0.07652  0.10970  1.0000 -0.8381160943
O   O3        1.0  0.44680  0.49000  0.17450  1.0000 -0.2978617016
O   O4        1.0  0.53593  0.22413  0.06140  1.0000 -0.8381160943
O   O5        1.0  0.39062  0.16822  0.02920  1.0000 -0.8571047548
O   O6        1.0  0.60028  0.97988  0.09770  1.0000 -0.8534697754
O   O7        1.0  0.60042  0.01662  0.98000  1.0000 -0.8534697754
O   O8        1.0  0.77290  0.87530  0.05290  1.0000 -0.8101322714
O   O9        1.0  0.72169  0.11149  0.02130  1.0000 -0.770430437
O   O10       1.0  0.42129  0.19249  0.94010  1.0000 -0.8295064184
O   O11       1.0  0.35250  0.37870  0.10650  1.0000 -0.7410113427
O   O12       1.0  0.41654  0.13514  0.13870  1.0000 -0.8101322714
O   O13       1.0  0.71470  0.05930  0.22340  1.0000 -0.8672711614
O   O14       1.0  0.79990  0.83530  0.16140  1.0000 -0.5128054043
O   O15       1.0  0.80020  0.89060  0.95530  1.0000 -0.4919559273
O   O16       1.0  0.59560  0.07640  0.88980  1.0000 -0.5419167491
O   O17       1.0  0.22860  0.34100  0.97510  1.0000 -0.5128054043
O   O18       1.0  0.22600  0.30940  0.09250  1.0000 -0.5206554058
O   O19       1.0  0.59310  0.98490  0.21150  1.0000 -0.4919559273
O   O20       1.0  0.37190  0.34170  0.20820  1.0000 -0.757064766
O   O21       1.0  0.53250  0.19730  0.26100  1.0000 -0.7810436202
O   O22       1.0  0.42430  0.37430  0.32580  1.0000 -0.757064766
O   O23       1.0  0.53970  0.35070  0.27710  1.0000 -0.8193719531
O   O24       1.0  0.64500  0.26360  0.17840  1.0000 -0.8193719531
O   O25       1.0  0.88770  0.93810  0.17530  1.0000 -0.7521214324
O   O26       1.0  0.89070  0.96270  0.08450  1.0000 -0.757064766
O   O27       1.0  0.04960  0.91260  0.17580  1.0000 -0.7810436202
O   O28       1.0  0.37342  0.39902  0.01300  1.0000 -0.7229082349
O   O29       1.0  0.41360  0.46160  0.96360  1.0000 -0.788901991
O   O30       1.0  0.53979  0.27859  0.97570  1.0000 -0.7521214324
O   O31       1.0  0.52243  0.43483  0.07360  1.0000 -0.7112347844
O   O32       1.0  0.89520  0.09340  0.19450  1.0000 -0.7810436202
O   O33       1.0  0.80726  0.46846  0.35320  1.0000 -0.8534697754
O   O34       1.0  0.92348  0.30508  0.39030  1.0000 -0.8381160943
O   O35       1.0  0.51000  0.55320  0.32550  1.0000 -0.2978617016
O   O36       1.0  0.77587  0.46407  0.43860  1.0000 -0.8381160943
O   O37       1.0  0.83178  0.60938  0.47080  1.0000 -0.8571047548
O   O38       1.0  0.02012  0.39972  0.40230  1.0000 -0.8534697754
O   O39       1.0  0.98338  0.39958  0.52000  1.0000 -0.8534697754
O   O40       1.0  0.12470  0.22710  0.44710  1.0000 -0.8101322714
O   O41       1.0  0.88851  0.27831  0.47870  1.0000 -0.770430437
O   O42       1.0  0.80751  0.57871  0.55990  1.0000 -0.8295064184
O   O43       1.0  0.62130  0.64750  0.39350  1.0000 -0.7410113427
O   O44       1.0  0.86486  0.58346  0.36130  1.0000 -0.8101322714
O   O45       1.0  0.94070  0.28530  0.27660  1.0000 -0.8672711614
O   O46       1.0  0.16470  0.20010  0.33860  1.0000 -0.5128054043
O   O47       1.0  0.10940  0.19980  0.54470  1.0000 -0.4919559273
O   O48       1.0  0.92360  0.40440  0.61020  1.0000 -0.5419167491
O   O49       1.0  0.65900  0.77140  0.52490  1.0000 -0.5128054043
O   O50       1.0  0.69060  0.77400  0.40750  1.0000 -0.5206554058
O   O51       1.0  0.01510  0.40690  0.28850  1.0000 -0.4919559273
O   O52       1.0  0.65830  0.62810  0.29180  1.0000 -0.757064766
O   O53       1.0  0.80270  0.46750  0.23900  1.0000 -0.7810436202
O   O54       1.0  0.62570  0.57570  0.17420  1.0000 -0.757064766
O   O55       1.0  0.64930  0.46030  0.22290  1.0000 -0.8193719531
O   O56       1.0  0.73640  0.35500  0.32160  1.0000 -0.8193719531
O   O57       1.0  0.06190  0.11230  0.32470  1.0000 -0.7521214324
O   O58       1.0  0.03730  0.10930  0.41550  1.0000 -0.757064766
O   O59       1.0  0.08740  0.95040  0.32420  1.0000 -0.7810436202
O   O60       1.0  0.60098  0.62658  0.48700  1.0000 -0.7229082349
O   O61       1.0  0.53840  0.58640  0.53640  1.0000 -0.788901991
O   O62       1.0  0.72141  0.46021  0.52430  1.0000 -0.7521214324
O   O63       1.0  0.56517  0.47757  0.42640  1.0000 -0.7112347844
O   O64       1.0  0.90660  0.10480  0.30550  1.0000 -0.7810436202
O   O65       1.0  0.46846  0.80726  0.85320  1.0000 -0.8534697754
O   O66       1.0  0.30508  0.92348  0.89030  1.0000 -0.8381160943
O   O67       1.0  0.55320  0.51000  0.82550  1.0000 -0.2978617016
O   O68       1.0  0.46407  0.77587  0.93860  1.0000 -0.8295064184
O   O69       1.0  0.60938  0.83178  0.97080  1.0000 -0.8571047548
O   O70       1.0  0.39972  0.02012  0.90230  1.0000 -0.8534697754
O   O71       1.0  0.39958  0.98338  0.02000  1.0000 -0.8534697754
O   O72       1.0  0.22710  0.12470  0.94710  1.0000 -0.8101322714
O   O73       1.0  0.27831  0.88851  0.97870  1.0000 -0.770430437
O   O74       1.0  0.57871  0.80751  0.05990  1.0000 -0.8295064184
O   O75       1.0  0.64750  0.62130  0.89350  1.0000 -0.7410113427
O   O76       1.0  0.58346  0.86486  0.86130  1.0000 -0.8193719531
O   O77       1.0  0.28530  0.94070  0.77660  1.0000 -0.8672711614
O   O78       1.0  0.20010  0.16470  0.83860  1.0000 -0.5128054043
O   O79       1.0  0.19980  0.10940  0.04470  1.0000 -0.4919559273
O   O80       1.0  0.40440  0.92360  0.11020  1.0000 -0.5419167491
O   O81       1.0  0.77140  0.65900  0.02490  1.0000 -0.5128054043
O   O82       1.0  0.77400  0.69060  0.90750  1.0000 -0.5206554058
O   O83       1.0  0.40690  0.01510  0.78850  1.0000 -0.4919559273
O   O84       1.0  0.62810  0.65830  0.79180  1.0000 -0.757064766
O   O85       1.0  0.46750  0.80270  0.73900  1.0000 -0.7810436202
O   O86       1.0  0.57570  0.62570  0.67420  1.0000 -0.757064766
O   O87       1.0  0.46030  0.64930  0.72290  1.0000 -0.8193719531
O   O88       1.0  0.35500  0.73640  0.82160  1.0000 -0.8193719531
O   O89       1.0  0.11230  0.06190  0.82470  1.0000 -0.7521214324
O   O90       1.0  0.10930  0.03730  0.91550  1.0000 -0.757064766
O   O91       1.0  0.95040  0.08740  0.82420  1.0000 -0.7810436202
O   O92       1.0  0.62658  0.60098  0.98700  1.0000 -0.7229082349
O   O93       1.0  0.58640  0.53840  0.03640  1.0000 -0.788901991
O   O94       1.0  0.46021  0.72141  0.02430  1.0000 -0.7521214324
O   O95       1.0  0.47757  0.56517  0.92640  1.0000 -0.7112347844
O   O96       1.0  0.10480  0.90660  0.80550  1.0000 -0.7810436202
O   O97       1.0  0.19274  0.53154  0.64680  1.0000 -0.8534697754
O   O98       1.0  0.07652  0.69492  0.60970  1.0000 -0.8381160943
O   O99       1.0  0.49000  0.44680  0.67450  1.0000 -0.2978617016
O   O100      1.0  0.22413  0.53593  0.56140  1.0000 -0.8381160943
O   O101      1.0  0.16822  0.39062  0.52920  1.0000 -0.8571047548
O   O102      1.0  0.97988  0.60028  0.59770  1.0000 -0.8534697754
O   O103      1.0  0.01662  0.60042  0.48000  1.0000 -0.8534697754
O   O104      1.0  0.87530  0.77290  0.55290  1.0000 -0.8101322714
O   O105      1.0  0.11149  0.72169  0.52130  1.0000 -0.770430437
O   O106      1.0  0.19249  0.42129  0.44010  1.0000 -0.8193719531
O   O107      1.0  0.37870  0.35250  0.60650  1.0000 -0.7410113427
O   O108      1.0  0.13514  0.41654  0.63870  1.0000 -0.8193719531
O   O109      1.0  0.05930  0.71470  0.72340  1.0000 -0.8672711614
O   O110      1.0  0.83530  0.79990  0.66140  1.0000 -0.5128054043
O   O111      1.0  0.89060  0.80020  0.45530  1.0000 -0.4919559273
O   O112      1.0  0.07640  0.59560  0.38980  1.0000 -0.5419167491
O   O113      1.0  0.34100  0.22860  0.47510  1.0000 -0.5206554058
O   O114      1.0  0.30940  0.22600  0.59250  1.0000 -0.5206554058
O   O115      1.0  0.98490  0.59310  0.71150  1.0000 -0.4919559273
O   O116      1.0  0.34170  0.37190  0.70820  1.0000 -0.757064766
O   O117      1.0  0.19730  0.53250  0.76100  1.0000 -0.7810436202
O   O118      1.0  0.37430  0.42430  0.82580  1.0000 -0.757064766
O   O119      1.0  0.35070  0.53970  0.77710  1.0000 -0.8193719531
O   O120      1.0  0.26360  0.64500  0.67840  1.0000 -0.8193719531
O   O121      1.0  0.93810  0.88770  0.67530  1.0000 -0.7521214324
O   O122      1.0  0.96270  0.89070  0.58450  1.0000 -0.757064766
O   O123      1.0  0.91260  0.04960  0.67580  1.0000 -0.7810436202
O   O124      1.0  0.39902  0.37342  0.51300  1.0000 -0.7229082349
O   O125      1.0  0.46160  0.41360  0.46360  1.0000 -0.788901991
O   O126      1.0  0.27859  0.53979  0.47570  1.0000 -0.7521214324
O   O127      1.0  0.43483  0.52243  0.57360  1.0000 -0.7112347844
O   O128      1.0  0.09340  0.89520  0.69450  1.0000 -0.7810436202
