# DDEC6 charges by PACMAN v1.1 (https://github.com/mtap-research/PACMAN-charge/)
data_2012[NaCu][nan]3[ION]1
_chemical_formula_sum              "Na24 Cu48 H168 C288 N48 O256"
_cell_length_a       24.3984
_cell_length_b       24.3984
_cell_length_c       24.3984
_cell_angle_alpha    90
_cell_angle_beta     90
_cell_angle_gamma    90

_symmetry_space_group_name_H-M    "P 1"
_symmetry_Int_Tables_number       1

loop_
  _symmetry_equiv_pos_as_xyz
  'x, y, z'

loop_
  _atom_site_type_symbol
  _atom_site_label
  _atom_site_symmetry_multiplicity
  _atom_site_fract_x
  _atom_site_fract_y
  _atom_site_fract_z
  _atom_site_occupancy
  _atom_site_charge
Na  Na1       1.0  0.92440  0.07720  0.66160  1.0000 0.9585712913
Na  Na2       1.0  0.57560  0.92280  0.16160  1.0000 0.9585712913
Na  Na3       1.0  0.07560  0.57720  0.83840  1.0000 0.9585712913
Na  Na4       1.0  0.42440  0.42280  0.33840  1.0000 0.9585712913
Na  Na5       1.0  0.66160  0.92440  0.07720  1.0000 0.9585712913
Na  Na6       1.0  0.16160  0.57560  0.92280  1.0000 0.9585712913
Na  Na7       1.0  0.83840  0.07560  0.57720  1.0000 0.9585712913
Na  Na8       1.0  0.33840  0.42440  0.42280  1.0000 0.9585712913
Na  Na9       1.0  0.07720  0.66160  0.92440  1.0000 0.9585712913
Na  Na10      1.0  0.92280  0.16160  0.57560  1.0000 0.9585712913
Na  Na11      1.0  0.57720  0.83840  0.07560  1.0000 0.9585712913
Na  Na12      1.0  0.42280  0.33840  0.42440  1.0000 0.9585712913
Na  Na13      1.0  0.07560  0.92280  0.33840  1.0000 0.9585712913
Na  Na14      1.0  0.42440  0.07720  0.83840  1.0000 0.9585712913
Na  Na15      1.0  0.92440  0.42280  0.16160  1.0000 0.9585712913
Na  Na16      1.0  0.57560  0.57720  0.66160  1.0000 0.9585712913
Na  Na17      1.0  0.33840  0.07560  0.92280  1.0000 0.9585712913
Na  Na18      1.0  0.83840  0.42440  0.07720  1.0000 0.9585712913
Na  Na19      1.0  0.16160  0.92440  0.42280  1.0000 0.9585712913
Na  Na20      1.0  0.66160  0.57560  0.57720  1.0000 0.9585712913
Na  Na21      1.0  0.92280  0.33840  0.07560  1.0000 0.9585712913
Na  Na22      1.0  0.07720  0.83840  0.42440  1.0000 0.9585712913
Na  Na23      1.0  0.42280  0.16160  0.92440  1.0000 0.9585712913
Na  Na24      1.0  0.57720  0.66160  0.57560  1.0000 0.9585712913
Cu  Cu1       1.0  0.78169  0.10923  0.06471  1.0000 0.8572812019
Cu  Cu2       1.0  0.00803  0.15265  0.80254  1.0000 0.869471288
Cu  Cu3       1.0  0.71831  0.89077  0.56471  1.0000 0.8572812019
Cu  Cu4       1.0  0.49197  0.84735  0.30254  1.0000 0.869471288
Cu  Cu5       1.0  0.21831  0.60923  0.43529  1.0000 0.8572812019
Cu  Cu6       1.0  0.99197  0.65265  0.69746  1.0000 0.869471288
Cu  Cu7       1.0  0.28169  0.39077  0.93529  1.0000 0.8572812019
Cu  Cu8       1.0  0.50803  0.34735  0.19746  1.0000 0.869471288
Cu  Cu9       1.0  0.06471  0.78169  0.10923  1.0000 0.8572812019
Cu  Cu10      1.0  0.80254  0.00803  0.15265  1.0000 0.869471288
Cu  Cu11      1.0  0.56471  0.71831  0.89077  1.0000 0.8572812019
Cu  Cu12      1.0  0.30254  0.49197  0.84735  1.0000 0.869471288
Cu  Cu13      1.0  0.43529  0.21831  0.60923  1.0000 0.8572812019
Cu  Cu14      1.0  0.69746  0.99197  0.65265  1.0000 0.869471288
Cu  Cu15      1.0  0.93529  0.28169  0.39077  1.0000 0.8572812019
Cu  Cu16      1.0  0.19746  0.50803  0.34735  1.0000 0.869471288
Cu  Cu17      1.0  0.10923  0.06471  0.78169  1.0000 0.8572812019
Cu  Cu18      1.0  0.15265  0.80254  0.00803  1.0000 0.869471288
Cu  Cu19      1.0  0.89077  0.56471  0.71831  1.0000 0.8572812019
Cu  Cu20      1.0  0.84735  0.30254  0.49197  1.0000 0.869471288
Cu  Cu21      1.0  0.60923  0.43529  0.21831  1.0000 0.8572812019
Cu  Cu22      1.0  0.65265  0.69746  0.99197  1.0000 0.869471288
Cu  Cu23      1.0  0.39077  0.93529  0.28169  1.0000 0.8572812019
Cu  Cu24      1.0  0.34735  0.19746  0.50803  1.0000 0.869471288
Cu  Cu25      1.0  0.21831  0.89077  0.93529  1.0000 0.8572812019
Cu  Cu26      1.0  0.99197  0.84735  0.19746  1.0000 0.869471288
Cu  Cu27      1.0  0.28169  0.10923  0.43529  1.0000 0.8572812019
Cu  Cu28      1.0  0.50803  0.15265  0.69746  1.0000 0.869471288
Cu  Cu29      1.0  0.78169  0.39077  0.56471  1.0000 0.8572812019
Cu  Cu30      1.0  0.00803  0.34735  0.30254  1.0000 0.869471288
Cu  Cu31      1.0  0.71831  0.60923  0.06471  1.0000 0.8572812019
Cu  Cu32      1.0  0.49197  0.65265  0.80254  1.0000 0.869471288
Cu  Cu33      1.0  0.93529  0.21831  0.89077  1.0000 0.8572812019
Cu  Cu34      1.0  0.19746  0.99197  0.84735  1.0000 0.869471288
Cu  Cu35      1.0  0.43529  0.28169  0.10923  1.0000 0.8572812019
Cu  Cu36      1.0  0.69746  0.50803  0.15265  1.0000 0.869471288
Cu  Cu37      1.0  0.56471  0.78169  0.39077  1.0000 0.8572812019
Cu  Cu38      1.0  0.30254  0.00803  0.34735  1.0000 0.869471288
Cu  Cu39      1.0  0.06471  0.71831  0.60923  1.0000 0.8572812019
Cu  Cu40      1.0  0.80254  0.49197  0.65265  1.0000 0.869471288
Cu  Cu41      1.0  0.89077  0.93529  0.21831  1.0000 0.8572812019
Cu  Cu42      1.0  0.84735  0.19746  0.99197  1.0000 0.869471288
Cu  Cu43      1.0  0.10923  0.43529  0.28169  1.0000 0.8572812019
Cu  Cu44      1.0  0.15265  0.69746  0.50803  1.0000 0.869471288
Cu  Cu45      1.0  0.39077  0.56471  0.78169  1.0000 0.8572812019
Cu  Cu46      1.0  0.34735  0.30254  0.00803  1.0000 0.869471288
Cu  Cu47      1.0  0.60923  0.06471  0.71831  1.0000 0.8572812019
Cu  Cu48      1.0  0.65265  0.80254  0.49197  1.0000 0.869471288
H   H1        1.0  0.82900  0.02170  0.05730  1.0000 0.4077270826
H   H2        1.0  0.86300  0.10760  0.90270  1.0000 0.121855806
H   H3        1.0  0.71090  0.05350  0.86940  1.0000 0.1285989148
H   H4        1.0  0.82020  0.07080  0.74830  1.0000 0.1362500576
H   H5        1.0  0.75300  0.20040  0.15800  1.0000 0.121855806
H   H6        1.0  0.78030  0.08020  0.26190  1.0000 0.121855806
H   H7        1.0  0.76030  0.17910  0.25720  1.0000 0.1285989148
H   H8        1.0  0.67100  0.97830  0.55730  1.0000 0.4077270826
H   H9        1.0  0.63700  0.89240  0.40270  1.0000 0.121855806
H   H10       1.0  0.78910  0.94650  0.36940  1.0000 0.1285989148
H   H11       1.0  0.67980  0.92920  0.24830  1.0000 0.1362500576
H   H12       1.0  0.74700  0.79960  0.65800  1.0000 0.121855806
H   H13       1.0  0.71970  0.91980  0.76190  1.0000 0.121855806
H   H14       1.0  0.73970  0.82090  0.75720  1.0000 0.1285989148
H   H15       1.0  0.17100  0.52170  0.44270  1.0000 0.4077270826
H   H16       1.0  0.13700  0.60760  0.59730  1.0000 0.121855806
H   H17       1.0  0.28910  0.55350  0.63060  1.0000 0.1285989148
H   H18       1.0  0.17980  0.57080  0.75170  1.0000 0.1362500576
H   H19       1.0  0.24700  0.70040  0.34200  1.0000 0.121855806
H   H20       1.0  0.21970  0.58020  0.23810  1.0000 0.121855806
H   H21       1.0  0.23970  0.67910  0.24280  1.0000 0.1285989148
H   H22       1.0  0.32900  0.47830  0.94270  1.0000 0.4077270826
H   H23       1.0  0.36300  0.39240  0.09730  1.0000 0.121855806
H   H24       1.0  0.21090  0.44650  0.13060  1.0000 0.1285989148
H   H25       1.0  0.32020  0.42920  0.25170  1.0000 0.1362500576
H   H26       1.0  0.25300  0.29960  0.84200  1.0000 0.121855806
H   H27       1.0  0.28030  0.41980  0.73810  1.0000 0.121855806
H   H28       1.0  0.26030  0.32090  0.74280  1.0000 0.1285989148
H   H29       1.0  0.05730  0.82900  0.02170  1.0000 0.4077270826
H   H30       1.0  0.90270  0.86300  0.10760  1.0000 0.121855806
H   H31       1.0  0.86940  0.71090  0.05350  1.0000 0.1285989148
H   H32       1.0  0.74830  0.82020  0.07080  1.0000 0.1362500576
H   H33       1.0  0.15800  0.75300  0.20040  1.0000 0.121855806
H   H34       1.0  0.26190  0.78030  0.08020  1.0000 0.121855806
H   H35       1.0  0.25720  0.76030  0.17910  1.0000 0.1285989148
H   H36       1.0  0.55730  0.67100  0.97830  1.0000 0.4077270826
H   H37       1.0  0.40270  0.63700  0.89240  1.0000 0.121855806
H   H38       1.0  0.36940  0.78910  0.94650  1.0000 0.1285989148
H   H39       1.0  0.24830  0.67980  0.92920  1.0000 0.1362500576
H   H40       1.0  0.65800  0.74700  0.79960  1.0000 0.121855806
H   H41       1.0  0.76190  0.71970  0.91980  1.0000 0.121855806
H   H42       1.0  0.75720  0.73970  0.82090  1.0000 0.1285989148
H   H43       1.0  0.44270  0.17100  0.52170  1.0000 0.4077270826
H   H44       1.0  0.59730  0.13700  0.60760  1.0000 0.121855806
H   H45       1.0  0.63060  0.28910  0.55350  1.0000 0.1285989148
H   H46       1.0  0.75170  0.17980  0.57080  1.0000 0.1362500576
H   H47       1.0  0.34200  0.24700  0.70040  1.0000 0.121855806
H   H48       1.0  0.23810  0.21970  0.58020  1.0000 0.121855806
H   H49       1.0  0.24280  0.23970  0.67910  1.0000 0.1285989148
H   H50       1.0  0.94270  0.32900  0.47830  1.0000 0.4077270826
H   H51       1.0  0.09730  0.36300  0.39240  1.0000 0.121855806
H   H52       1.0  0.13060  0.21090  0.44650  1.0000 0.1285989148
H   H53       1.0  0.25170  0.32020  0.42920  1.0000 0.1362500576
H   H54       1.0  0.84200  0.25300  0.29960  1.0000 0.121855806
H   H55       1.0  0.73810  0.28030  0.41980  1.0000 0.121855806
H   H56       1.0  0.74280  0.26030  0.32090  1.0000 0.1285989148
H   H57       1.0  0.02170  0.05730  0.82900  1.0000 0.4077270826
H   H58       1.0  0.10760  0.90270  0.86300  1.0000 0.121855806
H   H59       1.0  0.05350  0.86940  0.71090  1.0000 0.1285989148
H   H60       1.0  0.07080  0.74830  0.82020  1.0000 0.1362500576
H   H61       1.0  0.20040  0.15800  0.75300  1.0000 0.121855806
H   H62       1.0  0.08020  0.26190  0.78030  1.0000 0.121855806
H   H63       1.0  0.17910  0.25720  0.76030  1.0000 0.1285989148
H   H64       1.0  0.97830  0.55730  0.67100  1.0000 0.4077270826
H   H65       1.0  0.89240  0.40270  0.63700  1.0000 0.121855806
H   H66       1.0  0.94650  0.36940  0.78910  1.0000 0.1285989148
H   H67       1.0  0.92920  0.24830  0.67980  1.0000 0.1362500576
H   H68       1.0  0.79960  0.65800  0.74700  1.0000 0.121855806
H   H69       1.0  0.91980  0.76190  0.71970  1.0000 0.121855806
H   H70       1.0  0.82090  0.75720  0.73970  1.0000 0.1285989148
H   H71       1.0  0.52170  0.44270  0.17100  1.0000 0.4077270826
H   H72       1.0  0.60760  0.59730  0.13700  1.0000 0.121855806
H   H73       1.0  0.55350  0.63060  0.28910  1.0000 0.1285989148
H   H74       1.0  0.57080  0.75170  0.17980  1.0000 0.1362500576
H   H75       1.0  0.70040  0.34200  0.24700  1.0000 0.121855806
H   H76       1.0  0.58020  0.23810  0.21970  1.0000 0.121855806
H   H77       1.0  0.67910  0.24280  0.23970  1.0000 0.1285989148
H   H78       1.0  0.47830  0.94270  0.32900  1.0000 0.4077270826
H   H79       1.0  0.39240  0.09730  0.36300  1.0000 0.121855806
H   H80       1.0  0.44650  0.13060  0.21090  1.0000 0.1285989148
H   H81       1.0  0.42920  0.25170  0.32020  1.0000 0.1362500576
H   H82       1.0  0.29960  0.84200  0.25300  1.0000 0.121855806
H   H83       1.0  0.41980  0.73810  0.28030  1.0000 0.121855806
H   H84       1.0  0.32090  0.74280  0.26030  1.0000 0.1285989148
H   H85       1.0  0.17100  0.97830  0.94270  1.0000 0.4077270826
H   H86       1.0  0.13700  0.89240  0.09730  1.0000 0.121855806
H   H87       1.0  0.28910  0.94650  0.13060  1.0000 0.1285989148
H   H88       1.0  0.17980  0.92920  0.25170  1.0000 0.1362500576
H   H89       1.0  0.24700  0.79960  0.84200  1.0000 0.121855806
H   H90       1.0  0.21970  0.91980  0.73810  1.0000 0.121855806
H   H91       1.0  0.23970  0.82090  0.74280  1.0000 0.1285989148
H   H92       1.0  0.32900  0.02170  0.44270  1.0000 0.4077270826
H   H93       1.0  0.36300  0.10760  0.59730  1.0000 0.121855806
H   H94       1.0  0.21090  0.05350  0.63060  1.0000 0.1285989148
H   H95       1.0  0.32020  0.07080  0.75170  1.0000 0.1362500576
H   H96       1.0  0.25300  0.20040  0.34200  1.0000 0.121855806
H   H97       1.0  0.28030  0.08020  0.23810  1.0000 0.121855806
H   H98       1.0  0.26030  0.17910  0.24280  1.0000 0.1285989148
H   H99       1.0  0.82900  0.47830  0.55730  1.0000 0.4077270826
H   H100      1.0  0.86300  0.39240  0.40270  1.0000 0.121855806
H   H101      1.0  0.71090  0.44650  0.36940  1.0000 0.1285989148
H   H102      1.0  0.82020  0.42920  0.24830  1.0000 0.1362500576
H   H103      1.0  0.75300  0.29960  0.65800  1.0000 0.121855806
H   H104      1.0  0.78030  0.41980  0.76190  1.0000 0.121855806
H   H105      1.0  0.76030  0.32090  0.75720  1.0000 0.1285989148
H   H106      1.0  0.67100  0.52170  0.05730  1.0000 0.4077270826
H   H107      1.0  0.63700  0.60760  0.90270  1.0000 0.121855806
H   H108      1.0  0.78910  0.55350  0.86940  1.0000 0.1285989148
H   H109      1.0  0.67980  0.57080  0.74830  1.0000 0.1362500576
H   H110      1.0  0.74700  0.70040  0.15800  1.0000 0.121855806
H   H111      1.0  0.71970  0.58020  0.26190  1.0000 0.121855806
H   H112      1.0  0.73970  0.67910  0.25720  1.0000 0.1285989148
H   H113      1.0  0.94270  0.17100  0.97830  1.0000 0.4077270826
H   H114      1.0  0.09730  0.13700  0.89240  1.0000 0.121855806
H   H115      1.0  0.13060  0.28910  0.94650  1.0000 0.1285989148
H   H116      1.0  0.25170  0.17980  0.92920  1.0000 0.1362500576
H   H117      1.0  0.84200  0.24700  0.79960  1.0000 0.121855806
H   H118      1.0  0.73810  0.21970  0.91980  1.0000 0.121855806
H   H119      1.0  0.74280  0.23970  0.82090  1.0000 0.1285989148
H   H120      1.0  0.44270  0.32900  0.02170  1.0000 0.4077270826
H   H121      1.0  0.59730  0.36300  0.10760  1.0000 0.121855806
H   H122      1.0  0.63060  0.21090  0.05350  1.0000 0.1285989148
H   H123      1.0  0.75170  0.32020  0.07080  1.0000 0.1362500576
H   H124      1.0  0.34200  0.25300  0.20040  1.0000 0.121855806
H   H125      1.0  0.23810  0.28030  0.08020  1.0000 0.121855806
H   H126      1.0  0.24280  0.26030  0.17910  1.0000 0.1285989148
H   H127      1.0  0.55730  0.82900  0.47830  1.0000 0.4077270826
H   H128      1.0  0.40270  0.86300  0.39240  1.0000 0.121855806
H   H129      1.0  0.36940  0.71090  0.44650  1.0000 0.1285989148
H   H130      1.0  0.24830  0.82020  0.42920  1.0000 0.1362500576
H   H131      1.0  0.65800  0.75300  0.29960  1.0000 0.121855806
H   H132      1.0  0.76190  0.78030  0.41980  1.0000 0.121855806
H   H133      1.0  0.75720  0.76030  0.32090  1.0000 0.1285989148
H   H134      1.0  0.05730  0.67100  0.52170  1.0000 0.4077270826
H   H135      1.0  0.90270  0.63700  0.60760  1.0000 0.121855806
H   H136      1.0  0.86940  0.78910  0.55350  1.0000 0.1285989148
H   H137      1.0  0.74830  0.67980  0.57080  1.0000 0.1362500576
H   H138      1.0  0.15800  0.74700  0.70040  1.0000 0.121855806
H   H139      1.0  0.26190  0.71970  0.58020  1.0000 0.121855806
H   H140      1.0  0.25720  0.73970  0.67910  1.0000 0.1285989148
H   H141      1.0  0.97830  0.94270  0.17100  1.0000 0.4077270826
H   H142      1.0  0.89240  0.09730  0.13700  1.0000 0.121855806
H   H143      1.0  0.94650  0.13060  0.28910  1.0000 0.1285989148
H   H144      1.0  0.92920  0.25170  0.17980  1.0000 0.1362500576
H   H145      1.0  0.79960  0.84200  0.24700  1.0000 0.121855806
H   H146      1.0  0.91980  0.73810  0.21970  1.0000 0.121855806
H   H147      1.0  0.82090  0.74280  0.23970  1.0000 0.1285989148
H   H148      1.0  0.02170  0.44270  0.32900  1.0000 0.4077270826
H   H149      1.0  0.10760  0.59730  0.36300  1.0000 0.121855806
H   H150      1.0  0.05350  0.63060  0.21090  1.0000 0.1285989148
H   H151      1.0  0.07080  0.75170  0.32020  1.0000 0.1362500576
H   H152      1.0  0.20040  0.34200  0.25300  1.0000 0.121855806
H   H153      1.0  0.08020  0.23810  0.28030  1.0000 0.121855806
H   H154      1.0  0.17910  0.24280  0.26030  1.0000 0.1285989148
H   H155      1.0  0.47830  0.55730  0.82900  1.0000 0.4077270826
H   H156      1.0  0.39240  0.40270  0.86300  1.0000 0.121855806
H   H157      1.0  0.44650  0.36940  0.71090  1.0000 0.1285989148
H   H158      1.0  0.42920  0.24830  0.82020  1.0000 0.1362500576
H   H159      1.0  0.29960  0.65800  0.75300  1.0000 0.121855806
H   H160      1.0  0.41980  0.76190  0.78030  1.0000 0.121855806
H   H161      1.0  0.32090  0.75720  0.76030  1.0000 0.1285989148
H   H162      1.0  0.52170  0.05730  0.67100  1.0000 0.4077270826
H   H163      1.0  0.60760  0.90270  0.63700  1.0000 0.121855806
H   H164      1.0  0.55350  0.86940  0.78910  1.0000 0.1285989148
H   H165      1.0  0.57080  0.74830  0.67980  1.0000 0.1362500576
H   H166      1.0  0.70040  0.15800  0.74700  1.0000 0.121855806
H   H167      1.0  0.58020  0.26190  0.71970  1.0000 0.121855806
H   H168      1.0  0.67910  0.25720  0.73970  1.0000 0.1285989148
C   C1        1.0  0.78490  0.08030  0.89560  1.0000 -0.0272510771
C   C2        1.0  0.77000  0.08230  0.95590  1.0000 0.5497455634
C   C3        1.0  0.85020  0.09200  0.82260  1.0000 -0.0394908264
C   C4        1.0  0.83710  0.09530  0.87770  1.0000 -0.1009824413
C   C5        1.0  0.74590  0.06300  0.85770  1.0000 -0.1185390452
C   C6        1.0  0.75910  0.05990  0.80250  1.0000 -0.0394908264
C   C7        1.0  0.71740  0.04370  0.76060  1.0000 0.5565813271
C   C8        1.0  0.81120  0.07370  0.78530  1.0000 -0.1009824413
C   C9        1.0  0.90560  0.10880  0.80210  1.0000 0.5778414546
C   C10       1.0  0.76100  0.16610  0.17270  1.0000 0.0196542825
C   C11       1.0  0.77570  0.10030  0.22990  1.0000 0.0099933013
C   C12       1.0  0.76450  0.15490  0.22800  1.0000 -0.2124845832
C   C13       1.0  0.71510  0.91970  0.39560  1.0000 -0.0272510771
C   C14       1.0  0.73000  0.91770  0.45590  1.0000 0.5497455634
C   C15       1.0  0.64980  0.90800  0.32260  1.0000 -0.0394908264
C   C16       1.0  0.66290  0.90470  0.37770  1.0000 -0.1056765231
C   C17       1.0  0.75410  0.93700  0.35770  1.0000 -0.1185390452
C   C18       1.0  0.74090  0.94010  0.30250  1.0000 -0.0394908264
C   C19       1.0  0.78260  0.95630  0.26060  1.0000 0.5565813271
C   C20       1.0  0.68880  0.92630  0.28530  1.0000 -0.1009824413
C   C21       1.0  0.59440  0.89120  0.30210  1.0000 0.5778414546
C   C22       1.0  0.73900  0.83390  0.67270  1.0000 0.0196542825
C   C23       1.0  0.72430  0.89970  0.72990  1.0000 0.0099933013
C   C24       1.0  0.73550  0.84510  0.72800  1.0000 -0.2124845832
C   C25       1.0  0.21510  0.58030  0.60440  1.0000 -0.0272510771
C   C26       1.0  0.23000  0.58230  0.54410  1.0000 0.5497455634
C   C27       1.0  0.14980  0.59200  0.67740  1.0000 -0.0394908264
C   C28       1.0  0.16290  0.59530  0.62230  1.0000 -0.1056765231
C   C29       1.0  0.25410  0.56300  0.64230  1.0000 -0.1185390452
C   C30       1.0  0.24090  0.55990  0.69750  1.0000 -0.0394908264
C   C31       1.0  0.28260  0.54370  0.73940  1.0000 0.5565813271
C   C32       1.0  0.18880  0.57370  0.71470  1.0000 -0.1009824413
C   C33       1.0  0.09440  0.60880  0.69790  1.0000 0.5778414546
C   C34       1.0  0.23900  0.66610  0.32730  1.0000 0.0196542825
C   C35       1.0  0.22430  0.60030  0.27010  1.0000 0.0099933013
C   C36       1.0  0.23550  0.65490  0.27200  1.0000 -0.2124845832
C   C37       1.0  0.28490  0.41970  0.10440  1.0000 -0.0272510771
C   C38       1.0  0.27000  0.41770  0.04410  1.0000 0.5497455634
C   C39       1.0  0.35020  0.40800  0.17740  1.0000 -0.0394908264
C   C40       1.0  0.33710  0.40470  0.12230  1.0000 -0.1056765231
C   C41       1.0  0.24590  0.43700  0.14230  1.0000 -0.1185390452
C   C42       1.0  0.25910  0.44010  0.19750  1.0000 -0.0394908264
C   C43       1.0  0.21740  0.45630  0.23940  1.0000 0.5565813271
C   C44       1.0  0.31120  0.42630  0.21470  1.0000 -0.1009824413
C   C45       1.0  0.40560  0.39120  0.19790  1.0000 0.5778414546
C   C46       1.0  0.26100  0.33390  0.82730  1.0000 0.0196542825
C   C47       1.0  0.27570  0.39970  0.77010  1.0000 0.0099933013
C   C48       1.0  0.26450  0.34510  0.77200  1.0000 -0.2124845832
C   C49       1.0  0.89560  0.78490  0.08030  1.0000 -0.0272510771
C   C50       1.0  0.95590  0.77000  0.08230  1.0000 0.5497455634
C   C51       1.0  0.82260  0.85020  0.09200  1.0000 -0.0394908264
C   C52       1.0  0.87770  0.83710  0.09530  1.0000 -0.1009824413
C   C53       1.0  0.85770  0.74590  0.06300  1.0000 -0.1185390452
C   C54       1.0  0.80250  0.75910  0.05990  1.0000 -0.0394908264
C   C55       1.0  0.76060  0.71740  0.04370  1.0000 0.5565813271
C   C56       1.0  0.78530  0.81120  0.07370  1.0000 -0.1009824413
C   C57       1.0  0.80210  0.90560  0.10880  1.0000 0.5778414546
C   C58       1.0  0.17270  0.76100  0.16610  1.0000 0.0196542825
C   C59       1.0  0.22990  0.77570  0.10030  1.0000 0.0099933013
C   C60       1.0  0.22800  0.76450  0.15490  1.0000 -0.2124845832
C   C61       1.0  0.39560  0.71510  0.91970  1.0000 -0.0272510771
C   C62       1.0  0.45590  0.73000  0.91770  1.0000 0.5497455634
C   C63       1.0  0.32260  0.64980  0.90800  1.0000 -0.0394908264
C   C64       1.0  0.37770  0.66290  0.90470  1.0000 -0.1056765231
C   C65       1.0  0.35770  0.75410  0.93700  1.0000 -0.1185390452
C   C66       1.0  0.30250  0.74090  0.94010  1.0000 -0.0394908264
C   C67       1.0  0.26060  0.78260  0.95630  1.0000 0.5565813271
C   C68       1.0  0.28530  0.68880  0.92630  1.0000 -0.1009824413
C   C69       1.0  0.30210  0.59440  0.89120  1.0000 0.5778414546
C   C70       1.0  0.67270  0.73900  0.83390  1.0000 0.0196542825
C   C71       1.0  0.72990  0.72430  0.89970  1.0000 0.0099933013
C   C72       1.0  0.72800  0.73550  0.84510  1.0000 -0.2124845832
C   C73       1.0  0.60440  0.21510  0.58030  1.0000 -0.0272510771
C   C74       1.0  0.54410  0.23000  0.58230  1.0000 0.5497455634
C   C75       1.0  0.67740  0.14980  0.59200  1.0000 -0.0394908264
C   C76       1.0  0.62230  0.16290  0.59530  1.0000 -0.1056765231
C   C77       1.0  0.64230  0.25410  0.56300  1.0000 -0.1185390452
C   C78       1.0  0.69750  0.24090  0.55990  1.0000 -0.0394908264
C   C79       1.0  0.73940  0.28260  0.54370  1.0000 0.5565813271
C   C80       1.0  0.71470  0.18880  0.57370  1.0000 -0.1009824413
C   C81       1.0  0.69790  0.09440  0.60880  1.0000 0.5778414546
C   C82       1.0  0.32730  0.23900  0.66610  1.0000 0.0196542825
C   C83       1.0  0.27010  0.22430  0.60030  1.0000 0.0099933013
C   C84       1.0  0.27200  0.23550  0.65490  1.0000 -0.2124845832
C   C85       1.0  0.10440  0.28490  0.41970  1.0000 -0.0272510771
C   C86       1.0  0.04410  0.27000  0.41770  1.0000 0.5497455634
C   C87       1.0  0.17740  0.35020  0.40800  1.0000 -0.0394908264
C   C88       1.0  0.12230  0.33710  0.40470  1.0000 -0.1056765231
C   C89       1.0  0.14230  0.24590  0.43700  1.0000 -0.1185390452
C   C90       1.0  0.19750  0.25910  0.44010  1.0000 -0.0394908264
C   C91       1.0  0.23940  0.21740  0.45630  1.0000 0.5565813271
C   C92       1.0  0.21470  0.31120  0.42630  1.0000 -0.1009824413
C   C93       1.0  0.19790  0.40560  0.39120  1.0000 0.5778414546
C   C94       1.0  0.82730  0.26100  0.33390  1.0000 0.0196542825
C   C95       1.0  0.77010  0.27570  0.39970  1.0000 0.0099933013
C   C96       1.0  0.77200  0.26450  0.34510  1.0000 -0.2124845832
C   C97       1.0  0.08030  0.89560  0.78490  1.0000 -0.0272510771
C   C98       1.0  0.08230  0.95590  0.77000  1.0000 0.5497455634
C   C99       1.0  0.09200  0.82260  0.85020  1.0000 -0.0394908264
C   C100      1.0  0.09530  0.87770  0.83710  1.0000 -0.1009824413
C   C101      1.0  0.06300  0.85770  0.74590  1.0000 -0.1185390452
C   C102      1.0  0.05990  0.80250  0.75910  1.0000 -0.0394908264
C   C103      1.0  0.04370  0.76060  0.71740  1.0000 0.5565813271
C   C104      1.0  0.07370  0.78530  0.81120  1.0000 -0.1009824413
C   C105      1.0  0.10880  0.80210  0.90560  1.0000 0.5778414546
C   C106      1.0  0.16610  0.17270  0.76100  1.0000 0.0196542825
C   C107      1.0  0.10030  0.22990  0.77570  1.0000 0.0099933013
C   C108      1.0  0.15490  0.22800  0.76450  1.0000 -0.2124845832
C   C109      1.0  0.91970  0.39560  0.71510  1.0000 -0.0272510771
C   C110      1.0  0.91770  0.45590  0.73000  1.0000 0.5497455634
C   C111      1.0  0.90800  0.32260  0.64980  1.0000 -0.0394908264
C   C112      1.0  0.90470  0.37770  0.66290  1.0000 -0.1056765231
C   C113      1.0  0.93700  0.35770  0.75410  1.0000 -0.1185390452
C   C114      1.0  0.94010  0.30250  0.74090  1.0000 -0.0394908264
C   C115      1.0  0.95630  0.26060  0.78260  1.0000 0.5565813271
C   C116      1.0  0.92630  0.28530  0.68880  1.0000 -0.1009824413
C   C117      1.0  0.89120  0.30210  0.59440  1.0000 0.5778414546
C   C118      1.0  0.83390  0.67270  0.73900  1.0000 0.0196542825
C   C119      1.0  0.89970  0.72990  0.72430  1.0000 0.0099933013
C   C120      1.0  0.84510  0.72800  0.73550  1.0000 -0.2124845832
C   C121      1.0  0.58030  0.60440  0.21510  1.0000 -0.0272510771
C   C122      1.0  0.58230  0.54410  0.23000  1.0000 0.5497455634
C   C123      1.0  0.59200  0.67740  0.14980  1.0000 -0.0394908264
C   C124      1.0  0.59530  0.62230  0.16290  1.0000 -0.1056765231
C   C125      1.0  0.56300  0.64230  0.25410  1.0000 -0.1185390452
C   C126      1.0  0.55990  0.69750  0.24090  1.0000 -0.0394908264
C   C127      1.0  0.54370  0.73940  0.28260  1.0000 0.5565813271
C   C128      1.0  0.57370  0.71470  0.18880  1.0000 -0.1009824413
C   C129      1.0  0.60880  0.69790  0.09440  1.0000 0.5778414546
C   C130      1.0  0.66610  0.32730  0.23900  1.0000 0.0196542825
C   C131      1.0  0.60030  0.27010  0.22430  1.0000 0.0099933013
C   C132      1.0  0.65490  0.27200  0.23550  1.0000 -0.2124845832
C   C133      1.0  0.41970  0.10440  0.28490  1.0000 -0.0272510771
C   C134      1.0  0.41770  0.04410  0.27000  1.0000 0.5497455634
C   C135      1.0  0.40800  0.17740  0.35020  1.0000 -0.0394908264
C   C136      1.0  0.40470  0.12230  0.33710  1.0000 -0.1056765231
C   C137      1.0  0.43700  0.14230  0.24590  1.0000 -0.1185390452
C   C138      1.0  0.44010  0.19750  0.25910  1.0000 -0.0394908264
C   C139      1.0  0.45630  0.23940  0.21740  1.0000 0.5565813271
C   C140      1.0  0.42630  0.21470  0.31120  1.0000 -0.1009824413
C   C141      1.0  0.39120  0.19790  0.40560  1.0000 0.5778414546
C   C142      1.0  0.33390  0.82730  0.26100  1.0000 0.0196542825
C   C143      1.0  0.39970  0.77010  0.27570  1.0000 0.0099933013
C   C144      1.0  0.34510  0.77200  0.26450  1.0000 -0.2124845832
C   C145      1.0  0.21510  0.91970  0.10440  1.0000 -0.0272510771
C   C146      1.0  0.23000  0.91770  0.04410  1.0000 0.5497455634
C   C147      1.0  0.14980  0.90800  0.17740  1.0000 -0.0394908264
C   C148      1.0  0.16290  0.90470  0.12230  1.0000 -0.1056765231
C   C149      1.0  0.25410  0.93700  0.14230  1.0000 -0.1185390452
C   C150      1.0  0.24090  0.94010  0.19750  1.0000 -0.0394908264
C   C151      1.0  0.28260  0.95630  0.23940  1.0000 0.5565813271
C   C152      1.0  0.18880  0.92630  0.21470  1.0000 -0.1009824413
C   C153      1.0  0.09440  0.89120  0.19790  1.0000 0.5778414546
C   C154      1.0  0.23900  0.83390  0.82730  1.0000 0.0196542825
C   C155      1.0  0.22430  0.89970  0.77010  1.0000 0.0099933013
C   C156      1.0  0.23550  0.84510  0.77200  1.0000 -0.2124845832
C   C157      1.0  0.28490  0.08030  0.60440  1.0000 -0.0272510771
C   C158      1.0  0.27000  0.08230  0.54410  1.0000 0.5497455634
C   C159      1.0  0.35020  0.09200  0.67740  1.0000 -0.0394908264
C   C160      1.0  0.33710  0.09530  0.62230  1.0000 -0.1056765231
C   C161      1.0  0.24590  0.06300  0.64230  1.0000 -0.1185390452
C   C162      1.0  0.25910  0.05990  0.69750  1.0000 -0.0394908264
C   C163      1.0  0.21740  0.04370  0.73940  1.0000 0.5565813271
C   C164      1.0  0.31120  0.07370  0.71470  1.0000 -0.1009824413
C   C165      1.0  0.40560  0.10880  0.69790  1.0000 0.5778414546
C   C166      1.0  0.26100  0.16610  0.32730  1.0000 0.0196542825
C   C167      1.0  0.27570  0.10030  0.27010  1.0000 0.0099933013
C   C168      1.0  0.26450  0.15490  0.27200  1.0000 -0.2124845832
C   C169      1.0  0.78490  0.41970  0.39560  1.0000 -0.0272510771
C   C170      1.0  0.77000  0.41770  0.45590  1.0000 0.5497455634
C   C171      1.0  0.85020  0.40800  0.32260  1.0000 -0.0394908264
C   C172      1.0  0.83710  0.40470  0.37770  1.0000 -0.1009824413
C   C173      1.0  0.74590  0.43700  0.35770  1.0000 -0.1185390452
C   C174      1.0  0.75910  0.44010  0.30250  1.0000 -0.0394908264
C   C175      1.0  0.71740  0.45630  0.26060  1.0000 0.5565813271
C   C176      1.0  0.81120  0.42630  0.28530  1.0000 -0.1009824413
C   C177      1.0  0.90560  0.39120  0.30210  1.0000 0.5778414546
C   C178      1.0  0.76100  0.33390  0.67270  1.0000 0.0196542825
C   C179      1.0  0.77570  0.39970  0.72990  1.0000 0.0099933013
C   C180      1.0  0.76450  0.34510  0.72800  1.0000 -0.2124845832
C   C181      1.0  0.71510  0.58030  0.89560  1.0000 -0.0272510771
C   C182      1.0  0.73000  0.58230  0.95590  1.0000 0.5497455634
C   C183      1.0  0.64980  0.59200  0.82260  1.0000 -0.0394908264
C   C184      1.0  0.66290  0.59530  0.87770  1.0000 -0.1056765231
C   C185      1.0  0.75410  0.56300  0.85770  1.0000 -0.1185390452
C   C186      1.0  0.74090  0.55990  0.80250  1.0000 -0.0394908264
C   C187      1.0  0.78260  0.54370  0.76060  1.0000 0.5565813271
C   C188      1.0  0.68880  0.57370  0.78530  1.0000 -0.1009824413
C   C189      1.0  0.59440  0.60880  0.80210  1.0000 0.5778414546
C   C190      1.0  0.73900  0.66610  0.17270  1.0000 0.0196542825
C   C191      1.0  0.72430  0.60030  0.22990  1.0000 0.0099933013
C   C192      1.0  0.73550  0.65490  0.22800  1.0000 -0.2124845832
C   C193      1.0  0.10440  0.21510  0.91970  1.0000 -0.0272510771
C   C194      1.0  0.04410  0.23000  0.91770  1.0000 0.5497455634
C   C195      1.0  0.17740  0.14980  0.90800  1.0000 -0.0394908264
C   C196      1.0  0.12230  0.16290  0.90470  1.0000 -0.1056765231
C   C197      1.0  0.14230  0.25410  0.93700  1.0000 -0.1185390452
C   C198      1.0  0.19750  0.24090  0.94010  1.0000 -0.0394908264
C   C199      1.0  0.23940  0.28260  0.95630  1.0000 0.5565813271
C   C200      1.0  0.21470  0.18880  0.92630  1.0000 -0.1009824413
C   C201      1.0  0.19790  0.09440  0.89120  1.0000 0.5778414546
C   C202      1.0  0.82730  0.23900  0.83390  1.0000 0.0196542825
C   C203      1.0  0.77010  0.22430  0.89970  1.0000 0.0099933013
C   C204      1.0  0.77200  0.23550  0.84510  1.0000 -0.2124845832
C   C205      1.0  0.60440  0.28490  0.08030  1.0000 -0.0272510771
C   C206      1.0  0.54410  0.27000  0.08230  1.0000 0.5497455634
C   C207      1.0  0.67740  0.35020  0.09200  1.0000 -0.0394908264
C   C208      1.0  0.62230  0.33710  0.09530  1.0000 -0.1056765231
C   C209      1.0  0.64230  0.24590  0.06300  1.0000 -0.1185390452
C   C210      1.0  0.69750  0.25910  0.05990  1.0000 -0.0394908264
C   C211      1.0  0.73940  0.21740  0.04370  1.0000 0.5565813271
C   C212      1.0  0.71470  0.31120  0.07370  1.0000 -0.1009824413
C   C213      1.0  0.69790  0.40560  0.10880  1.0000 0.5778414546
C   C214      1.0  0.32730  0.26100  0.16610  1.0000 0.0196542825
C   C215      1.0  0.27010  0.27570  0.10030  1.0000 0.0099933013
C   C216      1.0  0.27200  0.26450  0.15490  1.0000 -0.2124845832
C   C217      1.0  0.39560  0.78490  0.41970  1.0000 -0.0272510771
C   C218      1.0  0.45590  0.77000  0.41770  1.0000 0.5497455634
C   C219      1.0  0.32260  0.85020  0.40800  1.0000 -0.0394908264
C   C220      1.0  0.37770  0.83710  0.40470  1.0000 -0.1009824413
C   C221      1.0  0.35770  0.74590  0.43700  1.0000 -0.1185390452
C   C222      1.0  0.30250  0.75910  0.44010  1.0000 -0.0394908264
C   C223      1.0  0.26060  0.71740  0.45630  1.0000 0.5565813271
C   C224      1.0  0.28530  0.81120  0.42630  1.0000 -0.1009824413
C   C225      1.0  0.30210  0.90560  0.39120  1.0000 0.5778414546
C   C226      1.0  0.67270  0.76100  0.33390  1.0000 0.0196542825
C   C227      1.0  0.72990  0.77570  0.39970  1.0000 0.0099933013
C   C228      1.0  0.72800  0.76450  0.34510  1.0000 -0.2124845832
C   C229      1.0  0.89560  0.71510  0.58030  1.0000 -0.0272510771
C   C230      1.0  0.95590  0.73000  0.58230  1.0000 0.5497455634
C   C231      1.0  0.82260  0.64980  0.59200  1.0000 -0.0394908264
C   C232      1.0  0.87770  0.66290  0.59530  1.0000 -0.1056765231
C   C233      1.0  0.85770  0.75410  0.56300  1.0000 -0.1185390452
C   C234      1.0  0.80250  0.74090  0.55990  1.0000 -0.0394908264
C   C235      1.0  0.76060  0.78260  0.54370  1.0000 0.5565813271
C   C236      1.0  0.78530  0.68880  0.57370  1.0000 -0.1009824413
C   C237      1.0  0.80210  0.59440  0.60880  1.0000 0.5778414546
C   C238      1.0  0.17270  0.73900  0.66610  1.0000 0.0196542825
C   C239      1.0  0.22990  0.72430  0.60030  1.0000 0.0099933013
C   C240      1.0  0.22800  0.73550  0.65490  1.0000 -0.2124845832
C   C241      1.0  0.91970  0.10440  0.21510  1.0000 -0.0272510771
C   C242      1.0  0.91770  0.04410  0.23000  1.0000 0.5497455634
C   C243      1.0  0.90800  0.17740  0.14980  1.0000 -0.0394908264
C   C244      1.0  0.90470  0.12230  0.16290  1.0000 -0.1056765231
C   C245      1.0  0.93700  0.14230  0.25410  1.0000 -0.1185390452
C   C246      1.0  0.94010  0.19750  0.24090  1.0000 -0.0394908264
C   C247      1.0  0.95630  0.23940  0.28260  1.0000 0.5565813271
C   C248      1.0  0.92630  0.21470  0.18880  1.0000 -0.1009824413
C   C249      1.0  0.89120  0.19790  0.09440  1.0000 0.5778414546
C   C250      1.0  0.83390  0.82730  0.23900  1.0000 0.0196542825
C   C251      1.0  0.89970  0.77010  0.22430  1.0000 0.0099933013
C   C252      1.0  0.84510  0.77200  0.23550  1.0000 -0.2124845832
C   C253      1.0  0.08030  0.60440  0.28490  1.0000 -0.0272510771
C   C254      1.0  0.08230  0.54410  0.27000  1.0000 0.5497455634
C   C255      1.0  0.09200  0.67740  0.35020  1.0000 -0.0394908264
C   C256      1.0  0.09530  0.62230  0.33710  1.0000 -0.1056765231
C   C257      1.0  0.06300  0.64230  0.24590  1.0000 -0.1185390452
C   C258      1.0  0.05990  0.69750  0.25910  1.0000 -0.0394908264
C   C259      1.0  0.04370  0.73940  0.21740  1.0000 0.5565813271
C   C260      1.0  0.07370  0.71470  0.31120  1.0000 -0.1009824413
C   C261      1.0  0.10880  0.69790  0.40560  1.0000 0.5778414546
C   C262      1.0  0.16610  0.32730  0.26100  1.0000 0.0196542825
C   C263      1.0  0.10030  0.27010  0.27570  1.0000 0.0099933013
C   C264      1.0  0.15490  0.27200  0.26450  1.0000 -0.2124845832
C   C265      1.0  0.41970  0.39560  0.78490  1.0000 -0.0272510771
C   C266      1.0  0.41770  0.45590  0.77000  1.0000 0.5497455634
C   C267      1.0  0.40800  0.32260  0.85020  1.0000 -0.0394908264
C   C268      1.0  0.40470  0.37770  0.83710  1.0000 -0.1009824413
C   C269      1.0  0.43700  0.35770  0.74590  1.0000 -0.1185390452
C   C270      1.0  0.44010  0.30250  0.75910  1.0000 -0.0394908264
C   C271      1.0  0.45630  0.26060  0.71740  1.0000 0.5565813271
C   C272      1.0  0.42630  0.28530  0.81120  1.0000 -0.1009824413
C   C273      1.0  0.39120  0.30210  0.90560  1.0000 0.5778414546
C   C274      1.0  0.33390  0.67270  0.76100  1.0000 0.0196542825
C   C275      1.0  0.39970  0.72990  0.77570  1.0000 0.0099933013
C   C276      1.0  0.34510  0.72800  0.76450  1.0000 -0.2124845832
C   C277      1.0  0.58030  0.89560  0.71510  1.0000 -0.0272510771
C   C278      1.0  0.58230  0.95590  0.73000  1.0000 0.5497455634
C   C279      1.0  0.59200  0.82260  0.64980  1.0000 -0.0394908264
C   C280      1.0  0.59530  0.87770  0.66290  1.0000 -0.1056765231
C   C281      1.0  0.56300  0.85770  0.75410  1.0000 -0.1185390452
C   C282      1.0  0.55990  0.80250  0.74090  1.0000 -0.0394908264
C   C283      1.0  0.54370  0.76060  0.78260  1.0000 0.5565813271
C   C284      1.0  0.57370  0.78530  0.68880  1.0000 -0.1009824413
C   C285      1.0  0.60880  0.80210  0.59440  1.0000 0.5778414546
C   C286      1.0  0.66610  0.17270  0.73900  1.0000 0.0196542825
C   C287      1.0  0.60030  0.22990  0.72430  1.0000 0.0099933013
C   C288      1.0  0.65490  0.22800  0.73550  1.0000 -0.2124845832
N   N1        1.0  0.77910  0.07940  0.17890  1.0000 -0.2124845832
N   N2        1.0  0.77050  0.12110  0.14310  1.0000 -0.2124845832
N   N3        1.0  0.72090  0.92060  0.67890  1.0000 -0.2124845832
N   N4        1.0  0.72950  0.87890  0.64310  1.0000 -0.2124845832
N   N5        1.0  0.22090  0.57940  0.32110  1.0000 -0.2124845832
N   N6        1.0  0.22950  0.62110  0.35690  1.0000 -0.2124845832
N   N7        1.0  0.27910  0.42060  0.82110  1.0000 -0.2124845832
N   N8        1.0  0.27050  0.37890  0.85690  1.0000 -0.2124845832
N   N9        1.0  0.17890  0.77910  0.07940  1.0000 -0.2124845832
N   N10       1.0  0.14310  0.77050  0.12110  1.0000 -0.2124845832
N   N11       1.0  0.67890  0.72090  0.92060  1.0000 -0.2124845832
N   N12       1.0  0.64310  0.72950  0.87890  1.0000 -0.2124845832
N   N13       1.0  0.32110  0.22090  0.57940  1.0000 -0.2124845832
N   N14       1.0  0.35690  0.22950  0.62110  1.0000 -0.2124845832
N   N15       1.0  0.82110  0.27910  0.42060  1.0000 -0.2124845832
N   N16       1.0  0.85690  0.27050  0.37890  1.0000 -0.2124845832
N   N17       1.0  0.07940  0.17890  0.77910  1.0000 -0.2124845832
N   N18       1.0  0.12110  0.14310  0.77050  1.0000 -0.2124845832
N   N19       1.0  0.92060  0.67890  0.72090  1.0000 -0.2124845832
N   N20       1.0  0.87890  0.64310  0.72950  1.0000 -0.2124845832
N   N21       1.0  0.57940  0.32110  0.22090  1.0000 -0.2124845832
N   N22       1.0  0.62110  0.35690  0.22950  1.0000 -0.2124845832
N   N23       1.0  0.42060  0.82110  0.27910  1.0000 -0.2124845832
N   N24       1.0  0.37890  0.85690  0.27050  1.0000 -0.2124845832
N   N25       1.0  0.22090  0.92060  0.82110  1.0000 -0.2124845832
N   N26       1.0  0.22950  0.87890  0.85690  1.0000 -0.2124845832
N   N27       1.0  0.27910  0.07940  0.32110  1.0000 -0.2124845832
N   N28       1.0  0.27050  0.12110  0.35690  1.0000 -0.2124845832
N   N29       1.0  0.77910  0.42060  0.67890  1.0000 -0.2124845832
N   N30       1.0  0.77050  0.37890  0.64310  1.0000 -0.2124845832
N   N31       1.0  0.72090  0.57940  0.17890  1.0000 -0.2124845832
N   N32       1.0  0.72950  0.62110  0.14310  1.0000 -0.2124845832
N   N33       1.0  0.82110  0.22090  0.92060  1.0000 -0.2124845832
N   N34       1.0  0.85690  0.22950  0.87890  1.0000 -0.2124845832
N   N35       1.0  0.32110  0.27910  0.07940  1.0000 -0.2124845832
N   N36       1.0  0.35690  0.27050  0.12110  1.0000 -0.2124845832
N   N37       1.0  0.67890  0.77910  0.42060  1.0000 -0.2124845832
N   N38       1.0  0.64310  0.77050  0.37890  1.0000 -0.2124845832
N   N39       1.0  0.17890  0.72090  0.57940  1.0000 -0.2124845832
N   N40       1.0  0.14310  0.72950  0.62110  1.0000 -0.2124845832
N   N41       1.0  0.92060  0.82110  0.22090  1.0000 -0.2124845832
N   N42       1.0  0.87890  0.85690  0.22950  1.0000 -0.2124845832
N   N43       1.0  0.07940  0.32110  0.27910  1.0000 -0.2124845832
N   N44       1.0  0.12110  0.35690  0.27050  1.0000 -0.2124845832
N   N45       1.0  0.42060  0.67890  0.77910  1.0000 -0.2124845832
N   N46       1.0  0.37890  0.64310  0.77050  1.0000 -0.2124845832
N   N47       1.0  0.57940  0.17890  0.72090  1.0000 -0.2124845832
N   N48       1.0  0.62110  0.14310  0.72950  1.0000 -0.2124845832
O   O1        1.0  0.80422  0.10490  0.98774  1.0000 -0.5902596078
O   O2        1.0  0.72640  0.06270  0.97130  1.0000 -0.4770392659
O   O3        1.0  0.93839  0.13081  0.83571  1.0000 -0.5678144258
O   O4        1.0  0.73521  0.02660  0.71563  1.0000 -0.4895133959
O   O5        1.0  0.91760  0.10100  0.75290  1.0000 -0.5314329874
O   O6        1.0  0.66735  0.04946  0.77287  1.0000 -0.5314329874
O   O7        1.0  0.81379  0.04013  0.08234  1.0000 -0.7565482867
O   O8        1.0  0.84350  0.01320  0.65240  1.0000 -0.4702474669
O   O9        1.0  0.94490  0.98910  0.70200  1.0000 0.0283570824
O   O10       1.0  0.01790  0.06270  0.67360  1.0000 0.4601179598
O   O11       1.0  0.69578  0.89510  0.48774  1.0000 -0.5902596078
O   O12       1.0  0.77360  0.93730  0.47130  1.0000 -0.4770392659
O   O13       1.0  0.56161  0.86919  0.33571  1.0000 -0.5678144258
O   O14       1.0  0.76479  0.97340  0.21563  1.0000 -0.4895133959
O   O15       1.0  0.58240  0.89900  0.25290  1.0000 -0.5314329874
O   O16       1.0  0.83265  0.95054  0.27287  1.0000 -0.5314329874
O   O17       1.0  0.68621  0.95987  0.58234  1.0000 -0.7565482867
O   O18       1.0  0.65650  0.98680  0.15240  1.0000 -0.4523229859
O   O19       1.0  0.55510  0.01090  0.20200  1.0000 -0.0022411284
O   O20       1.0  0.48210  0.93730  0.17360  1.0000 0.4880451558
O   O21       1.0  0.19578  0.60490  0.51226  1.0000 -0.5902596078
O   O22       1.0  0.27360  0.56270  0.52870  1.0000 -0.4702474669
O   O23       1.0  0.06161  0.63081  0.66429  1.0000 -0.5678144258
O   O24       1.0  0.26479  0.52660  0.78437  1.0000 -0.4895133959
O   O25       1.0  0.08240  0.60100  0.74710  1.0000 -0.5314329874
O   O26       1.0  0.33265  0.54946  0.72713  1.0000 -0.5314329874
O   O27       1.0  0.18621  0.54013  0.41766  1.0000 -0.7565482867
O   O28       1.0  0.15650  0.51320  0.84760  1.0000 -0.4594350106
O   O29       1.0  0.05510  0.48910  0.79800  1.0000 0.0023108592
O   O30       1.0  0.98210  0.56270  0.82640  1.0000 0.4880451558
O   O31       1.0  0.30422  0.39510  0.01226  1.0000 -0.5902596078
O   O32       1.0  0.22640  0.43730  0.02870  1.0000 -0.4770392659
O   O33       1.0  0.43839  0.36919  0.16429  1.0000 -0.5678144258
O   O34       1.0  0.23521  0.47340  0.28437  1.0000 -0.4895133959
O   O35       1.0  0.41760  0.39900  0.24710  1.0000 -0.5314329874
O   O36       1.0  0.16735  0.45054  0.22713  1.0000 -0.5314329874
O   O37       1.0  0.31379  0.45987  0.91766  1.0000 -0.7565482867
O   O38       1.0  0.34350  0.48680  0.34760  1.0000 -0.4443697296
O   O39       1.0  0.44490  0.51090  0.29800  1.0000 0.0099933013
O   O40       1.0  0.51790  0.43730  0.32640  1.0000 0.4480514365
O   O41       1.0  0.98774  0.80422  0.10490  1.0000 -0.5902596078
O   O42       1.0  0.97130  0.72640  0.06270  1.0000 -0.4770392659
O   O43       1.0  0.83571  0.93839  0.13081  1.0000 -0.5678144258
O   O44       1.0  0.71563  0.73521  0.02660  1.0000 -0.4895133959
O   O45       1.0  0.75290  0.91760  0.10100  1.0000 -0.5314329874
O   O46       1.0  0.77287  0.66735  0.04946  1.0000 -0.5314329874
O   O47       1.0  0.08234  0.81379  0.04013  1.0000 -0.7565482867
O   O48       1.0  0.65240  0.84350  0.01320  1.0000 -0.4702474669
O   O49       1.0  0.70200  0.94490  0.98910  1.0000 0.0283570824
O   O50       1.0  0.67360  0.01790  0.06270  1.0000 0.4601179598
O   O51       1.0  0.48774  0.69578  0.89510  1.0000 -0.5902596078
O   O52       1.0  0.47130  0.77360  0.93730  1.0000 -0.4770392659
O   O53       1.0  0.33571  0.56161  0.86919  1.0000 -0.5678144258
O   O54       1.0  0.21563  0.76479  0.97340  1.0000 -0.4895133959
O   O55       1.0  0.25290  0.58240  0.89900  1.0000 -0.5314329874
O   O56       1.0  0.27287  0.83265  0.95054  1.0000 -0.5314329874
O   O57       1.0  0.58234  0.68621  0.95987  1.0000 -0.7565482867
O   O58       1.0  0.15240  0.65650  0.98680  1.0000 -0.4523229859
O   O59       1.0  0.20200  0.55510  0.01090  1.0000 -0.0061503587
O   O60       1.0  0.17360  0.48210  0.93730  1.0000 0.483324015
O   O61       1.0  0.51226  0.19578  0.60490  1.0000 -0.5902596078
O   O62       1.0  0.52870  0.27360  0.56270  1.0000 -0.4702474669
O   O63       1.0  0.66429  0.06161  0.63081  1.0000 -0.5678144258
O   O64       1.0  0.78437  0.26479  0.52660  1.0000 -0.4895133959
O   O65       1.0  0.74710  0.08240  0.60100  1.0000 -0.5314329874
O   O66       1.0  0.72713  0.33265  0.54946  1.0000 -0.5314329874
O   O67       1.0  0.41766  0.18621  0.54013  1.0000 -0.7565482867
O   O68       1.0  0.84760  0.15650  0.51320  1.0000 -0.4594350106
O   O69       1.0  0.79800  0.05510  0.48910  1.0000 0.0023108592
O   O70       1.0  0.82640  0.98210  0.56270  1.0000 0.4880451558
O   O71       1.0  0.01226  0.30422  0.39510  1.0000 -0.5902596078
O   O72       1.0  0.02870  0.22640  0.43730  1.0000 -0.4770392659
O   O73       1.0  0.16429  0.43839  0.36919  1.0000 -0.5678144258
O   O74       1.0  0.28437  0.23521  0.47340  1.0000 -0.4895133959
O   O75       1.0  0.24710  0.41760  0.39900  1.0000 -0.5314329874
O   O76       1.0  0.22713  0.16735  0.45054  1.0000 -0.5314329874
O   O77       1.0  0.91766  0.31379  0.45987  1.0000 -0.7565482867
O   O78       1.0  0.34760  0.34350  0.48680  1.0000 -0.4443697296
O   O79       1.0  0.29800  0.44490  0.51090  1.0000 0.0099933013
O   O80       1.0  0.32640  0.51790  0.43730  1.0000 0.4480514365
O   O81       1.0  0.10490  0.98774  0.80422  1.0000 -0.5902596078
O   O82       1.0  0.06270  0.97130  0.72640  1.0000 -0.4770392659
O   O83       1.0  0.13081  0.83571  0.93839  1.0000 -0.5678144258
O   O84       1.0  0.02660  0.71563  0.73521  1.0000 -0.4895133959
O   O85       1.0  0.10100  0.75290  0.91760  1.0000 -0.5314329874
O   O86       1.0  0.04946  0.77287  0.66735  1.0000 -0.5314329874
O   O87       1.0  0.04013  0.08234  0.81379  1.0000 -0.7565482867
O   O88       1.0  0.01320  0.65240  0.84350  1.0000 -0.4702474669
O   O89       1.0  0.98910  0.70200  0.94490  1.0000 0.0283570824
O   O90       1.0  0.06270  0.67360  0.01790  1.0000 0.4698823884
O   O91       1.0  0.89510  0.48774  0.69578  1.0000 -0.5902596078
O   O92       1.0  0.93730  0.47130  0.77360  1.0000 -0.4770392659
O   O93       1.0  0.86919  0.33571  0.56161  1.0000 -0.5678144258
O   O94       1.0  0.97340  0.21563  0.76479  1.0000 -0.4895133959
O   O95       1.0  0.89900  0.25290  0.58240  1.0000 -0.5314329874
O   O96       1.0  0.95054  0.27287  0.83265  1.0000 -0.5314329874
O   O97       1.0  0.95987  0.58234  0.68621  1.0000 -0.7565482867
O   O98       1.0  0.98680  0.15240  0.65650  1.0000 -0.4523229859
O   O99       1.0  0.01090  0.20200  0.55510  1.0000 -0.0022411284
O   O100      1.0  0.93730  0.17360  0.48210  1.0000 0.483324015
O   O101      1.0  0.60490  0.51226  0.19578  1.0000 -0.5902596078
O   O102      1.0  0.56270  0.52870  0.27360  1.0000 -0.4702474669
O   O103      1.0  0.63081  0.66429  0.06161  1.0000 -0.5678144258
O   O104      1.0  0.52660  0.78437  0.26479  1.0000 -0.4895133959
O   O105      1.0  0.60100  0.74710  0.08240  1.0000 -0.5314329874
O   O106      1.0  0.54946  0.72713  0.33265  1.0000 -0.5314329874
O   O107      1.0  0.54013  0.41766  0.18621  1.0000 -0.7565482867
O   O108      1.0  0.51320  0.84760  0.15650  1.0000 -0.4702474669
O   O109      1.0  0.48910  0.79800  0.05510  1.0000 0.0023108592
O   O110      1.0  0.56270  0.82640  0.98210  1.0000 0.483324015
O   O111      1.0  0.39510  0.01226  0.30422  1.0000 -0.5902596078
O   O112      1.0  0.43730  0.02870  0.22640  1.0000 -0.4770392659
O   O113      1.0  0.36919  0.16429  0.43839  1.0000 -0.5678144258
O   O114      1.0  0.47340  0.28437  0.23521  1.0000 -0.4895133959
O   O115      1.0  0.39900  0.24710  0.41760  1.0000 -0.5314329874
O   O116      1.0  0.45054  0.22713  0.16735  1.0000 -0.5314329874
O   O117      1.0  0.45987  0.91766  0.31379  1.0000 -0.7565482867
O   O118      1.0  0.48680  0.34760  0.34350  1.0000 -0.4443697296
O   O119      1.0  0.51090  0.29800  0.44490  1.0000 0.0196542825
O   O120      1.0  0.43730  0.32640  0.51790  1.0000 0.4480514365
O   O121      1.0  0.19578  0.89510  0.01226  1.0000 -0.5902596078
O   O122      1.0  0.27360  0.93730  0.02870  1.0000 -0.4770392659
O   O123      1.0  0.06161  0.86919  0.16429  1.0000 -0.5678144258
O   O124      1.0  0.26479  0.97340  0.28437  1.0000 -0.4895133959
O   O125      1.0  0.08240  0.89900  0.24710  1.0000 -0.5314329874
O   O126      1.0  0.33265  0.95054  0.22713  1.0000 -0.5314329874
O   O127      1.0  0.18621  0.95987  0.91766  1.0000 -0.7565482867
O   O128      1.0  0.15650  0.98680  0.34760  1.0000 -0.4594350106
O   O129      1.0  0.05510  0.01090  0.29800  1.0000 0.0099933013
O   O130      1.0  0.98210  0.93730  0.32640  1.0000 0.4698823884
O   O131      1.0  0.30422  0.10490  0.51226  1.0000 -0.5902596078
O   O132      1.0  0.22640  0.06270  0.52870  1.0000 -0.4702474669
O   O133      1.0  0.43839  0.13081  0.66429  1.0000 -0.5678144258
O   O134      1.0  0.23521  0.02660  0.78437  1.0000 -0.4895133959
O   O135      1.0  0.41760  0.10100  0.74710  1.0000 -0.5314329874
O   O136      1.0  0.16735  0.04946  0.72713  1.0000 -0.5314329874
O   O137      1.0  0.31379  0.04013  0.41766  1.0000 -0.7565482867
O   O138      1.0  0.34350  0.01320  0.84760  1.0000 -0.4594350106
O   O139      1.0  0.44490  0.98910  0.79800  1.0000 0.0099933013
O   O140      1.0  0.51790  0.06270  0.82640  1.0000 0.4601179598
O   O141      1.0  0.80422  0.39510  0.48774  1.0000 -0.5902596078
O   O142      1.0  0.72640  0.43730  0.47130  1.0000 -0.4770392659
O   O143      1.0  0.93839  0.36919  0.33571  1.0000 -0.5678144258
O   O144      1.0  0.73521  0.47340  0.21563  1.0000 -0.4895133959
O   O145      1.0  0.91760  0.39900  0.25290  1.0000 -0.5314329874
O   O146      1.0  0.66735  0.45054  0.27287  1.0000 -0.5314329874
O   O147      1.0  0.81379  0.45987  0.58234  1.0000 -0.7565482867
O   O148      1.0  0.84350  0.48680  0.15240  1.0000 -0.4594350106
O   O149      1.0  0.94490  0.51090  0.20200  1.0000 0.0099933013
O   O150      1.0  0.01790  0.43730  0.17360  1.0000 0.4698823884
O   O151      1.0  0.69578  0.60490  0.98774  1.0000 -0.5902596078
O   O152      1.0  0.77360  0.56270  0.97130  1.0000 -0.4770392659
O   O153      1.0  0.56161  0.63081  0.83571  1.0000 -0.5678144258
O   O154      1.0  0.76479  0.52660  0.71563  1.0000 -0.4895133959
O   O155      1.0  0.58240  0.60100  0.75290  1.0000 -0.5314329874
O   O156      1.0  0.83265  0.54946  0.77287  1.0000 -0.5314329874
O   O157      1.0  0.68621  0.54013  0.08234  1.0000 -0.7565482867
O   O158      1.0  0.65650  0.51320  0.65240  1.0000 -0.4594350106
O   O159      1.0  0.55510  0.48910  0.70200  1.0000 0.0023108592
O   O160      1.0  0.48210  0.56270  0.67360  1.0000 0.483324015
O   O161      1.0  0.01226  0.19578  0.89510  1.0000 -0.5902596078
O   O162      1.0  0.02870  0.27360  0.93730  1.0000 -0.4770392659
O   O163      1.0  0.16429  0.06161  0.86919  1.0000 -0.5678144258
O   O164      1.0  0.28437  0.26479  0.97340  1.0000 -0.4895133959
O   O165      1.0  0.24710  0.08240  0.89900  1.0000 -0.5314329874
O   O166      1.0  0.22713  0.33265  0.95054  1.0000 -0.5314329874
O   O167      1.0  0.91766  0.18621  0.95987  1.0000 -0.7565482867
O   O168      1.0  0.34760  0.15650  0.98680  1.0000 -0.4594350106
O   O169      1.0  0.29800  0.05510  0.01090  1.0000 0.0099933013
O   O170      1.0  0.32640  0.98210  0.93730  1.0000 0.4698823884
O   O171      1.0  0.51226  0.30422  0.10490  1.0000 -0.5902596078
O   O172      1.0  0.52870  0.22640  0.06270  1.0000 -0.4770392659
O   O173      1.0  0.66429  0.43839  0.13081  1.0000 -0.5678144258
O   O174      1.0  0.78437  0.23521  0.02660  1.0000 -0.4895133959
O   O175      1.0  0.74710  0.41760  0.10100  1.0000 -0.5314329874
O   O176      1.0  0.72713  0.16735  0.04946  1.0000 -0.5314329874
O   O177      1.0  0.41766  0.31379  0.04013  1.0000 -0.7565482867
O   O178      1.0  0.84760  0.34350  0.01320  1.0000 -0.4594350106
O   O179      1.0  0.79800  0.44490  0.98910  1.0000 0.0099933013
O   O180      1.0  0.82640  0.51790  0.06270  1.0000 0.4698823884
O   O181      1.0  0.48774  0.80422  0.39510  1.0000 -0.5902596078
O   O182      1.0  0.47130  0.72640  0.43730  1.0000 -0.4770392659
O   O183      1.0  0.33571  0.93839  0.36919  1.0000 -0.5678144258
O   O184      1.0  0.21563  0.73521  0.47340  1.0000 -0.4895133959
O   O185      1.0  0.25290  0.91760  0.39900  1.0000 -0.5314329874
O   O186      1.0  0.27287  0.66735  0.45054  1.0000 -0.5314329874
O   O187      1.0  0.58234  0.81379  0.45987  1.0000 -0.7565482867
O   O188      1.0  0.15240  0.84350  0.48680  1.0000 -0.4594350106
O   O189      1.0  0.20200  0.94490  0.51090  1.0000 0.0099933013
O   O190      1.0  0.17360  0.01790  0.43730  1.0000 0.4601179598
O   O191      1.0  0.98774  0.69578  0.60490  1.0000 -0.5902596078
O   O192      1.0  0.97130  0.77360  0.56270  1.0000 -0.4770392659
O   O193      1.0  0.83571  0.56161  0.63081  1.0000 -0.5678144258
O   O194      1.0  0.71563  0.76479  0.52660  1.0000 -0.4895133959
O   O195      1.0  0.75290  0.58240  0.60100  1.0000 -0.5314329874
O   O196      1.0  0.77287  0.83265  0.54946  1.0000 -0.5314329874
O   O197      1.0  0.08234  0.68621  0.54013  1.0000 -0.7565482867
O   O198      1.0  0.65240  0.65650  0.51320  1.0000 -0.4702474669
O   O199      1.0  0.70200  0.55510  0.48910  1.0000 0.0023108592
O   O200      1.0  0.67360  0.48210  0.56270  1.0000 0.4880451558
O   O201      1.0  0.89510  0.01226  0.19578  1.0000 -0.5902596078
O   O202      1.0  0.93730  0.02870  0.27360  1.0000 -0.4770392659
O   O203      1.0  0.86919  0.16429  0.06161  1.0000 -0.5678144258
O   O204      1.0  0.97340  0.28437  0.26479  1.0000 -0.4895133959
O   O205      1.0  0.89900  0.24710  0.08240  1.0000 -0.5314329874
O   O206      1.0  0.95054  0.22713  0.33265  1.0000 -0.5314329874
O   O207      1.0  0.95987  0.91766  0.18621  1.0000 -0.7565482867
O   O208      1.0  0.98680  0.34760  0.15650  1.0000 -0.4594350106
O   O209      1.0  0.01090  0.29800  0.05510  1.0000 0.0099933013
O   O210      1.0  0.93730  0.32640  0.98210  1.0000 0.4601179598
O   O211      1.0  0.10490  0.51226  0.30422  1.0000 -0.5902596078
O   O212      1.0  0.06270  0.52870  0.22640  1.0000 -0.4770392659
O   O213      1.0  0.13081  0.66429  0.43839  1.0000 -0.5678144258
O   O214      1.0  0.02660  0.78437  0.23521  1.0000 -0.4895133959
O   O215      1.0  0.10100  0.74710  0.41760  1.0000 -0.5314329874
O   O216      1.0  0.04946  0.72713  0.16735  1.0000 -0.5314329874
O   O217      1.0  0.04013  0.41766  0.31379  1.0000 -0.7565482867
O   O218      1.0  0.01320  0.84760  0.34350  1.0000 -0.4594350106
O   O219      1.0  0.98910  0.79800  0.44490  1.0000 0.0099933013
O   O220      1.0  0.06270  0.82640  0.51790  1.0000 0.4698823884
O   O221      1.0  0.39510  0.48774  0.80422  1.0000 -0.5902596078
O   O222      1.0  0.43730  0.47130  0.72640  1.0000 -0.4770392659
O   O223      1.0  0.36919  0.33571  0.93839  1.0000 -0.5678144258
O   O224      1.0  0.47340  0.21563  0.73521  1.0000 -0.4895133959
O   O225      1.0  0.39900  0.25290  0.91760  1.0000 -0.5314329874
O   O226      1.0  0.45054  0.27287  0.66735  1.0000 -0.5314329874
O   O227      1.0  0.45987  0.58234  0.81379  1.0000 -0.7565482867
O   O228      1.0  0.48680  0.15240  0.84350  1.0000 -0.4594350106
O   O229      1.0  0.51090  0.20200  0.94490  1.0000 0.0099933013
O   O230      1.0  0.43730  0.17360  0.01790  1.0000 0.4698823884
O   O231      1.0  0.60490  0.98774  0.69578  1.0000 -0.5902596078
O   O232      1.0  0.56270  0.97130  0.77360  1.0000 -0.4770392659
O   O233      1.0  0.63081  0.83571  0.56161  1.0000 -0.5678144258
O   O234      1.0  0.52660  0.71563  0.76479  1.0000 -0.4895133959
O   O235      1.0  0.60100  0.75290  0.58240  1.0000 -0.5314329874
O   O236      1.0  0.54946  0.77287  0.83265  1.0000 -0.5314329874
O   O237      1.0  0.54013  0.08234  0.68621  1.0000 -0.7565482867
O   O238      1.0  0.51320  0.65240  0.65650  1.0000 -0.4594350106
O   O239      1.0  0.48910  0.70200  0.55510  1.0000 -0.0022411284
O   O240      1.0  0.56270  0.67360  0.48210  1.0000 0.4880451558
O   O241      1.0  0.85710  0.14290  0.64290  1.0000 -0.7715295436
O   O242      1.0  0.93490  0.06510  0.56510  1.0000 -0.9583124282
O   O243      1.0  0.64290  0.85710  0.14290  1.0000 -0.7715295436
O   O244      1.0  0.56510  0.93490  0.06510  1.0000 -0.9583124282
O   O245      1.0  0.14290  0.64290  0.85710  1.0000 -0.7715295436
O   O246      1.0  0.06510  0.56510  0.93490  1.0000 -0.9583124282
O   O247      1.0  0.35710  0.35710  0.35710  1.0000 -0.7781285407
O   O248      1.0  0.43490  0.43490  0.43490  1.0000 -0.9420810702
O   O249      1.0  0.14290  0.85710  0.35710  1.0000 -0.7781285407
O   O250      1.0  0.06510  0.93490  0.43490  1.0000 -0.9583124282
O   O251      1.0  0.35710  0.14290  0.85710  1.0000 -0.7715295436
O   O252      1.0  0.43490  0.06510  0.93490  1.0000 -0.9583124282
O   O253      1.0  0.85710  0.35710  0.14290  1.0000 -0.7781285407
O   O254      1.0  0.93490  0.43490  0.06510  1.0000 -0.9583124282
O   O255      1.0  0.64290  0.64290  0.64290  1.0000 -0.7715295436
O   O256      1.0  0.56510  0.56510  0.56510  1.0000 -0.9491067888
