# DDEC6 charges by PACMAN v1.1 (https://github.com/mtap-research/PACMAN-charge/)
data_2012[CoTm][nan]3[ION]1
_chemical_formula_sum              "Tm24 Co16 H368 C576 N96 Cl8 O264"
_cell_length_a       18.426
_cell_length_b       18.507
_cell_length_c       48.374
_cell_angle_alpha    90
_cell_angle_beta     90
_cell_angle_gamma    90

_symmetry_space_group_name_H-M    "P 1"
_symmetry_Int_Tables_number       1

loop_
  _symmetry_equiv_pos_as_xyz
  'x, y, z'

loop_
  _atom_site_type_symbol
  _atom_site_label
  _atom_site_symmetry_multiplicity
  _atom_site_fract_x
  _atom_site_fract_y
  _atom_site_fract_z
  _atom_site_occupancy
  _atom_site_charge
Tm  Tm1       1.0  0.79960  0.92953  0.12183  1.0000 2.1602888388
Tm  Tm2       1.0  0.29960  0.07047  0.37817  1.0000 2.1602888388
Tm  Tm3       1.0  0.20040  0.57047  0.62183  1.0000 2.1602888388
Tm  Tm4       1.0  0.70040  0.42953  0.87817  1.0000 2.1602888388
Tm  Tm5       1.0  0.20040  0.07047  0.87817  1.0000 2.1602888388
Tm  Tm6       1.0  0.70040  0.92953  0.62183  1.0000 2.1602888388
Tm  Tm7       1.0  0.79960  0.42953  0.37817  1.0000 2.1602888388
Tm  Tm8       1.0  0.29960  0.57047  0.12183  1.0000 2.1602888388
Tm  Tm9       1.0  0.68100  0.48634  0.12413  1.0000 2.0097222013
Tm  Tm10      1.0  0.18100  0.51366  0.37587  1.0000 2.0097222013
Tm  Tm11      1.0  0.31900  0.01366  0.62413  1.0000 2.0097222013
Tm  Tm12      1.0  0.81900  0.98634  0.87587  1.0000 2.0097222013
Tm  Tm13      1.0  0.31900  0.51366  0.87587  1.0000 2.0097222013
Tm  Tm14      1.0  0.81900  0.48634  0.62413  1.0000 2.0097222013
Tm  Tm15      1.0  0.68100  0.98634  0.37587  1.0000 2.0097222013
Tm  Tm16      1.0  0.18100  0.01366  0.12413  1.0000 2.0097222013
Tm  Tm17      1.0  0.36911  0.90188  0.87771  1.0000 2.1379417462
Tm  Tm18      1.0  0.86911  0.09812  0.62229  1.0000 2.1379417462
Tm  Tm19      1.0  0.63089  0.59812  0.37771  1.0000 2.1379417462
Tm  Tm20      1.0  0.13089  0.40188  0.12229  1.0000 2.1379417462
Tm  Tm21      1.0  0.63089  0.09812  0.12229  1.0000 2.1379417462
Tm  Tm22      1.0  0.13089  0.90188  0.37771  1.0000 2.1379417462
Tm  Tm23      1.0  0.36911  0.40188  0.62229  1.0000 2.1379417462
Tm  Tm24      1.0  0.86911  0.59812  0.87771  1.0000 2.1379417462
Co  Co1       1.0  0.95374  0.61475  0.24460  1.0000 0.5496271459
Co  Co2       1.0  0.45374  0.38525  0.25540  1.0000 0.5496271459
Co  Co3       1.0  0.04626  0.88525  0.74460  1.0000 0.5496271459
Co  Co4       1.0  0.54626  0.11475  0.75540  1.0000 0.5496271459
Co  Co5       1.0  0.04626  0.38525  0.75540  1.0000 0.5496271459
Co  Co6       1.0  0.54626  0.61475  0.74460  1.0000 0.5496271459
Co  Co7       1.0  0.95374  0.11475  0.25540  1.0000 0.5496271459
Co  Co8       1.0  0.45374  0.88525  0.24460  1.0000 0.5496271459
Co  Co9       1.0  0.60833  0.74756  0.00230  1.0000 0.460906936
Co  Co10      1.0  0.10833  0.25244  0.49770  1.0000 0.460906936
Co  Co11      1.0  0.39167  0.75244  0.50230  1.0000 0.460906936
Co  Co12      1.0  0.89167  0.24756  0.99770  1.0000 0.460906936
Co  Co13      1.0  0.39167  0.25244  0.99770  1.0000 0.460906936
Co  Co14      1.0  0.89167  0.74756  0.50230  1.0000 0.460906936
Co  Co15      1.0  0.60833  0.24756  0.49770  1.0000 0.460906936
Co  Co16      1.0  0.10833  0.75244  0.00230  1.0000 0.460906936
H   H1        1.0  0.80110  0.77310  0.12080  1.0000 0.421458359
H   H2        1.0  0.30110  0.22690  0.37920  1.0000 0.421458359
H   H3        1.0  0.19890  0.72690  0.62080  1.0000 0.421458359
H   H4        1.0  0.69890  0.27310  0.87920  1.0000 0.421458359
H   H5        1.0  0.19890  0.22690  0.87920  1.0000 0.421458359
H   H6        1.0  0.69890  0.77310  0.62080  1.0000 0.421458359
H   H7        1.0  0.80110  0.27310  0.37920  1.0000 0.421458359
H   H8        1.0  0.30110  0.72690  0.12080  1.0000 0.421458359
H   H9        1.0  0.72370  0.79270  0.11980  1.0000 0.3998067014
H   H10       1.0  0.22370  0.20730  0.38020  1.0000 0.3998067014
H   H11       1.0  0.27630  0.70730  0.61980  1.0000 0.3998067014
H   H12       1.0  0.77630  0.29270  0.88020  1.0000 0.3998067014
H   H13       1.0  0.27630  0.20730  0.88020  1.0000 0.3998067014
H   H14       1.0  0.77630  0.79270  0.61980  1.0000 0.3998067014
H   H15       1.0  0.72370  0.29270  0.38020  1.0000 0.3998067014
H   H16       1.0  0.22370  0.70730  0.11980  1.0000 0.3998067014
H   H17       1.0  0.55020  0.48120  0.09010  1.0000 0.3998067014
H   H18       1.0  0.05020  0.51880  0.40990  1.0000 0.3998067014
H   H19       1.0  0.44980  0.01880  0.59010  1.0000 0.3998067014
H   H20       1.0  0.94980  0.98120  0.90990  1.0000 0.3998067014
H   H21       1.0  0.44980  0.51880  0.90990  1.0000 0.3998067014
H   H22       1.0  0.94980  0.48120  0.59010  1.0000 0.3998067014
H   H23       1.0  0.55020  0.98120  0.40990  1.0000 0.3998067014
H   H24       1.0  0.05020  0.01880  0.09010  1.0000 0.3998067014
H   H25       1.0  0.54100  0.42170  0.11000  1.0000 0.3998067014
H   H26       1.0  0.04100  0.57830  0.39000  1.0000 0.3998067014
H   H27       1.0  0.45900  0.07830  0.61000  1.0000 0.3998067014
H   H28       1.0  0.95900  0.92170  0.89000  1.0000 0.3998067014
H   H29       1.0  0.45900  0.57830  0.89000  1.0000 0.3998067014
H   H30       1.0  0.95900  0.42170  0.61000  1.0000 0.3998067014
H   H31       1.0  0.54100  0.92170  0.39000  1.0000 0.3998067014
H   H32       1.0  0.04100  0.07830  0.11000  1.0000 0.3998067014
H   H33       1.0  0.68090  0.33160  0.11320  1.0000 0.421458359
H   H34       1.0  0.18090  0.66840  0.38680  1.0000 0.421458359
H   H35       1.0  0.31910  0.16840  0.61320  1.0000 0.421458359
H   H36       1.0  0.81910  0.83160  0.88680  1.0000 0.421458359
H   H37       1.0  0.31910  0.66840  0.88680  1.0000 0.421458359
H   H38       1.0  0.81910  0.33160  0.61320  1.0000 0.421458359
H   H39       1.0  0.68090  0.83160  0.38680  1.0000 0.421458359
H   H40       1.0  0.18090  0.16840  0.11320  1.0000 0.421458359
H   H41       1.0  0.65820  0.33800  0.14230  1.0000 0.421458359
H   H42       1.0  0.15820  0.66200  0.35770  1.0000 0.421458359
H   H43       1.0  0.34180  0.16200  0.64230  1.0000 0.425133912
H   H44       1.0  0.84180  0.83800  0.85770  1.0000 0.425133912
H   H45       1.0  0.34180  0.66200  0.85770  1.0000 0.425133912
H   H46       1.0  0.84180  0.33800  0.64230  1.0000 0.421458359
H   H47       1.0  0.65820  0.83800  0.35770  1.0000 0.421458359
H   H48       1.0  0.15820  0.16200  0.14230  1.0000 0.421458359
H   H49       1.0  0.49890  0.90810  0.90910  1.0000 0.3939082382
H   H50       1.0  0.99890  0.09190  0.59090  1.0000 0.3939082382
H   H51       1.0  0.50110  0.59190  0.40910  1.0000 0.3939082382
H   H52       1.0  0.00110  0.40810  0.09090  1.0000 0.3939082382
H   H53       1.0  0.50110  0.09190  0.09090  1.0000 0.3939082382
H   H54       1.0  0.00110  0.90810  0.40910  1.0000 0.3939082382
H   H55       1.0  0.49890  0.40810  0.59090  1.0000 0.3939082382
H   H56       1.0  0.99890  0.59190  0.90910  1.0000 0.3939082382
H   H57       1.0  0.52110  0.92570  0.88070  1.0000 0.4388739748
H   H58       1.0  0.02110  0.07430  0.61930  1.0000 0.4388739748
H   H59       1.0  0.47890  0.57430  0.38070  1.0000 0.4388739748
H   H60       1.0  0.97890  0.42570  0.11930  1.0000 0.4388739748
H   H61       1.0  0.47890  0.07430  0.11930  1.0000 0.4388739748
H   H62       1.0  0.97890  0.92570  0.38070  1.0000 0.4388739748
H   H63       1.0  0.52110  0.42570  0.61930  1.0000 0.4388739748
H   H64       1.0  0.02110  0.57430  0.88070  1.0000 0.4388739748
H   H65       1.0  0.97120  0.95770  0.12480  1.0000 0.4064180536
H   H66       1.0  0.47120  0.04230  0.37520  1.0000 0.4064180536
H   H67       1.0  0.02880  0.54230  0.62480  1.0000 0.4064180536
H   H68       1.0  0.52880  0.45770  0.87520  1.0000 0.4064180536
H   H69       1.0  0.02880  0.04230  0.87520  1.0000 0.4064180536
H   H70       1.0  0.52880  0.95770  0.62480  1.0000 0.4064180536
H   H71       1.0  0.97120  0.45770  0.37520  1.0000 0.4064180536
H   H72       1.0  0.47120  0.54230  0.12480  1.0000 0.4064180536
H   H73       1.0  0.94050  0.03110  0.12480  1.0000 0.3800388706
H   H74       1.0  0.44050  0.96890  0.37520  1.0000 0.3800388706
H   H75       1.0  0.05950  0.46890  0.62480  1.0000 0.3800388706
H   H76       1.0  0.55950  0.53110  0.87520  1.0000 0.3800388706
H   H77       1.0  0.05950  0.96890  0.87520  1.0000 0.3800388706
H   H78       1.0  0.55950  0.03110  0.62480  1.0000 0.3800388706
H   H79       1.0  0.94050  0.53110  0.37520  1.0000 0.3800388706
H   H80       1.0  0.44050  0.46890  0.12480  1.0000 0.3800388706
H   H81       1.0  0.53770  0.72490  0.94510  1.0000 0.1115764772
H   H82       1.0  0.03770  0.27510  0.55490  1.0000 0.1115764772
H   H83       1.0  0.46230  0.77510  0.44510  1.0000 0.1115764772
H   H84       1.0  0.96230  0.22490  0.05490  1.0000 0.1115764772
H   H85       1.0  0.46230  0.27510  0.05490  1.0000 0.1115764772
H   H86       1.0  0.96230  0.72490  0.44510  1.0000 0.1115764772
H   H87       1.0  0.53770  0.22490  0.55490  1.0000 0.1115764772
H   H88       1.0  0.03770  0.77510  0.94510  1.0000 0.1115764772
H   H89       1.0  0.37060  0.86300  0.94320  1.0000 0.1405384156
H   H90       1.0  0.87060  0.13700  0.55680  1.0000 0.1405384156
H   H91       1.0  0.62940  0.63700  0.44320  1.0000 0.1405384156
H   H92       1.0  0.12940  0.36300  0.05680  1.0000 0.1405384156
H   H93       1.0  0.62940  0.13700  0.05680  1.0000 0.1405384156
H   H94       1.0  0.12940  0.86300  0.44320  1.0000 0.1405384156
H   H95       1.0  0.37060  0.36300  0.55680  1.0000 0.1405384156
H   H96       1.0  0.87060  0.63700  0.94320  1.0000 0.1405384156
H   H97       1.0  0.41000  0.90970  0.98540  1.0000 0.1306881467
H   H98       1.0  0.91000  0.09030  0.51460  1.0000 0.1306881467
H   H99       1.0  0.59000  0.59030  0.48540  1.0000 0.1306881467
H   H100      1.0  0.09000  0.40970  0.01460  1.0000 0.1306881467
H   H101      1.0  0.59000  0.09030  0.01460  1.0000 0.1306881467
H   H102      1.0  0.09000  0.90970  0.48540  1.0000 0.1306881467
H   H103      1.0  0.41000  0.40970  0.51460  1.0000 0.1306881467
H   H104      1.0  0.91000  0.59030  0.98540  1.0000 0.1306881467
H   H105      1.0  0.46230  0.95610  0.02290  1.0000 0.149359523
H   H106      1.0  0.96230  0.04390  0.47710  1.0000 0.149359523
H   H107      1.0  0.53770  0.54390  0.52290  1.0000 0.149359523
H   H108      1.0  0.03770  0.45610  0.97710  1.0000 0.149359523
H   H109      1.0  0.53770  0.04390  0.97710  1.0000 0.149359523
H   H110      1.0  0.03770  0.95610  0.52290  1.0000 0.149359523
H   H111      1.0  0.46230  0.45610  0.47710  1.0000 0.149359523
H   H112      1.0  0.96230  0.54390  0.02290  1.0000 0.149359523
H   H113      1.0  0.53130  0.99940  0.06000  1.0000 0.1200349274
H   H114      1.0  0.03130  0.00060  0.44000  1.0000 0.1200349274
H   H115      1.0  0.46870  0.50060  0.56000  1.0000 0.1200349274
H   H116      1.0  0.96870  0.49940  0.94000  1.0000 0.1200349274
H   H117      1.0  0.46870  0.00060  0.94000  1.0000 0.1200349274
H   H118      1.0  0.96870  0.99940  0.56000  1.0000 0.1200349274
H   H119      1.0  0.53130  0.49940  0.44000  1.0000 0.1200349274
H   H120      1.0  0.03130  0.50060  0.06000  1.0000 0.1200349274
H   H121      1.0  0.66870  0.83420  0.05000  1.0000 0.1306881467
H   H122      1.0  0.16870  0.16580  0.45000  1.0000 0.1306881467
H   H123      1.0  0.33130  0.66580  0.55000  1.0000 0.1306881467
H   H124      1.0  0.83130  0.33420  0.95000  1.0000 0.1306881467
H   H125      1.0  0.33130  0.16580  0.95000  1.0000 0.1306881467
H   H126      1.0  0.83130  0.83420  0.55000  1.0000 0.1306881467
H   H127      1.0  0.66870  0.33420  0.45000  1.0000 0.1306881467
H   H128      1.0  0.16870  0.66580  0.05000  1.0000 0.1306881467
H   H129      1.0  0.79190  0.18660  0.04350  1.0000 0.1200349274
H   H130      1.0  0.29190  0.81340  0.45650  1.0000 0.1200349274
H   H131      1.0  0.20810  0.31340  0.54350  1.0000 0.1200349274
H   H132      1.0  0.70810  0.68660  0.95650  1.0000 0.1200349274
H   H133      1.0  0.20810  0.81340  0.95650  1.0000 0.1200349274
H   H134      1.0  0.70810  0.18660  0.54350  1.0000 0.1200349274
H   H135      1.0  0.79190  0.68660  0.45650  1.0000 0.1200349274
H   H136      1.0  0.29190  0.31340  0.04350  1.0000 0.1200349274
H   H137      1.0  0.91050  0.02590  0.07590  1.0000 0.1200349274
H   H138      1.0  0.41050  0.97410  0.42410  1.0000 0.1200349274
H   H139      1.0  0.08950  0.47410  0.57590  1.0000 0.1200349274
H   H140      1.0  0.58950  0.52590  0.92410  1.0000 0.1200349274
H   H141      1.0  0.08950  0.97410  0.92410  1.0000 0.1200349274
H   H142      1.0  0.58950  0.02590  0.57590  1.0000 0.1200349274
H   H143      1.0  0.91050  0.52590  0.42410  1.0000 0.1200349274
H   H144      1.0  0.41050  0.47410  0.07590  1.0000 0.1200349274
H   H145      1.0  0.99400  0.03960  0.04030  1.0000 0.1306881467
H   H146      1.0  0.49400  0.96040  0.45970  1.0000 0.1306881467
H   H147      1.0  0.00600  0.46040  0.54030  1.0000 0.1306881467
H   H148      1.0  0.50600  0.53960  0.95970  1.0000 0.1306881467
H   H149      1.0  0.00600  0.96040  0.95970  1.0000 0.1306881467
H   H150      1.0  0.50600  0.03960  0.54030  1.0000 0.1306881467
H   H151      1.0  0.99400  0.53960  0.45970  1.0000 0.1306881467
H   H152      1.0  0.49400  0.46040  0.04030  1.0000 0.1306881467
H   H153      1.0  0.06070  0.05370  0.00360  1.0000 0.1306881467
H   H154      1.0  0.56070  0.94630  0.49640  1.0000 0.1306881467
H   H155      1.0  0.93930  0.44630  0.50360  1.0000 0.1306881467
H   H156      1.0  0.43930  0.55370  0.99640  1.0000 0.1405384156
H   H157      1.0  0.93930  0.94630  0.99640  1.0000 0.1306881467
H   H158      1.0  0.43930  0.05370  0.50360  1.0000 0.1306881467
H   H159      1.0  0.06070  0.55370  0.49640  1.0000 0.1405384156
H   H160      1.0  0.56070  0.44630  0.00360  1.0000 0.1306881467
H   H161      1.0  0.12630  0.07430  0.96310  1.0000 0.1306881467
H   H162      1.0  0.62630  0.92570  0.53690  1.0000 0.1306881467
H   H163      1.0  0.87370  0.42570  0.46310  1.0000 0.1306881467
H   H164      1.0  0.37370  0.57430  0.03690  1.0000 0.1306881467
H   H165      1.0  0.87370  0.92570  0.03690  1.0000 0.1306881467
H   H166      1.0  0.37370  0.07430  0.46310  1.0000 0.1306881467
H   H167      1.0  0.12630  0.57430  0.53690  1.0000 0.1306881467
H   H168      1.0  0.62630  0.42570  0.96310  1.0000 0.1306881467
H   H169      1.0  0.99440  0.24230  0.94730  1.0000 0.1200349274
H   H170      1.0  0.49440  0.75770  0.55270  1.0000 0.1200349274
H   H171      1.0  0.00560  0.25770  0.44730  1.0000 0.1200349274
H   H172      1.0  0.50560  0.74230  0.05270  1.0000 0.1200349274
H   H173      1.0  0.00560  0.75770  0.05270  1.0000 0.1200349274
H   H174      1.0  0.50560  0.24230  0.44730  1.0000 0.1200349274
H   H175      1.0  0.99440  0.74230  0.55270  1.0000 0.1200349274
H   H176      1.0  0.49440  0.25770  0.94730  1.0000 0.1200349274
H   H177      1.0  0.94270  0.70330  0.18900  1.0000 0.1115764772
H   H178      1.0  0.44270  0.29670  0.31100  1.0000 0.1115764772
H   H179      1.0  0.05730  0.79670  0.68900  1.0000 0.1115764772
H   H180      1.0  0.55730  0.20330  0.81100  1.0000 0.1115764772
H   H181      1.0  0.05730  0.29670  0.81100  1.0000 0.1115764772
H   H182      1.0  0.55730  0.70330  0.68900  1.0000 0.1115764772
H   H183      1.0  0.94270  0.20330  0.31100  1.0000 0.1115764772
H   H184      1.0  0.44270  0.79670  0.18900  1.0000 0.1115764772
H   H185      1.0  0.80180  0.86560  0.20060  1.0000 0.1306881467
H   H186      1.0  0.30180  0.13440  0.29940  1.0000 0.1306881467
H   H187      1.0  0.19820  0.63440  0.70060  1.0000 0.1306881467
H   H188      1.0  0.69820  0.36560  0.79940  1.0000 0.1306881467
H   H189      1.0  0.19820  0.13440  0.79940  1.0000 0.1306881467
H   H190      1.0  0.69820  0.86560  0.70060  1.0000 0.1306881467
H   H191      1.0  0.80180  0.36560  0.29940  1.0000 0.1306881467
H   H192      1.0  0.30180  0.63440  0.20060  1.0000 0.1306881467
H   H193      1.0  0.77690  0.81830  0.24390  1.0000 0.1306881467
H   H194      1.0  0.27690  0.18170  0.25610  1.0000 0.1306881467
H   H195      1.0  0.22310  0.68170  0.74390  1.0000 0.1306881467
H   H196      1.0  0.72310  0.31830  0.75610  1.0000 0.1306881467
H   H197      1.0  0.22310  0.18170  0.75610  1.0000 0.1306881467
H   H198      1.0  0.72310  0.81830  0.74390  1.0000 0.1306881467
H   H199      1.0  0.77690  0.31830  0.25610  1.0000 0.1306881467
H   H200      1.0  0.27690  0.68170  0.24390  1.0000 0.1306881467
H   H201      1.0  0.76300  0.77110  0.28440  1.0000 0.1306881467
H   H202      1.0  0.26300  0.22890  0.21560  1.0000 0.1306881467
H   H203      1.0  0.23700  0.72890  0.78440  1.0000 0.1306881467
H   H204      1.0  0.73700  0.27110  0.71560  1.0000 0.1306881467
H   H205      1.0  0.23700  0.22890  0.71560  1.0000 0.1306881467
H   H206      1.0  0.73700  0.77110  0.78440  1.0000 0.1306881467
H   H207      1.0  0.76300  0.27110  0.21560  1.0000 0.1306881467
H   H208      1.0  0.26300  0.72890  0.28440  1.0000 0.1306881467
H   H209      1.0  0.73810  0.70590  0.32410  1.0000 0.1405384156
H   H210      1.0  0.23810  0.29410  0.17590  1.0000 0.1405384156
H   H211      1.0  0.26190  0.79410  0.82410  1.0000 0.1405384156
H   H212      1.0  0.76190  0.20590  0.67590  1.0000 0.1405384156
H   H213      1.0  0.26190  0.29410  0.67590  1.0000 0.1405384156
H   H214      1.0  0.76190  0.70590  0.82410  1.0000 0.1405384156
H   H215      1.0  0.73810  0.20590  0.17590  1.0000 0.1405384156
H   H216      1.0  0.23810  0.79410  0.32410  1.0000 0.1405384156
H   H217      1.0  0.87430  0.55280  0.29790  1.0000 0.1200349274
H   H218      1.0  0.37430  0.44720  0.20210  1.0000 0.1200349274
H   H219      1.0  0.12570  0.94720  0.79790  1.0000 0.1200349274
H   H220      1.0  0.62570  0.05280  0.70210  1.0000 0.1200349274
H   H221      1.0  0.12570  0.44720  0.70210  1.0000 0.1200349274
H   H222      1.0  0.62570  0.55280  0.79790  1.0000 0.1200349274
H   H223      1.0  0.87430  0.05280  0.20210  1.0000 0.1200349274
H   H224      1.0  0.37430  0.94720  0.29790  1.0000 0.1200349274
H   H225      1.0  0.47330  0.79820  0.30150  1.0000 0.1115764772
H   H226      1.0  0.97330  0.20180  0.19850  1.0000 0.1115764772
H   H227      1.0  0.52670  0.70180  0.80150  1.0000 0.1115764772
H   H228      1.0  0.02670  0.29820  0.69850  1.0000 0.1115764772
H   H229      1.0  0.52670  0.20180  0.69850  1.0000 0.1115764772
H   H230      1.0  0.02670  0.79820  0.80150  1.0000 0.1115764772
H   H231      1.0  0.47330  0.29820  0.19850  1.0000 0.1115764772
H   H232      1.0  0.97330  0.70180  0.30150  1.0000 0.1115764772
H   H233      1.0  0.62780  0.65030  0.29020  1.0000 0.1306881467
H   H234      1.0  0.12780  0.34970  0.20980  1.0000 0.1306881467
H   H235      1.0  0.37220  0.84970  0.79020  1.0000 0.1306881467
H   H236      1.0  0.87220  0.15030  0.70980  1.0000 0.1306881467
H   H237      1.0  0.37220  0.34970  0.70980  1.0000 0.1306881467
H   H238      1.0  0.87220  0.65030  0.79020  1.0000 0.1306881467
H   H239      1.0  0.62780  0.15030  0.20980  1.0000 0.1306881467
H   H240      1.0  0.12780  0.84970  0.29020  1.0000 0.1306881467
H   H241      1.0  0.64350  0.69420  0.24560  1.0000 0.1306881467
H   H242      1.0  0.14350  0.30580  0.25440  1.0000 0.1306881467
H   H243      1.0  0.35650  0.80580  0.74560  1.0000 0.1306881467
H   H244      1.0  0.85650  0.19420  0.75440  1.0000 0.1306881467
H   H245      1.0  0.35650  0.30580  0.75440  1.0000 0.1306881467
H   H246      1.0  0.85650  0.69420  0.74560  1.0000 0.1306881467
H   H247      1.0  0.64350  0.19420  0.25440  1.0000 0.1306881467
H   H248      1.0  0.14350  0.80580  0.24560  1.0000 0.1306881467
H   H249      1.0  0.65530  0.74220  0.20520  1.0000 0.1306881467
H   H250      1.0  0.15530  0.25780  0.29480  1.0000 0.1306881467
H   H251      1.0  0.34470  0.75780  0.70520  1.0000 0.1306881467
H   H252      1.0  0.84470  0.24220  0.79480  1.0000 0.1306881467
H   H253      1.0  0.34470  0.25780  0.79480  1.0000 0.1306881467
H   H254      1.0  0.84470  0.74220  0.70520  1.0000 0.1306881467
H   H255      1.0  0.65530  0.24220  0.29480  1.0000 0.1306881467
H   H256      1.0  0.15530  0.75780  0.20520  1.0000 0.1306881467
H   H257      1.0  0.68190  0.81450  0.16710  1.0000 0.1306881467
H   H258      1.0  0.18190  0.18550  0.33290  1.0000 0.1306881467
H   H259      1.0  0.31810  0.68550  0.66710  1.0000 0.1306881467
H   H260      1.0  0.81810  0.31450  0.83290  1.0000 0.1306881467
H   H261      1.0  0.31810  0.18550  0.83290  1.0000 0.1306881467
H   H262      1.0  0.81810  0.81450  0.66710  1.0000 0.1306881467
H   H263      1.0  0.68190  0.31450  0.33290  1.0000 0.1306881467
H   H264      1.0  0.18190  0.68550  0.16710  1.0000 0.1306881467
H   H265      1.0  0.53190  0.95620  0.19320  1.0000 0.1200349274
H   H266      1.0  0.03190  0.04380  0.30680  1.0000 0.1200349274
H   H267      1.0  0.46810  0.54380  0.69320  1.0000 0.1200349274
H   H268      1.0  0.96810  0.45620  0.80680  1.0000 0.1200349274
H   H269      1.0  0.46810  0.04380  0.80680  1.0000 0.1200349274
H   H270      1.0  0.96810  0.95620  0.69320  1.0000 0.1200349274
H   H271      1.0  0.53190  0.45620  0.30680  1.0000 0.1200349274
H   H272      1.0  0.03190  0.54380  0.19320  1.0000 0.1200349274
H   H273      1.0  0.85250  0.57720  0.19440  1.0000 0.1200349274
H   H274      1.0  0.35250  0.42280  0.30560  1.0000 0.1200349274
H   H275      1.0  0.14750  0.92280  0.69440  1.0000 0.1200349274
H   H276      1.0  0.64750  0.07720  0.80560  1.0000 0.1200349274
H   H277      1.0  0.14750  0.42280  0.80560  1.0000 0.1200349274
H   H278      1.0  0.64750  0.57720  0.69440  1.0000 0.1200349274
H   H279      1.0  0.85250  0.07720  0.30560  1.0000 0.1200349274
H   H280      1.0  0.35250  0.92280  0.19440  1.0000 0.1200349274
H   H281      1.0  0.85550  0.36360  0.18370  1.0000 0.1306881467
H   H282      1.0  0.35550  0.63640  0.31630  1.0000 0.1306881467
H   H283      1.0  0.14450  0.13640  0.68370  1.0000 0.1306881467
H   H284      1.0  0.64450  0.86360  0.81630  1.0000 0.1306881467
H   H285      1.0  0.14450  0.63640  0.81630  1.0000 0.1306881467
H   H286      1.0  0.64450  0.36360  0.68370  1.0000 0.1306881467
H   H287      1.0  0.85550  0.86360  0.31630  1.0000 0.1306881467
H   H288      1.0  0.35550  0.13640  0.18370  1.0000 0.1306881467
H   H289      1.0  0.92530  0.35350  0.22340  1.0000 0.1200349274
H   H290      1.0  0.42530  0.64650  0.27660  1.0000 0.1200349274
H   H291      1.0  0.07470  0.14650  0.72340  1.0000 0.1200349274
H   H292      1.0  0.57470  0.85350  0.77660  1.0000 0.1200349274
H   H293      1.0  0.07470  0.64650  0.77660  1.0000 0.1200349274
H   H294      1.0  0.57470  0.35350  0.72340  1.0000 0.1200349274
H   H295      1.0  0.92530  0.85350  0.27660  1.0000 0.1200349274
H   H296      1.0  0.42530  0.14650  0.22340  1.0000 0.1200349274
H   H297      1.0  0.97390  0.35240  0.26580  1.0000 0.1200349274
H   H298      1.0  0.47390  0.64760  0.23420  1.0000 0.1200349274
H   H299      1.0  0.02610  0.14760  0.76580  1.0000 0.1200349274
H   H300      1.0  0.52610  0.85240  0.73420  1.0000 0.1200349274
H   H301      1.0  0.02610  0.64760  0.73420  1.0000 0.1200349274
H   H302      1.0  0.52610  0.35240  0.76580  1.0000 0.1200349274
H   H303      1.0  0.97390  0.85240  0.23420  1.0000 0.1200349274
H   H304      1.0  0.47390  0.14760  0.26580  1.0000 0.1200349274
H   H305      1.0  0.03860  0.36160  0.30690  1.0000 0.1306881467
H   H306      1.0  0.53860  0.63840  0.19310  1.0000 0.1306881467
H   H307      1.0  0.96140  0.13840  0.80690  1.0000 0.1306881467
H   H308      1.0  0.46140  0.86160  0.69310  1.0000 0.1306881467
H   H309      1.0  0.96140  0.63840  0.69310  1.0000 0.1306881467
H   H310      1.0  0.46140  0.36160  0.80690  1.0000 0.1306881467
H   H311      1.0  0.03860  0.86160  0.19310  1.0000 0.1306881467
H   H312      1.0  0.53860  0.13840  0.30690  1.0000 0.1306881467
H   H313      1.0  0.04720  0.57510  0.29560  1.0000 0.1200349274
H   H314      1.0  0.54720  0.42490  0.20440  1.0000 0.1200349274
H   H315      1.0  0.95280  0.92490  0.79560  1.0000 0.1200349274
H   H316      1.0  0.45280  0.07510  0.70440  1.0000 0.1200349274
H   H317      1.0  0.95280  0.42490  0.70440  1.0000 0.1200349274
H   H318      1.0  0.45280  0.57510  0.79560  1.0000 0.1200349274
H   H319      1.0  0.04720  0.07510  0.20440  1.0000 0.1200349274
H   H320      1.0  0.54720  0.92490  0.29560  1.0000 0.1200349274
H   H321      1.0  0.62630  0.66230  0.05510  1.0000 0.1200349274
H   H322      1.0  0.12630  0.33770  0.44490  1.0000 0.1200349274
H   H323      1.0  0.37370  0.83770  0.55510  1.0000 0.1200349274
H   H324      1.0  0.87370  0.16230  0.94490  1.0000 0.1200349274
H   H325      1.0  0.37370  0.33770  0.94490  1.0000 0.1200349274
H   H326      1.0  0.87370  0.66230  0.55510  1.0000 0.1200349274
H   H327      1.0  0.62630  0.16230  0.44490  1.0000 0.1200349274
H   H328      1.0  0.12630  0.83770  0.05510  1.0000 0.1200349274
H   H329      1.0  0.84050  0.63930  0.06520  1.0000 0.1405384156
H   H330      1.0  0.34050  0.36070  0.43480  1.0000 0.1405384156
H   H331      1.0  0.15950  0.86070  0.56520  1.0000 0.1405384156
H   H332      1.0  0.65950  0.13930  0.93480  1.0000 0.1405384156
H   H333      1.0  0.15950  0.36070  0.93480  1.0000 0.1405384156
H   H334      1.0  0.65950  0.63930  0.56520  1.0000 0.1405384156
H   H335      1.0  0.84050  0.13930  0.43480  1.0000 0.1405384156
H   H336      1.0  0.34050  0.86070  0.06520  1.0000 0.1405384156
H   H337      1.0  0.85860  0.70850  0.02570  1.0000 0.1200349274
H   H338      1.0  0.35860  0.29150  0.47430  1.0000 0.1200349274
H   H339      1.0  0.14140  0.79150  0.52570  1.0000 0.1200349274
H   H340      1.0  0.64140  0.20850  0.97430  1.0000 0.1200349274
H   H341      1.0  0.14140  0.29150  0.97430  1.0000 0.1200349274
H   H342      1.0  0.64140  0.70850  0.52570  1.0000 0.1200349274
H   H343      1.0  0.85860  0.20850  0.47430  1.0000 0.1200349274
H   H344      1.0  0.35860  0.79150  0.02570  1.0000 0.1200349274
H   H345      1.0  0.86280  0.78580  0.98760  1.0000 0.1200349274
H   H346      1.0  0.36280  0.21420  0.51240  1.0000 0.1200349274
H   H347      1.0  0.13720  0.71420  0.48760  1.0000 0.1200349274
H   H348      1.0  0.63720  0.28580  0.01240  1.0000 0.1200349274
H   H349      1.0  0.13720  0.21420  0.01240  1.0000 0.1200349274
H   H350      1.0  0.63720  0.78580  0.48760  1.0000 0.1200349274
H   H351      1.0  0.86280  0.28580  0.51240  1.0000 0.1200349274
H   H352      1.0  0.36280  0.71420  0.98760  1.0000 0.1200349274
H   H353      1.0  0.85120  0.86720  0.95080  1.0000 0.1306881467
H   H354      1.0  0.35120  0.13280  0.54920  1.0000 0.1306881467
H   H355      1.0  0.14880  0.63280  0.45080  1.0000 0.1306881467
H   H356      1.0  0.64880  0.36720  0.04920  1.0000 0.1306881467
H   H357      1.0  0.14880  0.13280  0.04920  1.0000 0.1306881467
H   H358      1.0  0.64880  0.86720  0.45080  1.0000 0.1306881467
H   H359      1.0  0.85120  0.36720  0.54920  1.0000 0.1306881467
H   H360      1.0  0.35120  0.63280  0.95080  1.0000 0.1306881467
H   H361      1.0  0.63550  0.86110  0.96020  1.0000 0.1200349274
H   H362      1.0  0.13550  0.13890  0.53980  1.0000 0.1200349274
H   H363      1.0  0.36450  0.63890  0.46020  1.0000 0.1200349274
H   H364      1.0  0.86450  0.36110  0.03980  1.0000 0.1200349274
H   H365      1.0  0.36450  0.13890  0.03980  1.0000 0.1200349274
H   H366      1.0  0.86450  0.86110  0.46020  1.0000 0.1200349274
H   H367      1.0  0.63550  0.36110  0.53980  1.0000 0.1200349274
H   H368      1.0  0.13550  0.63890  0.96020  1.0000 0.1200349274
C   C1        1.0  0.51140  0.76210  0.95329  1.0000 0.0412629351
C   C2        1.0  0.01140  0.23790  0.54671  1.0000 0.0412629351
C   C3        1.0  0.48860  0.73790  0.45329  1.0000 0.0412629351
C   C4        1.0  0.98860  0.26210  0.04671  1.0000 0.0412629351
C   C5        1.0  0.48860  0.23790  0.04671  1.0000 0.0412629351
C   C6        1.0  0.98860  0.76210  0.45329  1.0000 0.0412629351
C   C7        1.0  0.51140  0.26210  0.54671  1.0000 0.0412629351
C   C8        1.0  0.01140  0.73790  0.95329  1.0000 0.0412629351
C   C9        1.0  0.45140  0.78900  0.93960  1.0000 -0.0679594127
C   C10       1.0  0.95140  0.21100  0.56040  1.0000 -0.0679594127
C   C11       1.0  0.54860  0.71100  0.43960  1.0000 -0.0679594127
C   C12       1.0  0.04860  0.28900  0.06040  1.0000 -0.0679594127
C   C13       1.0  0.54860  0.21100  0.06040  1.0000 -0.0679594127
C   C14       1.0  0.04860  0.78900  0.43960  1.0000 -0.0679594127
C   C15       1.0  0.45140  0.28900  0.56040  1.0000 -0.0679594127
C   C16       1.0  0.95140  0.71100  0.93960  1.0000 -0.0679594127
C   C17       1.0  0.41180  0.84450  0.95175  1.0000 -0.0796219277
C   C18       1.0  0.91180  0.15550  0.54825  1.0000 -0.0796219277
C   C19       1.0  0.58820  0.65550  0.45175  1.0000 -0.0796219277
C   C20       1.0  0.08820  0.34450  0.04825  1.0000 -0.0796219277
C   C21       1.0  0.58820  0.15550  0.04825  1.0000 -0.0796219277
C   C22       1.0  0.08820  0.84450  0.45175  1.0000 -0.0796219277
C   C23       1.0  0.41180  0.34450  0.54825  1.0000 -0.0796219277
C   C24       1.0  0.91180  0.65550  0.95175  1.0000 -0.0796219277
C   C25       1.0  0.43500  0.87200  0.97698  1.0000 -0.152242598
C   C26       1.0  0.93500  0.12800  0.52302  1.0000 -0.152242598
C   C27       1.0  0.56500  0.62800  0.47698  1.0000 -0.152242598
C   C28       1.0  0.06500  0.37200  0.02302  1.0000 -0.152242598
C   C29       1.0  0.56500  0.12800  0.02302  1.0000 -0.152242598
C   C30       1.0  0.06500  0.87200  0.47698  1.0000 -0.152242598
C   C31       1.0  0.43500  0.37200  0.52302  1.0000 -0.152242598
C   C32       1.0  0.93500  0.62800  0.97698  1.0000 -0.152242598
C   C33       1.0  0.49570  0.84270  0.98956  1.0000 0.1579773319
C   C34       1.0  0.99570  0.15730  0.51044  1.0000 0.1579773319
C   C35       1.0  0.50430  0.65730  0.48956  1.0000 0.1579773319
C   C36       1.0  0.00430  0.34270  0.01044  1.0000 0.1579773319
C   C37       1.0  0.50430  0.15730  0.01044  1.0000 0.1579773319
C   C38       1.0  0.00430  0.84270  0.48956  1.0000 0.1579773319
C   C39       1.0  0.49570  0.34270  0.51044  1.0000 0.1579773319
C   C40       1.0  0.99570  0.65730  0.98956  1.0000 0.1579773319
C   C41       1.0  0.52810  0.87080  0.01524  1.0000 0.1579773319
C   C42       1.0  0.02810  0.12920  0.48476  1.0000 0.1579773319
C   C43       1.0  0.47190  0.62920  0.51524  1.0000 0.1579773319
C   C44       1.0  0.97190  0.37080  0.98476  1.0000 0.1579773319
C   C45       1.0  0.47190  0.12920  0.98476  1.0000 0.1579773319
C   C46       1.0  0.97190  0.87080  0.51524  1.0000 0.1579773319
C   C47       1.0  0.52810  0.37080  0.48476  1.0000 0.1579773319
C   C48       1.0  0.02810  0.62920  0.01524  1.0000 0.1579773319
C   C49       1.0  0.50440  0.93260  0.02846  1.0000 -0.152242598
C   C50       1.0  0.00440  0.06740  0.47154  1.0000 -0.152242598
C   C51       1.0  0.49560  0.56740  0.52846  1.0000 -0.152242598
C   C52       1.0  0.99560  0.43260  0.97154  1.0000 -0.152242598
C   C53       1.0  0.49560  0.06740  0.97154  1.0000 -0.152242598
C   C54       1.0  0.99560  0.93260  0.52846  1.0000 -0.152242598
C   C55       1.0  0.50440  0.43260  0.47154  1.0000 -0.152242598
C   C56       1.0  0.00440  0.56740  0.02846  1.0000 -0.152242598
C   C57       1.0  0.54600  0.95840  0.05043  1.0000 -0.0395091329
C   C58       1.0  0.04600  0.04160  0.44957  1.0000 -0.0395091329
C   C59       1.0  0.45400  0.54160  0.55043  1.0000 -0.0395091329
C   C60       1.0  0.95400  0.45840  0.94957  1.0000 -0.0395091329
C   C61       1.0  0.45400  0.04160  0.94957  1.0000 -0.0395091329
C   C62       1.0  0.95400  0.95840  0.55043  1.0000 -0.0395091329
C   C63       1.0  0.54600  0.45840  0.44957  1.0000 -0.0395091329
C   C64       1.0  0.04600  0.54160  0.05043  1.0000 -0.0395091329
C   C65       1.0  0.60930  0.92300  0.05791  1.0000 -0.0498929017
C   C66       1.0  0.10930  0.07700  0.44209  1.0000 -0.0498929017
C   C67       1.0  0.39070  0.57700  0.55791  1.0000 -0.0498929017
C   C68       1.0  0.89070  0.42300  0.94209  1.0000 -0.0498929017
C   C69       1.0  0.39070  0.07700  0.94209  1.0000 -0.0498929017
C   C70       1.0  0.89070  0.92300  0.55791  1.0000 -0.0498929017
C   C71       1.0  0.60930  0.42300  0.44209  1.0000 -0.0498929017
C   C72       1.0  0.10930  0.57700  0.05791  1.0000 -0.0498929017
C   C73       1.0  0.62740  0.85940  0.04444  1.0000 0.0730248593
C   C74       1.0  0.12740  0.14060  0.45556  1.0000 0.0730248593
C   C75       1.0  0.37260  0.64060  0.54444  1.0000 0.0730248593
C   C76       1.0  0.87260  0.35940  0.95556  1.0000 0.0730248593
C   C77       1.0  0.37260  0.14060  0.95556  1.0000 0.0730248593
C   C78       1.0  0.87260  0.85940  0.54444  1.0000 0.0730248593
C   C79       1.0  0.62740  0.35940  0.45556  1.0000 0.0730248593
C   C80       1.0  0.12740  0.64060  0.04444  1.0000 0.0730248593
C   C81       1.0  0.42880  0.75510  0.91255  1.0000 0.6018264954
C   C82       1.0  0.92880  0.24490  0.58745  1.0000 0.608196841
C   C83       1.0  0.57120  0.74490  0.41255  1.0000 0.6018264954
C   C84       1.0  0.07120  0.25510  0.08745  1.0000 0.6018264954
C   C85       1.0  0.57120  0.24490  0.08745  1.0000 0.6018264954
C   C86       1.0  0.07120  0.75510  0.41255  1.0000 0.6018264954
C   C87       1.0  0.42880  0.25510  0.58745  1.0000 0.6018264954
C   C88       1.0  0.92880  0.74490  0.91255  1.0000 0.608196841
C   C89       1.0  0.65720  0.95100  0.08059  1.0000 0.657216726
C   C90       1.0  0.15720  0.04900  0.41941  1.0000 0.657216726
C   C91       1.0  0.34280  0.54900  0.58059  1.0000 0.657216726
C   C92       1.0  0.84280  0.45100  0.91941  1.0000 0.657216726
C   C93       1.0  0.34280  0.04900  0.91941  1.0000 0.657216726
C   C94       1.0  0.84280  0.95100  0.58059  1.0000 0.657216726
C   C95       1.0  0.65720  0.45100  0.41941  1.0000 0.657216726
C   C96       1.0  0.15720  0.54900  0.08059  1.0000 0.657216726
C   C97       1.0  0.78480  0.08920  0.08531  1.0000 0.6526884841
C   C98       1.0  0.28480  0.91080  0.41469  1.0000 0.6526884841
C   C99       1.0  0.21520  0.41080  0.58531  1.0000 0.6526884841
C   C100      1.0  0.71520  0.58920  0.91469  1.0000 0.6526884841
C   C101      1.0  0.21520  0.91080  0.91469  1.0000 0.6526884841
C   C102      1.0  0.71520  0.08920  0.58531  1.0000 0.6526884841
C   C103      1.0  0.78480  0.58920  0.41469  1.0000 0.6526884841
C   C104      1.0  0.28480  0.41080  0.08531  1.0000 0.6526884841
C   C105      1.0  0.83230  0.15650  0.04285  1.0000 0.0730248593
C   C106      1.0  0.33230  0.84350  0.45715  1.0000 0.0730248593
C   C107      1.0  0.16770  0.34350  0.54285  1.0000 0.0730248593
C   C108      1.0  0.66770  0.65650  0.95715  1.0000 0.0730248593
C   C109      1.0  0.16770  0.84350  0.95715  1.0000 0.0730248593
C   C110      1.0  0.66770  0.15650  0.54285  1.0000 0.0730248593
C   C111      1.0  0.83230  0.65650  0.45715  1.0000 0.0730248593
C   C112      1.0  0.33230  0.34350  0.04285  1.0000 0.0730248593
C   C113      1.0  0.84070  0.10350  0.06301  1.0000 -0.0395091329
C   C114      1.0  0.34070  0.89650  0.43699  1.0000 -0.0395091329
C   C115      1.0  0.15930  0.39650  0.56301  1.0000 -0.0395091329
C   C116      1.0  0.65930  0.60350  0.93699  1.0000 -0.0395091329
C   C117      1.0  0.15930  0.89650  0.93699  1.0000 -0.0395091329
C   C118      1.0  0.65930  0.10350  0.56301  1.0000 -0.0395091329
C   C119      1.0  0.84070  0.60350  0.43699  1.0000 -0.0395091329
C   C120      1.0  0.34070  0.39650  0.06301  1.0000 -0.0395091329
C   C121      1.0  0.90270  0.06030  0.06216  1.0000 -0.0615081751
C   C122      1.0  0.40270  0.93970  0.43784  1.0000 -0.0615081751
C   C123      1.0  0.09730  0.43970  0.56216  1.0000 -0.0615081751
C   C124      1.0  0.59730  0.56030  0.93784  1.0000 -0.0615081751
C   C125      1.0  0.09730  0.93970  0.93784  1.0000 -0.0615081751
C   C126      1.0  0.59730  0.06030  0.56216  1.0000 -0.0615081751
C   C127      1.0  0.90270  0.56030  0.43784  1.0000 -0.0615081751
C   C128      1.0  0.40270  0.43970  0.06216  1.0000 -0.0615081751
C   C129      1.0  0.95270  0.06830  0.04109  1.0000 -0.1729246159
C   C130      1.0  0.45270  0.93170  0.45891  1.0000 -0.1729246159
C   C131      1.0  0.04730  0.43170  0.54109  1.0000 -0.1729246159
C   C132      1.0  0.54730  0.56830  0.95891  1.0000 -0.1729246159
C   C133      1.0  0.04730  0.93170  0.95891  1.0000 -0.1729246159
C   C134      1.0  0.54730  0.06830  0.54109  1.0000 -0.1729246159
C   C135      1.0  0.95270  0.56830  0.45891  1.0000 -0.1729246159
C   C136      1.0  0.45270  0.43170  0.04109  1.0000 -0.1729246159
C   C137      1.0  0.93930  0.12020  0.02118  1.0000 0.149359523
C   C138      1.0  0.43930  0.87980  0.47882  1.0000 0.149359523
C   C139      1.0  0.06070  0.37980  0.52118  1.0000 0.149359523
C   C140      1.0  0.56070  0.62020  0.97882  1.0000 0.149359523
C   C141      1.0  0.06070  0.87980  0.97882  1.0000 0.149359523
C   C142      1.0  0.56070  0.12020  0.52118  1.0000 0.149359523
C   C143      1.0  0.93930  0.62020  0.47882  1.0000 0.149359523
C   C144      1.0  0.43930  0.37980  0.02118  1.0000 0.149359523
C   C145      1.0  0.98770  0.13320  0.99761  1.0000 0.149359523
C   C146      1.0  0.48770  0.86680  0.50239  1.0000 0.149359523
C   C147      1.0  0.01230  0.36680  0.49761  1.0000 0.149359523
C   C148      1.0  0.51230  0.63320  0.00239  1.0000 0.149359523
C   C149      1.0  0.01230  0.86680  0.00239  1.0000 0.149359523
C   C150      1.0  0.51230  0.13320  0.49761  1.0000 0.149359523
C   C151      1.0  0.98770  0.63320  0.50239  1.0000 0.149359523
C   C152      1.0  0.48770  0.36680  0.99761  1.0000 0.149359523
C   C153      1.0  0.04700  0.09060  0.99162  1.0000 -0.1729246159
C   C154      1.0  0.54700  0.90940  0.50838  1.0000 -0.1729246159
C   C155      1.0  0.95300  0.40940  0.49162  1.0000 -0.1729246159
C   C156      1.0  0.45300  0.59060  0.00838  1.0000 -0.1729246159
C   C157      1.0  0.95300  0.90940  0.00838  1.0000 -0.1729246159
C   C158      1.0  0.45300  0.09060  0.49162  1.0000 -0.1729246159
C   C159      1.0  0.04700  0.59060  0.50838  1.0000 -0.1729246159
C   C160      1.0  0.54700  0.40940  0.99162  1.0000 -0.1729246159
C   C161      1.0  0.08640  0.10290  0.96755  1.0000 -0.0498929017
C   C162      1.0  0.58640  0.89710  0.53245  1.0000 -0.0498929017
C   C163      1.0  0.91360  0.39710  0.46755  1.0000 -0.0498929017
C   C164      1.0  0.41360  0.60290  0.03245  1.0000 -0.0498929017
C   C165      1.0  0.91360  0.89710  0.03245  1.0000 -0.0498929017
C   C166      1.0  0.41360  0.10290  0.46755  1.0000 -0.0498929017
C   C167      1.0  0.08640  0.60290  0.53245  1.0000 -0.0498929017
C   C168      1.0  0.58640  0.39710  0.96755  1.0000 -0.0498929017
C   C169      1.0  0.06500  0.15890  0.95030  1.0000 -0.0498929017
C   C170      1.0  0.56500  0.84110  0.54970  1.0000 -0.0498929017
C   C171      1.0  0.93500  0.34110  0.45030  1.0000 -0.0498929017
C   C172      1.0  0.43500  0.65890  0.04970  1.0000 -0.0498929017
C   C173      1.0  0.93500  0.84110  0.04970  1.0000 -0.0498929017
C   C174      1.0  0.43500  0.15890  0.45030  1.0000 -0.0498929017
C   C175      1.0  0.06500  0.65890  0.54970  1.0000 -0.0498929017
C   C176      1.0  0.56500  0.34110  0.95030  1.0000 -0.0498929017
C   C177      1.0  0.00700  0.20300  0.95830  1.0000 0.0292455132
C   C178      1.0  0.50700  0.79700  0.54170  1.0000 0.0292455132
C   C179      1.0  0.99300  0.29700  0.45830  1.0000 0.0292455132
C   C180      1.0  0.49300  0.70300  0.04170  1.0000 0.0292455132
C   C181      1.0  0.99300  0.79700  0.04170  1.0000 0.0292455132
C   C182      1.0  0.49300  0.20300  0.45830  1.0000 0.0292455132
C   C183      1.0  0.00700  0.70300  0.54170  1.0000 0.0292455132
C   C184      1.0  0.50700  0.29700  0.95830  1.0000 0.0292455132
C   C185      1.0  0.10620  0.16970  0.92371  1.0000 0.6018264954
C   C186      1.0  0.60620  0.83030  0.57629  1.0000 0.6018264954
C   C187      1.0  0.89380  0.33030  0.42371  1.0000 0.6018264954
C   C188      1.0  0.39380  0.66970  0.07629  1.0000 0.6018264954
C   C189      1.0  0.89380  0.83030  0.07629  1.0000 0.6018264954
C   C190      1.0  0.39380  0.16970  0.42371  1.0000 0.6018264954
C   C191      1.0  0.10620  0.66970  0.57629  1.0000 0.6018264954
C   C192      1.0  0.60620  0.33030  0.92371  1.0000 0.6018264954
C   C193      1.0  0.89360  0.81390  0.16126  1.0000 0.5867675824
C   C194      1.0  0.39360  0.18610  0.33874  1.0000 0.5867675824
C   C195      1.0  0.10640  0.68610  0.66126  1.0000 0.5867675824
C   C196      1.0  0.60640  0.31390  0.83874  1.0000 0.5867675824
C   C197      1.0  0.10640  0.18610  0.83874  1.0000 0.5867675824
C   C198      1.0  0.60640  0.81390  0.66126  1.0000 0.5867675824
C   C199      1.0  0.89360  0.31390  0.33874  1.0000 0.5867675824
C   C200      1.0  0.39360  0.68610  0.16126  1.0000 0.5867675824
C   C201      1.0  0.90900  0.72670  0.20012  1.0000 0.0493070429
C   C202      1.0  0.40900  0.27330  0.29988  1.0000 0.0493070429
C   C203      1.0  0.09100  0.77330  0.70012  1.0000 0.0493070429
C   C204      1.0  0.59100  0.22670  0.79988  1.0000 0.0493070429
C   C205      1.0  0.09100  0.27330  0.79988  1.0000 0.0493070429
C   C206      1.0  0.59100  0.72670  0.70012  1.0000 0.0493070429
C   C207      1.0  0.90900  0.22670  0.29988  1.0000 0.0493070429
C   C208      1.0  0.40900  0.77330  0.20012  1.0000 0.0493070429
C   C209      1.0  0.87450  0.78840  0.18978  1.0000 -0.0615081751
C   C210      1.0  0.37450  0.21160  0.31022  1.0000 -0.0615081751
C   C211      1.0  0.12550  0.71160  0.68978  1.0000 -0.0615081751
C   C212      1.0  0.62550  0.28840  0.81022  1.0000 -0.0615081751
C   C213      1.0  0.12550  0.21160  0.81022  1.0000 -0.0615081751
C   C214      1.0  0.62550  0.78840  0.68978  1.0000 -0.0615081751
C   C215      1.0  0.87450  0.28840  0.31022  1.0000 -0.0615081751
C   C216      1.0  0.37450  0.71160  0.18978  1.0000 -0.0615081751
C   C217      1.0  0.82480  0.82380  0.20662  1.0000 -0.0615081751
C   C218      1.0  0.32480  0.17620  0.29338  1.0000 -0.0615081751
C   C219      1.0  0.17520  0.67620  0.70662  1.0000 -0.0615081751
C   C220      1.0  0.67520  0.32380  0.79338  1.0000 -0.0615081751
C   C221      1.0  0.17520  0.17620  0.79338  1.0000 -0.0615081751
C   C222      1.0  0.67520  0.82380  0.70662  1.0000 -0.0615081751
C   C223      1.0  0.82480  0.32380  0.29338  1.0000 -0.0615081751
C   C224      1.0  0.32480  0.67620  0.20662  1.0000 -0.0615081751
C   C225      1.0  0.81030  0.79560  0.23241  1.0000 -0.1870768982
C   C226      1.0  0.31030  0.20440  0.26759  1.0000 -0.1870768982
C   C227      1.0  0.18970  0.70440  0.73241  1.0000 -0.1870768982
C   C228      1.0  0.68970  0.29560  0.76759  1.0000 -0.1870768982
C   C229      1.0  0.18970  0.20440  0.76759  1.0000 -0.1870768982
C   C230      1.0  0.68970  0.79560  0.73241  1.0000 -0.1870768982
C   C231      1.0  0.81030  0.29560  0.26759  1.0000 -0.1870768982
C   C232      1.0  0.31030  0.70440  0.23241  1.0000 -0.1870768982
C   C233      1.0  0.84570  0.73300  0.24121  1.0000 0.149359523
C   C234      1.0  0.34570  0.26700  0.25879  1.0000 0.149359523
C   C235      1.0  0.15430  0.76700  0.74121  1.0000 0.149359523
C   C236      1.0  0.65430  0.23300  0.75879  1.0000 0.149359523
C   C237      1.0  0.15430  0.26700  0.75879  1.0000 0.149359523
C   C238      1.0  0.65430  0.73300  0.74121  1.0000 0.149359523
C   C239      1.0  0.84570  0.23300  0.25879  1.0000 0.149359523
C   C240      1.0  0.34570  0.76700  0.24121  1.0000 0.149359523
C   C241      1.0  0.83170  0.69730  0.26792  1.0000 0.149359523
C   C242      1.0  0.33170  0.30270  0.23208  1.0000 0.149359523
C   C243      1.0  0.16830  0.80270  0.76792  1.0000 0.149359523
C   C244      1.0  0.66830  0.19730  0.73208  1.0000 0.149359523
C   C245      1.0  0.16830  0.30270  0.73208  1.0000 0.149359523
C   C246      1.0  0.66830  0.69730  0.76792  1.0000 0.149359523
C   C247      1.0  0.83170  0.19730  0.23208  1.0000 0.149359523
C   C248      1.0  0.33170  0.80270  0.26792  1.0000 0.149359523
C   C249      1.0  0.78430  0.72610  0.28730  1.0000 -0.1798734061
C   C250      1.0  0.28430  0.27390  0.21270  1.0000 -0.1798734061
C   C251      1.0  0.21570  0.77390  0.78730  1.0000 -0.1798734061
C   C252      1.0  0.71570  0.22610  0.71270  1.0000 -0.1798734061
C   C253      1.0  0.21570  0.27390  0.71270  1.0000 -0.1798734061
C   C254      1.0  0.71570  0.72610  0.78730  1.0000 -0.1798734061
C   C255      1.0  0.78430  0.22610  0.21270  1.0000 -0.1798734061
C   C256      1.0  0.28430  0.77390  0.28730  1.0000 -0.1798734061
C   C257      1.0  0.76940  0.68740  0.31082  1.0000 -0.0395091329
C   C258      1.0  0.26940  0.31260  0.18918  1.0000 -0.0395091329
C   C259      1.0  0.23060  0.81260  0.81082  1.0000 -0.0395091329
C   C260      1.0  0.73060  0.18740  0.68918  1.0000 -0.0395091329
C   C261      1.0  0.23060  0.31260  0.68918  1.0000 -0.0395091329
C   C262      1.0  0.73060  0.68740  0.81082  1.0000 -0.0395091329
C   C263      1.0  0.76940  0.18740  0.18918  1.0000 -0.0395091329
C   C264      1.0  0.26940  0.81260  0.31082  1.0000 -0.0395091329
C   C265      1.0  0.80150  0.62020  0.31454  1.0000 -0.0615081751
C   C266      1.0  0.30150  0.37980  0.18546  1.0000 -0.0615081751
C   C267      1.0  0.19850  0.87980  0.81454  1.0000 -0.0615081751
C   C268      1.0  0.69850  0.12020  0.68546  1.0000 -0.0615081751
C   C269      1.0  0.19850  0.37980  0.68546  1.0000 -0.0615081751
C   C270      1.0  0.69850  0.62020  0.81454  1.0000 -0.0615081751
C   C271      1.0  0.80150  0.12020  0.18546  1.0000 -0.0615081751
C   C272      1.0  0.30150  0.87980  0.31454  1.0000 -0.0615081751
C   C273      1.0  0.85090  0.59660  0.29497  1.0000 0.0604395128
C   C274      1.0  0.35090  0.40340  0.20503  1.0000 0.0604395128
C   C275      1.0  0.14910  0.90340  0.79497  1.0000 0.0604395128
C   C276      1.0  0.64910  0.09660  0.70503  1.0000 0.0604395128
C   C277      1.0  0.14910  0.40340  0.70503  1.0000 0.0604395128
C   C278      1.0  0.64910  0.59660  0.79497  1.0000 0.0604395128
C   C279      1.0  0.85090  0.09660  0.20503  1.0000 0.0604395128
C   C280      1.0  0.35090  0.90340  0.29497  1.0000 0.0604395128
C   C281      1.0  0.78160  0.57360  0.33886  1.0000 0.6526884841
C   C282      1.0  0.28160  0.42640  0.16114  1.0000 0.6526884841
C   C283      1.0  0.21840  0.92640  0.83886  1.0000 0.6526884841
C   C284      1.0  0.71840  0.07360  0.66114  1.0000 0.6526884841
C   C285      1.0  0.21840  0.42640  0.66114  1.0000 0.6526884841
C   C286      1.0  0.71840  0.57360  0.83886  1.0000 0.6526884841
C   C287      1.0  0.78160  0.07360  0.16114  1.0000 0.6526884841
C   C288      1.0  0.28160  0.92640  0.33886  1.0000 0.6526884841
C   C289      1.0  0.53720  0.69690  0.33060  1.0000 0.6018264954
C   C290      1.0  0.03720  0.30310  0.16940  1.0000 0.6018264954
C   C291      1.0  0.46280  0.80310  0.83060  1.0000 0.6018264954
C   C292      1.0  0.96280  0.19690  0.66940  1.0000 0.6018264954
C   C293      1.0  0.46280  0.30310  0.66940  1.0000 0.6018264954
C   C294      1.0  0.96280  0.69690  0.83060  1.0000 0.6018264954
C   C295      1.0  0.53720  0.19690  0.16940  1.0000 0.6018264954
C   C296      1.0  0.03720  0.80310  0.33060  1.0000 0.6018264954
C   C297      1.0  0.50890  0.77770  0.29038  1.0000 0.0292455132
C   C298      1.0  0.00890  0.22230  0.20962  1.0000 0.0292455132
C   C299      1.0  0.49110  0.72230  0.79038  1.0000 0.0292455132
C   C300      1.0  0.99110  0.27770  0.70962  1.0000 0.0292455132
C   C301      1.0  0.49110  0.22230  0.70962  1.0000 0.0292455132
C   C302      1.0  0.99110  0.77770  0.79038  1.0000 0.0292455132
C   C303      1.0  0.50890  0.27770  0.20962  1.0000 0.0292455132
C   C304      1.0  0.00890  0.72230  0.29038  1.0000 0.0292455132
C   C305      1.0  0.54960  0.72150  0.30110  1.0000 -0.0615081751
C   C306      1.0  0.04960  0.27850  0.19890  1.0000 -0.0615081751
C   C307      1.0  0.45040  0.77850  0.80110  1.0000 -0.0615081751
C   C308      1.0  0.95040  0.22150  0.69890  1.0000 -0.0615081751
C   C309      1.0  0.45040  0.27850  0.69890  1.0000 -0.0615081751
C   C310      1.0  0.95040  0.72150  0.80110  1.0000 -0.0615081751
C   C311      1.0  0.54960  0.22150  0.19890  1.0000 -0.0615081751
C   C312      1.0  0.04960  0.77850  0.30110  1.0000 -0.0615081751
C   C313      1.0  0.60050  0.68930  0.28395  1.0000 -0.0679594127
C   C314      1.0  0.10050  0.31070  0.21605  1.0000 -0.0679594127
C   C315      1.0  0.39950  0.81070  0.78395  1.0000 -0.0679594127
C   C316      1.0  0.89950  0.18930  0.71605  1.0000 -0.0615081751
C   C317      1.0  0.39950  0.31070  0.71605  1.0000 -0.0615081751
C   C318      1.0  0.89950  0.68930  0.78395  1.0000 -0.0615081751
C   C319      1.0  0.60050  0.18930  0.21605  1.0000 -0.0679594127
C   C320      1.0  0.10050  0.81070  0.28395  1.0000 -0.0679594127
C   C321      1.0  0.61030  0.71590  0.25744  1.0000 -0.1870768982
C   C322      1.0  0.11030  0.28410  0.24256  1.0000 -0.1870768982
C   C323      1.0  0.38970  0.78410  0.75744  1.0000 -0.1870768982
C   C324      1.0  0.88970  0.21590  0.74256  1.0000 -0.1870768982
C   C325      1.0  0.38970  0.28410  0.74256  1.0000 -0.1870768982
C   C326      1.0  0.88970  0.71590  0.75744  1.0000 -0.1870768982
C   C327      1.0  0.61030  0.21590  0.24256  1.0000 -0.1870768982
C   C328      1.0  0.11030  0.78410  0.25744  1.0000 -0.1870768982
C   C329      1.0  0.57010  0.77510  0.24874  1.0000 0.149359523
C   C330      1.0  0.07010  0.22490  0.25126  1.0000 0.149359523
C   C331      1.0  0.42990  0.72490  0.74874  1.0000 0.149359523
C   C332      1.0  0.92990  0.27510  0.75126  1.0000 0.149359523
C   C333      1.0  0.42990  0.22490  0.75126  1.0000 0.149359523
C   C334      1.0  0.92990  0.77510  0.74874  1.0000 0.149359523
C   C335      1.0  0.57010  0.27510  0.25126  1.0000 0.149359523
C   C336      1.0  0.07010  0.72490  0.24874  1.0000 0.149359523
C   C337      1.0  0.58200  0.81120  0.22181  1.0000 0.149359523
C   C338      1.0  0.08200  0.18880  0.27819  1.0000 0.149359523
C   C339      1.0  0.41800  0.68880  0.72181  1.0000 0.149359523
C   C340      1.0  0.91800  0.31120  0.77819  1.0000 0.149359523
C   C341      1.0  0.41800  0.18880  0.77819  1.0000 0.149359523
C   C342      1.0  0.91800  0.81120  0.72181  1.0000 0.149359523
C   C343      1.0  0.58200  0.31120  0.27819  1.0000 0.149359523
C   C344      1.0  0.08200  0.68880  0.22181  1.0000 0.149359523
C   C345      1.0  0.63230  0.78650  0.20280  1.0000 -0.1798734061
C   C346      1.0  0.13230  0.21350  0.29720  1.0000 -0.1798734061
C   C347      1.0  0.36770  0.71350  0.70280  1.0000 -0.1798734061
C   C348      1.0  0.86770  0.28650  0.79720  1.0000 -0.1798734061
C   C349      1.0  0.36770  0.21350  0.79720  1.0000 -0.1798734061
C   C350      1.0  0.86770  0.78650  0.70280  1.0000 -0.1798734061
C   C351      1.0  0.63230  0.28650  0.29720  1.0000 -0.1798734061
C   C352      1.0  0.13230  0.71350  0.20280  1.0000 -0.1798734061
C   C353      1.0  0.64770  0.82940  0.18008  1.0000 -0.0498929017
C   C354      1.0  0.14770  0.17060  0.31992  1.0000 -0.0498929017
C   C355      1.0  0.35230  0.67060  0.68008  1.0000 -0.0498929017
C   C356      1.0  0.85230  0.32940  0.81992  1.0000 -0.0498929017
C   C357      1.0  0.35230  0.17060  0.81992  1.0000 -0.0498929017
C   C358      1.0  0.85230  0.82940  0.68008  1.0000 -0.0498929017
C   C359      1.0  0.64770  0.32940  0.31992  1.0000 -0.0498929017
C   C360      1.0  0.14770  0.67060  0.18008  1.0000 -0.0498929017
C   C361      1.0  0.61200  0.89460  0.17684  1.0000 -0.0615081751
C   C362      1.0  0.11200  0.10540  0.32316  1.0000 -0.0615081751
C   C363      1.0  0.38800  0.60540  0.67684  1.0000 -0.0615081751
C   C364      1.0  0.88800  0.39460  0.82316  1.0000 -0.0615081751
C   C365      1.0  0.38800  0.10540  0.82316  1.0000 -0.0615081751
C   C366      1.0  0.88800  0.89460  0.67684  1.0000 -0.0615081751
C   C367      1.0  0.61200  0.39460  0.32316  1.0000 -0.0615081751
C   C368      1.0  0.11200  0.60540  0.17684  1.0000 -0.0615081751
C   C369      1.0  0.55790  0.91360  0.19584  1.0000 0.0730248593
C   C370      1.0  0.05790  0.08640  0.30416  1.0000 0.0730248593
C   C371      1.0  0.44210  0.58640  0.69584  1.0000 0.0730248593
C   C372      1.0  0.94210  0.41360  0.80416  1.0000 0.0730248593
C   C373      1.0  0.44210  0.08640  0.80416  1.0000 0.0730248593
C   C374      1.0  0.94210  0.91360  0.69584  1.0000 0.0730248593
C   C375      1.0  0.55790  0.41360  0.30416  1.0000 0.0730248593
C   C376      1.0  0.05790  0.58640  0.19584  1.0000 0.0730248593
C   C377      1.0  0.63520  0.94750  0.15502  1.0000 0.6526884841
C   C378      1.0  0.13520  0.05250  0.34498  1.0000 0.6526884841
C   C379      1.0  0.36480  0.55250  0.65502  1.0000 0.6526884841
C   C380      1.0  0.86480  0.44750  0.84498  1.0000 0.6526884841
C   C381      1.0  0.36480  0.05250  0.84498  1.0000 0.6526884841
C   C382      1.0  0.86480  0.94750  0.65502  1.0000 0.6526884841
C   C383      1.0  0.63520  0.44750  0.34498  1.0000 0.6526884841
C   C384      1.0  0.13520  0.55250  0.15502  1.0000 0.6526884841
C   C385      1.0  0.79390  0.48140  0.16155  1.0000 0.5691592179
C   C386      1.0  0.29390  0.51860  0.33845  1.0000 0.5691592179
C   C387      1.0  0.20610  0.01860  0.66155  1.0000 0.5691592179
C   C388      1.0  0.70610  0.98140  0.83845  1.0000 0.5691592179
C   C389      1.0  0.20610  0.51860  0.83845  1.0000 0.5691592179
C   C390      1.0  0.70610  0.48140  0.66155  1.0000 0.5691592179
C   C391      1.0  0.79390  0.98140  0.33845  1.0000 0.5691592179
C   C392      1.0  0.29390  0.01860  0.16155  1.0000 0.5691592179
C   C393      1.0  0.86760  0.53160  0.20019  1.0000 0.0493070429
C   C394      1.0  0.36760  0.46840  0.29981  1.0000 0.0493070429
C   C395      1.0  0.13240  0.96840  0.70019  1.0000 0.0604395128
C   C396      1.0  0.63240  0.03160  0.79981  1.0000 0.0604395128
C   C397      1.0  0.13240  0.46840  0.79981  1.0000 0.0604395128
C   C398      1.0  0.63240  0.53160  0.70019  1.0000 0.0604395128
C   C399      1.0  0.86760  0.03160  0.29981  1.0000 0.0604395128
C   C400      1.0  0.36760  0.96840  0.20019  1.0000 0.0604395128
C   C401      1.0  0.84540  0.47170  0.18508  1.0000 -0.0395091329
C   C402      1.0  0.34540  0.52830  0.31492  1.0000 -0.0395091329
C   C403      1.0  0.15460  0.02830  0.68508  1.0000 -0.0498929017
C   C404      1.0  0.65460  0.97170  0.81492  1.0000 -0.0498929017
C   C405      1.0  0.15460  0.52830  0.81492  1.0000 -0.0498929017
C   C406      1.0  0.65460  0.47170  0.68508  1.0000 -0.0395091329
C   C407      1.0  0.84540  0.97170  0.31492  1.0000 -0.0498929017
C   C408      1.0  0.34540  0.02830  0.18508  1.0000 -0.0498929017
C   C409      1.0  0.86820  0.40460  0.19366  1.0000 -0.0498929017
C   C410      1.0  0.36820  0.59540  0.30634  1.0000 -0.0498929017
C   C411      1.0  0.13180  0.09540  0.69366  1.0000 -0.0498929017
C   C412      1.0  0.63180  0.90460  0.80634  1.0000 -0.0498929017
C   C413      1.0  0.13180  0.59540  0.80634  1.0000 -0.0498929017
C   C414      1.0  0.63180  0.40460  0.69366  1.0000 -0.0498929017
C   C415      1.0  0.86820  0.90460  0.30634  1.0000 -0.0498929017
C   C416      1.0  0.36820  0.09540  0.19366  1.0000 -0.0498929017
C   C417      1.0  0.91020  0.39870  0.21721  1.0000 -0.1798734061
C   C418      1.0  0.41020  0.60130  0.28279  1.0000 -0.1798734061
C   C419      1.0  0.08980  0.10130  0.71721  1.0000 -0.1798734061
C   C420      1.0  0.58980  0.89870  0.78279  1.0000 -0.1798734061
C   C421      1.0  0.08980  0.60130  0.78279  1.0000 -0.1798734061
C   C422      1.0  0.58980  0.39870  0.71721  1.0000 -0.1798734061
C   C423      1.0  0.91020  0.89870  0.28279  1.0000 -0.1798734061
C   C424      1.0  0.41020  0.10130  0.21721  1.0000 -0.1798734061
C   C425      1.0  0.92930  0.46040  0.23146  1.0000 0.1579773319
C   C426      1.0  0.42930  0.53960  0.26854  1.0000 0.1579773319
C   C427      1.0  0.07070  0.03960  0.73146  1.0000 0.1579773319
C   C428      1.0  0.57070  0.96040  0.76854  1.0000 0.1579773319
C   C429      1.0  0.07070  0.53960  0.76854  1.0000 0.1579773319
C   C430      1.0  0.57070  0.46040  0.73146  1.0000 0.1579773319
C   C431      1.0  0.92930  0.96040  0.26854  1.0000 0.1579773319
C   C432      1.0  0.42930  0.03960  0.23146  1.0000 0.1579773319
C   C433      1.0  0.97210  0.45940  0.25726  1.0000 0.1579773319
C   C434      1.0  0.47210  0.54060  0.24274  1.0000 0.1579773319
C   C435      1.0  0.02790  0.04060  0.75726  1.0000 0.1579773319
C   C436      1.0  0.52790  0.95940  0.74274  1.0000 0.1579773319
C   C437      1.0  0.02790  0.54060  0.74274  1.0000 0.1579773319
C   C438      1.0  0.52790  0.45940  0.75726  1.0000 0.1579773319
C   C439      1.0  0.97210  0.95940  0.24274  1.0000 0.1579773319
C   C440      1.0  0.47210  0.04060  0.25726  1.0000 0.1579773319
C   C441      1.0  0.98870  0.39740  0.27226  1.0000 -0.1729246159
C   C442      1.0  0.48870  0.60260  0.22774  1.0000 -0.1729246159
C   C443      1.0  0.01130  0.10260  0.77226  1.0000 -0.1729246159
C   C444      1.0  0.51130  0.89740  0.72774  1.0000 -0.1729246159
C   C445      1.0  0.01130  0.60260  0.72774  1.0000 -0.1729246159
C   C446      1.0  0.51130  0.39740  0.77226  1.0000 -0.1729246159
C   C447      1.0  0.98870  0.89740  0.22774  1.0000 -0.1729246159
C   C448      1.0  0.48870  0.10260  0.27226  1.0000 -0.1729246159
C   C449      1.0  0.02720  0.40270  0.29667  1.0000 -0.0498929017
C   C450      1.0  0.52720  0.59730  0.20333  1.0000 -0.0498929017
C   C451      1.0  0.97280  0.09730  0.79667  1.0000 -0.0498929017
C   C452      1.0  0.47280  0.90270  0.70333  1.0000 -0.0498929017
C   C453      1.0  0.97280  0.59730  0.70333  1.0000 -0.0498929017
C   C454      1.0  0.47280  0.40270  0.79667  1.0000 -0.0498929017
C   C455      1.0  0.02720  0.90270  0.20333  1.0000 -0.0498929017
C   C456      1.0  0.52720  0.09730  0.29667  1.0000 -0.0498929017
C   C457      1.0  0.04840  0.47030  0.30563  1.0000 -0.0395091329
C   C458      1.0  0.54840  0.52970  0.19437  1.0000 -0.0395091329
C   C459      1.0  0.95160  0.02970  0.80563  1.0000 -0.0395091329
C   C460      1.0  0.45160  0.97030  0.69437  1.0000 -0.0395091329
C   C461      1.0  0.95160  0.52970  0.69437  1.0000 -0.0395091329
C   C462      1.0  0.45160  0.47030  0.80563  1.0000 -0.0395091329
C   C463      1.0  0.04840  0.97030  0.19437  1.0000 -0.0395091329
C   C464      1.0  0.54840  0.02970  0.30563  1.0000 -0.0395091329
C   C465      1.0  0.03140  0.52990  0.28975  1.0000 0.0604395128
C   C466      1.0  0.53140  0.47010  0.21025  1.0000 0.0604395128
C   C467      1.0  0.96860  0.97010  0.78975  1.0000 0.0604395128
C   C468      1.0  0.46860  0.02990  0.71025  1.0000 0.0604395128
C   C469      1.0  0.96860  0.47010  0.71025  1.0000 0.0604395128
C   C470      1.0  0.46860  0.52990  0.78975  1.0000 0.0604395128
C   C471      1.0  0.03140  0.02990  0.21025  1.0000 0.0604395128
C   C472      1.0  0.53140  0.97010  0.28975  1.0000 0.0604395128
C   C473      1.0  0.08950  0.48240  0.33205  1.0000 0.5691592179
C   C474      1.0  0.58950  0.51760  0.16795  1.0000 0.5691592179
C   C475      1.0  0.91050  0.01760  0.83205  1.0000 0.5691592179
C   C476      1.0  0.41050  0.98240  0.66795  1.0000 0.5691592179
C   C477      1.0  0.91050  0.51760  0.66795  1.0000 0.5691592179
C   C478      1.0  0.41050  0.48240  0.83205  1.0000 0.5691592179
C   C479      1.0  0.08950  0.98240  0.16795  1.0000 0.5691592179
C   C480      1.0  0.58950  0.01760  0.33205  1.0000 0.5691592179
C   C481      1.0  0.71450  0.60150  0.08996  1.0000 0.5691592179
C   C482      1.0  0.21450  0.39850  0.41004  1.0000 0.5691592179
C   C483      1.0  0.28550  0.89850  0.58996  1.0000 0.5691592179
C   C484      1.0  0.78550  0.10150  0.91004  1.0000 0.5691592179
C   C485      1.0  0.28550  0.39850  0.91004  1.0000 0.5691592179
C   C486      1.0  0.78550  0.60150  0.58996  1.0000 0.5691592179
C   C487      1.0  0.71450  0.10150  0.41004  1.0000 0.5691592179
C   C488      1.0  0.21450  0.89850  0.08996  1.0000 0.5691592179
C   C489      1.0  0.67340  0.67210  0.04931  1.0000 0.0730248593
C   C490      1.0  0.17340  0.32790  0.45069  1.0000 0.0730248593
C   C491      1.0  0.32660  0.82790  0.54931  1.0000 0.0730248593
C   C492      1.0  0.82660  0.17210  0.95069  1.0000 0.0730248593
C   C493      1.0  0.32660  0.32790  0.95069  1.0000 0.0730248593
C   C494      1.0  0.82660  0.67210  0.54931  1.0000 0.0730248593
C   C495      1.0  0.67340  0.17210  0.45069  1.0000 0.0730248593
C   C496      1.0  0.17340  0.82790  0.04931  1.0000 0.0730248593
C   C497      1.0  0.73180  0.64520  0.06474  1.0000 -0.0334746408
C   C498      1.0  0.23180  0.35480  0.43526  1.0000 -0.0334746408
C   C499      1.0  0.26820  0.85480  0.56474  1.0000 -0.0334746408
C   C500      1.0  0.76820  0.14520  0.93526  1.0000 -0.0334746408
C   C501      1.0  0.26820  0.35480  0.93526  1.0000 -0.0334746408
C   C502      1.0  0.76820  0.64520  0.56474  1.0000 -0.0334746408
C   C503      1.0  0.73180  0.14520  0.43526  1.0000 -0.0334746408
C   C504      1.0  0.23180  0.85480  0.06474  1.0000 -0.0334746408
C   C505      1.0  0.80110  0.65800  0.05564  1.0000 -0.0170424285
C   C506      1.0  0.30110  0.34200  0.44436  1.0000 -0.0170424285
C   C507      1.0  0.19890  0.84200  0.55564  1.0000 -0.0170424285
C   C508      1.0  0.69890  0.15800  0.94436  1.0000 -0.0170424285
C   C509      1.0  0.19890  0.34200  0.94436  1.0000 -0.0170424285
C   C510      1.0  0.69890  0.65800  0.55564  1.0000 -0.0170424285
C   C511      1.0  0.80110  0.15800  0.44436  1.0000 -0.0170424285
C   C512      1.0  0.30110  0.84200  0.05564  1.0000 -0.0170424285
C   C513      1.0  0.81200  0.69900  0.03204  1.0000 -0.1580018605
C   C514      1.0  0.31200  0.30100  0.46796  1.0000 -0.1580018605
C   C515      1.0  0.18800  0.80100  0.53204  1.0000 -0.1580018605
C   C516      1.0  0.68800  0.19900  0.96796  1.0000 -0.1580018605
C   C517      1.0  0.18800  0.30100  0.96796  1.0000 -0.1580018605
C   C518      1.0  0.68800  0.69900  0.53204  1.0000 -0.1580018605
C   C519      1.0  0.81200  0.19900  0.46796  1.0000 -0.1580018605
C   C520      1.0  0.31200  0.80100  0.03204  1.0000 -0.1580018605
C   C521      1.0  0.75210  0.72560  0.01815  1.0000 0.149359523
C   C522      1.0  0.25210  0.27440  0.48185  1.0000 0.149359523
C   C523      1.0  0.24790  0.77440  0.51815  1.0000 0.149359523
C   C524      1.0  0.74790  0.22560  0.98185  1.0000 0.149359523
C   C525      1.0  0.24790  0.27440  0.98185  1.0000 0.149359523
C   C526      1.0  0.74790  0.72560  0.51815  1.0000 0.149359523
C   C527      1.0  0.75210  0.22560  0.48185  1.0000 0.149359523
C   C528      1.0  0.25210  0.77440  0.01815  1.0000 0.149359523
C   C529      1.0  0.75440  0.77550  0.99444  1.0000 0.1579773319
C   C530      1.0  0.25440  0.22450  0.50556  1.0000 0.1579773319
C   C531      1.0  0.24560  0.72450  0.49444  1.0000 0.1579773319
C   C532      1.0  0.74560  0.27550  0.00556  1.0000 0.1579773319
C   C533      1.0  0.24560  0.22450  0.00556  1.0000 0.1579773319
C   C534      1.0  0.74560  0.77550  0.49444  1.0000 0.1579773319
C   C535      1.0  0.75440  0.27550  0.50556  1.0000 0.1579773319
C   C536      1.0  0.25440  0.72450  0.99444  1.0000 0.1579773319
C   C537      1.0  0.81730  0.80110  0.98175  1.0000 -0.1580018605
C   C538      1.0  0.31730  0.19890  0.51825  1.0000 -0.1580018605
C   C539      1.0  0.18270  0.69890  0.48175  1.0000 -0.1580018605
C   C540      1.0  0.68270  0.30110  0.01825  1.0000 -0.1580018605
C   C541      1.0  0.18270  0.19890  0.01825  1.0000 -0.1580018605
C   C542      1.0  0.68270  0.80110  0.48175  1.0000 -0.1580018605
C   C543      1.0  0.81730  0.30110  0.51825  1.0000 -0.1580018605
C   C544      1.0  0.31730  0.69890  0.98175  1.0000 -0.1580018605
C   C545      1.0  0.81030  0.85030  0.96002  1.0000 -0.0498929017
C   C546      1.0  0.31030  0.14970  0.53998  1.0000 -0.0498929017
C   C547      1.0  0.18970  0.64970  0.46002  1.0000 -0.0498929017
C   C548      1.0  0.68970  0.35030  0.03998  1.0000 -0.0498929017
C   C549      1.0  0.18970  0.14970  0.03998  1.0000 -0.0498929017
C   C550      1.0  0.68970  0.85030  0.46002  1.0000 -0.0498929017
C   C551      1.0  0.81030  0.35030  0.53998  1.0000 -0.0498929017
C   C552      1.0  0.31030  0.64970  0.96002  1.0000 -0.0498929017
C   C553      1.0  0.74150  0.87360  0.95230  1.0000 -0.0395091329
C   C554      1.0  0.24150  0.12640  0.54770  1.0000 -0.0395091329
C   C555      1.0  0.25850  0.62640  0.45230  1.0000 -0.0395091329
C   C556      1.0  0.75850  0.37360  0.04770  1.0000 -0.0395091329
C   C557      1.0  0.25850  0.12640  0.04770  1.0000 -0.0395091329
C   C558      1.0  0.75850  0.87360  0.45230  1.0000 -0.0395091329
C   C559      1.0  0.74150  0.37360  0.54770  1.0000 -0.0395091329
C   C560      1.0  0.24150  0.62640  0.95230  1.0000 -0.0395091329
C   C561      1.0  0.68140  0.84540  0.96549  1.0000 0.0604395128
C   C562      1.0  0.18140  0.15460  0.53451  1.0000 0.0604395128
C   C563      1.0  0.31860  0.65460  0.46549  1.0000 0.0604395128
C   C564      1.0  0.81860  0.34540  0.03451  1.0000 0.0604395128
C   C565      1.0  0.31860  0.15460  0.03451  1.0000 0.0604395128
C   C566      1.0  0.81860  0.84540  0.46549  1.0000 0.0604395128
C   C567      1.0  0.68140  0.34540  0.53451  1.0000 0.0604395128
C   C568      1.0  0.18140  0.65460  0.96549  1.0000 0.0604395128
C   C569      1.0  0.72830  0.92810  0.92951  1.0000 0.608196841
C   C570      1.0  0.22830  0.07190  0.57049  1.0000 0.608196841
C   C571      1.0  0.27170  0.57190  0.42951  1.0000 0.608196841
C   C572      1.0  0.77170  0.42810  0.07049  1.0000 0.608196841
C   C573      1.0  0.27170  0.07190  0.07049  1.0000 0.608196841
C   C574      1.0  0.77170  0.92810  0.42951  1.0000 0.608196841
C   C575      1.0  0.72830  0.42810  0.57049  1.0000 0.608196841
C   C576      1.0  0.22830  0.57190  0.92951  1.0000 0.608196841
N   N1        1.0  0.53320  0.78760  0.97792  1.0000 -0.2285227756
N   N2        1.0  0.03320  0.21240  0.52208  1.0000 -0.2285227756
N   N3        1.0  0.46680  0.71240  0.47792  1.0000 -0.2285227756
N   N4        1.0  0.96680  0.28760  0.02208  1.0000 -0.2285227756
N   N5        1.0  0.46680  0.21240  0.02208  1.0000 -0.2285227756
N   N6        1.0  0.96680  0.78760  0.47792  1.0000 -0.2285227756
N   N7        1.0  0.53320  0.28760  0.52208  1.0000 -0.2285227756
N   N8        1.0  0.03320  0.71240  0.97792  1.0000 -0.2285227756
N   N9        1.0  0.58740  0.83320  0.02374  1.0000 -0.21879879
N   N10       1.0  0.08740  0.16680  0.47626  1.0000 -0.21879879
N   N11       1.0  0.41260  0.66680  0.52374  1.0000 -0.21879879
N   N12       1.0  0.91260  0.33320  0.97626  1.0000 -0.21879879
N   N13       1.0  0.41260  0.16680  0.97626  1.0000 -0.21879879
N   N14       1.0  0.91260  0.83320  0.52374  1.0000 -0.21879879
N   N15       1.0  0.58740  0.33320  0.47626  1.0000 -0.21879879
N   N16       1.0  0.08740  0.66680  0.02374  1.0000 -0.21879879
N   N17       1.0  0.88100  0.16530  0.02254  1.0000 -0.2117431055
N   N18       1.0  0.38100  0.83470  0.47746  1.0000 -0.2117431055
N   N19       1.0  0.11900  0.33470  0.52254  1.0000 -0.2117431055
N   N20       1.0  0.61900  0.66530  0.97746  1.0000 -0.2117431055
N   N21       1.0  0.11900  0.83470  0.97746  1.0000 -0.2117431055
N   N22       1.0  0.61900  0.16530  0.52254  1.0000 -0.2117431055
N   N23       1.0  0.88100  0.66530  0.47746  1.0000 -0.2117431055
N   N24       1.0  0.38100  0.33470  0.02254  1.0000 -0.2117431055
N   N25       1.0  0.96940  0.19000  0.98141  1.0000 -0.2117431055
N   N26       1.0  0.46940  0.81000  0.51859  1.0000 -0.2117431055
N   N27       1.0  0.03060  0.31000  0.48141  1.0000 -0.2117431055
N   N28       1.0  0.53060  0.69000  0.01859  1.0000 -0.2117431055
N   N29       1.0  0.03060  0.81000  0.01859  1.0000 -0.2117431055
N   N30       1.0  0.53060  0.19000  0.48141  1.0000 -0.2117431055
N   N31       1.0  0.96940  0.69000  0.51859  1.0000 -0.2117431055
N   N32       1.0  0.46940  0.31000  0.98141  1.0000 -0.2117431055
N   N33       1.0  0.86630  0.63390  0.27207  1.0000 -0.243779312
N   N34       1.0  0.36630  0.36610  0.22793  1.0000 -0.243779312
N   N35       1.0  0.13370  0.86610  0.77207  1.0000 -0.243779312
N   N36       1.0  0.63370  0.13390  0.72793  1.0000 -0.243779312
N   N37       1.0  0.13370  0.36610  0.72793  1.0000 -0.243779312
N   N38       1.0  0.63370  0.63390  0.77207  1.0000 -0.243779312
N   N39       1.0  0.86630  0.13390  0.22793  1.0000 -0.243779312
N   N40       1.0  0.36630  0.86610  0.27207  1.0000 -0.243779312
N   N41       1.0  0.89580  0.70010  0.22505  1.0000 -0.2477055457
N   N42       1.0  0.39580  0.29990  0.27495  1.0000 -0.243779312
N   N43       1.0  0.10420  0.79990  0.72505  1.0000 -0.2477055457
N   N44       1.0  0.60420  0.20010  0.77495  1.0000 -0.243779312
N   N45       1.0  0.10420  0.29990  0.77495  1.0000 -0.2477055457
N   N46       1.0  0.60420  0.70010  0.72505  1.0000 -0.2477055457
N   N47       1.0  0.89580  0.20010  0.27495  1.0000 -0.243779312
N   N48       1.0  0.39580  0.79990  0.22505  1.0000 -0.2477055457
N   N49       1.0  0.51790  0.80420  0.26493  1.0000 -0.2477055457
N   N50       1.0  0.01790  0.19580  0.23507  1.0000 -0.2477055457
N   N51       1.0  0.48210  0.69580  0.76493  1.0000 -0.2477055457
N   N52       1.0  0.98210  0.30420  0.73507  1.0000 -0.2477055457
N   N53       1.0  0.48210  0.19580  0.73507  1.0000 -0.2477055457
N   N54       1.0  0.98210  0.80420  0.76493  1.0000 -0.2477055457
N   N55       1.0  0.51790  0.30420  0.23507  1.0000 -0.2477055457
N   N56       1.0  0.01790  0.69580  0.26493  1.0000 -0.2477055457
N   N57       1.0  0.54260  0.87240  0.21760  1.0000 -0.2477055457
N   N58       1.0  0.04260  0.12760  0.28240  1.0000 -0.243779312
N   N59       1.0  0.45740  0.62760  0.71760  1.0000 -0.243779312
N   N60       1.0  0.95740  0.37240  0.78240  1.0000 -0.243779312
N   N61       1.0  0.45740  0.12760  0.78240  1.0000 -0.243779312
N   N62       1.0  0.95740  0.87240  0.71760  1.0000 -0.243779312
N   N63       1.0  0.54260  0.37240  0.28240  1.0000 -0.2477055457
N   N64       1.0  0.04260  0.62760  0.21760  1.0000 -0.243779312
N   N65       1.0  0.99350  0.52540  0.26640  1.0000 -0.243779312
N   N66       1.0  0.49350  0.47460  0.23360  1.0000 -0.243779312
N   N67       1.0  0.00650  0.97460  0.76640  1.0000 -0.243779312
N   N68       1.0  0.50650  0.02540  0.73360  1.0000 -0.243779312
N   N69       1.0  0.00650  0.47460  0.73360  1.0000 -0.243779312
N   N70       1.0  0.50650  0.52540  0.76640  1.0000 -0.243779312
N   N71       1.0  0.99350  0.02540  0.23360  1.0000 -0.243779312
N   N72       1.0  0.49350  0.97460  0.26640  1.0000 -0.243779312
N   N73       1.0  0.90970  0.52680  0.22269  1.0000 -0.243779312
N   N74       1.0  0.40970  0.47320  0.27731  1.0000 -0.243779312
N   N75       1.0  0.09030  0.97320  0.72269  1.0000 -0.243779312
N   N76       1.0  0.59030  0.02680  0.77731  1.0000 -0.243779312
N   N77       1.0  0.09030  0.47320  0.77731  1.0000 -0.243779312
N   N78       1.0  0.59030  0.52680  0.72269  1.0000 -0.243779312
N   N79       1.0  0.90970  0.02680  0.27731  1.0000 -0.243779312
N   N80       1.0  0.40970  0.97320  0.22269  1.0000 -0.243779312
N   N81       1.0  0.68340  0.71110  0.02673  1.0000 -0.2117431055
N   N82       1.0  0.18340  0.28890  0.47327  1.0000 -0.2117431055
N   N83       1.0  0.31660  0.78890  0.52673  1.0000 -0.2117431055
N   N84       1.0  0.81660  0.21110  0.97327  1.0000 -0.2117431055
N   N85       1.0  0.31660  0.28890  0.97327  1.0000 -0.2117431055
N   N86       1.0  0.81660  0.71110  0.52673  1.0000 -0.2117431055
N   N87       1.0  0.68340  0.21110  0.47327  1.0000 -0.2117431055
N   N88       1.0  0.18340  0.78890  0.02673  1.0000 -0.2117431055
N   N89       1.0  0.68720  0.79660  0.98550  1.0000 -0.2117431055
N   N90       1.0  0.18720  0.20340  0.51450  1.0000 -0.2117431055
N   N91       1.0  0.31280  0.70340  0.48550  1.0000 -0.2117431055
N   N92       1.0  0.81280  0.29660  0.01450  1.0000 -0.2117431055
N   N93       1.0  0.31280  0.20340  0.01450  1.0000 -0.2117431055
N   N94       1.0  0.81280  0.79660  0.48550  1.0000 -0.2117431055
N   N95       1.0  0.68720  0.29660  0.51450  1.0000 -0.2117431055
N   N96       1.0  0.18720  0.70340  0.98550  1.0000 -0.2117431055
Cl  Cl1       1.0  0.72504  0.00553  0.00778  1.0000 1.2730266733
Cl  Cl2       1.0  0.22504  0.99447  0.49222  1.0000 1.2730266733
Cl  Cl3       1.0  0.27496  0.49447  0.50778  1.0000 1.2730266733
Cl  Cl4       1.0  0.77496  0.50553  0.99222  1.0000 1.2730266733
Cl  Cl5       1.0  0.27496  0.99447  0.99222  1.0000 1.2754341049
Cl  Cl6       1.0  0.77496  0.00553  0.50778  1.0000 1.2730266733
Cl  Cl7       1.0  0.72504  0.50553  0.49222  1.0000 1.2730266733
Cl  Cl8       1.0  0.22504  0.49447  0.00778  1.0000 1.2730266733
O   O1        1.0  0.39090  0.79290  0.89651  1.0000 -0.6896152454
O   O2        1.0  0.89090  0.20710  0.60349  1.0000 -0.6896152454
O   O3        1.0  0.60910  0.70710  0.39651  1.0000 -0.6896152454
O   O4        1.0  0.10910  0.29290  0.10349  1.0000 -0.6896152454
O   O5        1.0  0.60910  0.20710  0.10349  1.0000 -0.6896152454
O   O6        1.0  0.10910  0.79290  0.39651  1.0000 -0.6896152454
O   O7        1.0  0.39090  0.29290  0.60349  1.0000 -0.6896152454
O   O8        1.0  0.89090  0.70710  0.89651  1.0000 -0.6896152454
O   O9        1.0  0.44790  0.69170  0.90879  1.0000 -0.5393005395
O   O10       1.0  0.94790  0.30830  0.59121  1.0000 -0.5393005395
O   O11       1.0  0.55210  0.80830  0.40879  1.0000 -0.5393005395
O   O12       1.0  0.05210  0.19170  0.09121  1.0000 -0.5393005395
O   O13       1.0  0.55210  0.30830  0.09121  1.0000 -0.5393005395
O   O14       1.0  0.05210  0.69170  0.40879  1.0000 -0.5393005395
O   O15       1.0  0.44790  0.19170  0.59121  1.0000 -0.5393005395
O   O16       1.0  0.94790  0.80830  0.90879  1.0000 -0.5393005395
O   O17       1.0  0.63650  0.00950  0.09168  1.0000 -0.7172422352
O   O18       1.0  0.13650  0.99050  0.40832  1.0000 -0.7172422352
O   O19       1.0  0.36350  0.49050  0.59168  1.0000 -0.7172422352
O   O20       1.0  0.86350  0.50950  0.90832  1.0000 -0.7172422352
O   O21       1.0  0.36350  0.99050  0.90832  1.0000 -0.7172422352
O   O22       1.0  0.86350  0.00950  0.59168  1.0000 -0.7172422352
O   O23       1.0  0.63650  0.50950  0.40832  1.0000 -0.7172422352
O   O24       1.0  0.13650  0.49050  0.09168  1.0000 -0.7172422352
O   O25       1.0  0.71230  0.91520  0.08606  1.0000 -0.6227366494
O   O26       1.0  0.21230  0.08480  0.41394  1.0000 -0.6227366494
O   O27       1.0  0.28770  0.58480  0.58606  1.0000 -0.6227366494
O   O28       1.0  0.78770  0.41520  0.91394  1.0000 -0.6227366494
O   O29       1.0  0.28770  0.08480  0.91394  1.0000 -0.6227366494
O   O30       1.0  0.78770  0.91520  0.58606  1.0000 -0.6227366494
O   O31       1.0  0.71230  0.41520  0.41394  1.0000 -0.6227366494
O   O32       1.0  0.21230  0.58480  0.08606  1.0000 -0.6227366494
O   O33       1.0  0.73180  0.13170  0.08853  1.0000 -0.6322034913
O   O34       1.0  0.23180  0.86830  0.41147  1.0000 -0.6322034913
O   O35       1.0  0.26820  0.36830  0.58853  1.0000 -0.6322034913
O   O36       1.0  0.76820  0.63170  0.91147  1.0000 -0.6322034913
O   O37       1.0  0.26820  0.86830  0.91147  1.0000 -0.6322034913
O   O38       1.0  0.76820  0.13170  0.58853  1.0000 -0.6322034913
O   O39       1.0  0.73180  0.63170  0.41147  1.0000 -0.6322034913
O   O40       1.0  0.23180  0.36830  0.08853  1.0000 -0.6322034913
O   O41       1.0  0.79690  0.03370  0.09920  1.0000 -0.6896152454
O   O42       1.0  0.29690  0.96630  0.40080  1.0000 -0.6896152454
O   O43       1.0  0.20310  0.46630  0.59920  1.0000 -0.6896152454
O   O44       1.0  0.70310  0.53370  0.90080  1.0000 -0.6896152454
O   O45       1.0  0.20310  0.96630  0.90080  1.0000 -0.6896152454
O   O46       1.0  0.70310  0.03370  0.59920  1.0000 -0.6896152454
O   O47       1.0  0.79690  0.53370  0.40080  1.0000 -0.6896152454
O   O48       1.0  0.29690  0.46630  0.09920  1.0000 -0.6896152454
O   O49       1.0  0.11440  0.23180  0.91462  1.0000 -0.5332170289
O   O50       1.0  0.61440  0.76820  0.58538  1.0000 -0.5332170289
O   O51       1.0  0.88560  0.26820  0.41462  1.0000 -0.5332170289
O   O52       1.0  0.38560  0.73180  0.08538  1.0000 -0.5332170289
O   O53       1.0  0.88560  0.76820  0.08538  1.0000 -0.5332170289
O   O54       1.0  0.38560  0.23180  0.41462  1.0000 -0.5332170289
O   O55       1.0  0.11440  0.73180  0.58538  1.0000 -0.5332170289
O   O56       1.0  0.61440  0.26820  0.91462  1.0000 -0.5332170289
O   O57       1.0  0.13160  0.11210  0.91343  1.0000 -0.6985998245
O   O58       1.0  0.63160  0.88790  0.58657  1.0000 -0.6985998245
O   O59       1.0  0.86840  0.38790  0.41343  1.0000 -0.6985998245
O   O60       1.0  0.36840  0.61210  0.08657  1.0000 -0.6985998245
O   O61       1.0  0.86840  0.88790  0.08657  1.0000 -0.6985998245
O   O62       1.0  0.36840  0.11210  0.41343  1.0000 -0.6985998245
O   O63       1.0  0.13160  0.61210  0.58657  1.0000 -0.6985998245
O   O64       1.0  0.63160  0.38790  0.91343  1.0000 -0.6985998245
O   O65       1.0  0.86860  0.87420  0.15414  1.0000 -0.6896152454
O   O66       1.0  0.36860  0.12580  0.34586  1.0000 -0.6896152454
O   O67       1.0  0.13140  0.62580  0.65414  1.0000 -0.6896152454
O   O68       1.0  0.63140  0.37420  0.84586  1.0000 -0.6896152454
O   O69       1.0  0.13140  0.12580  0.84586  1.0000 -0.6896152454
O   O70       1.0  0.63140  0.87420  0.65414  1.0000 -0.6896152454
O   O71       1.0  0.86860  0.37420  0.34586  1.0000 -0.6896152454
O   O72       1.0  0.36860  0.62580  0.15414  1.0000 -0.6896152454
O   O73       1.0  0.93350  0.77460  0.14716  1.0000 -0.5332170289
O   O74       1.0  0.43350  0.22540  0.35284  1.0000 -0.5332170289
O   O75       1.0  0.06650  0.72540  0.64716  1.0000 -0.5332170289
O   O76       1.0  0.56650  0.27460  0.85284  1.0000 -0.5332170289
O   O77       1.0  0.06650  0.22540  0.85284  1.0000 -0.5332170289
O   O78       1.0  0.56650  0.77460  0.64716  1.0000 -0.5332170289
O   O79       1.0  0.93350  0.27460  0.35284  1.0000 -0.5332170289
O   O80       1.0  0.43350  0.72540  0.14716  1.0000 -0.5332170289
O   O81       1.0  0.81640  0.51650  0.34278  1.0000 -0.6322034913
O   O82       1.0  0.31640  0.48350  0.15722  1.0000 -0.6322034913
O   O83       1.0  0.18360  0.98350  0.84278  1.0000 -0.6322034913
O   O84       1.0  0.68360  0.01650  0.65722  1.0000 -0.6322034913
O   O85       1.0  0.18360  0.48350  0.65722  1.0000 -0.6322034913
O   O86       1.0  0.68360  0.51650  0.84278  1.0000 -0.6322034913
O   O87       1.0  0.81640  0.01650  0.15722  1.0000 -0.6322034913
O   O88       1.0  0.31640  0.98350  0.34278  1.0000 -0.6322034913
O   O89       1.0  0.72960  0.59630  0.35314  1.0000 -0.6985998245
O   O90       1.0  0.22960  0.40370  0.14686  1.0000 -0.6985998245
O   O91       1.0  0.27040  0.90370  0.85314  1.0000 -0.6985998245
O   O92       1.0  0.77040  0.09630  0.64686  1.0000 -0.6985998245
O   O93       1.0  0.27040  0.40370  0.64686  1.0000 -0.6985998245
O   O94       1.0  0.77040  0.59630  0.85314  1.0000 -0.6985998245
O   O95       1.0  0.72960  0.09630  0.14686  1.0000 -0.6985998245
O   O96       1.0  0.22960  0.90370  0.35314  1.0000 -0.6985998245
O   O97       1.0  0.69430  0.93170  0.14288  1.0000 -0.7341788503
O   O98       1.0  0.19430  0.06830  0.35712  1.0000 -0.7341788503
O   O99       1.0  0.30570  0.56830  0.64288  1.0000 -0.7341788503
O   O100      1.0  0.80570  0.43170  0.85712  1.0000 -0.7341788503
O   O101      1.0  0.30570  0.06830  0.85712  1.0000 -0.7341788503
O   O102      1.0  0.80570  0.93170  0.64288  1.0000 -0.7341788503
O   O103      1.0  0.69430  0.43170  0.35712  1.0000 -0.7341788503
O   O104      1.0  0.19430  0.56830  0.14288  1.0000 -0.7341788503
O   O105      1.0  0.59750  0.00230  0.15052  1.0000 -0.6527818756
O   O106      1.0  0.09750  0.99770  0.34948  1.0000 -0.6527818756
O   O107      1.0  0.40250  0.49770  0.65052  1.0000 -0.6527818756
O   O108      1.0  0.90250  0.50230  0.84948  1.0000 -0.6527818756
O   O109      1.0  0.40250  0.99770  0.84948  1.0000 -0.6527818756
O   O110      1.0  0.90250  0.00230  0.65052  1.0000 -0.6527818756
O   O111      1.0  0.59750  0.50230  0.34948  1.0000 -0.6527818756
O   O112      1.0  0.09750  0.49770  0.15052  1.0000 -0.6527818756
O   O113      1.0  0.58370  0.65590  0.34047  1.0000 -0.6896152454
O   O114      1.0  0.08370  0.34410  0.15953  1.0000 -0.6896152454
O   O115      1.0  0.41630  0.84410  0.84047  1.0000 -0.6896152454
O   O116      1.0  0.91630  0.15590  0.65953  1.0000 -0.6896152454
O   O117      1.0  0.41630  0.34410  0.65953  1.0000 -0.6896152454
O   O118      1.0  0.91630  0.65590  0.84047  1.0000 -0.6896152454
O   O119      1.0  0.58370  0.15590  0.15953  1.0000 -0.6896152454
O   O120      1.0  0.08370  0.84410  0.34047  1.0000 -0.6896152454
O   O121      1.0  0.48300  0.72360  0.34261  1.0000 -0.5715520995
O   O122      1.0  0.98300  0.27640  0.15739  1.0000 -0.5715520995
O   O123      1.0  0.51700  0.77640  0.84261  1.0000 -0.5715520995
O   O124      1.0  0.01700  0.22360  0.65739  1.0000 -0.5715520995
O   O125      1.0  0.51700  0.27640  0.65739  1.0000 -0.5715520995
O   O126      1.0  0.01700  0.72360  0.84261  1.0000 -0.5715520995
O   O127      1.0  0.48300  0.22360  0.15739  1.0000 -0.5715520995
O   O128      1.0  0.98300  0.77640  0.34261  1.0000 -0.5715520995
O   O129      1.0  0.79380  0.43740  0.14186  1.0000 -0.6039802002
O   O130      1.0  0.29380  0.56260  0.35814  1.0000 -0.6039802002
O   O131      1.0  0.20620  0.06260  0.64186  1.0000 -0.6039802002
O   O132      1.0  0.70620  0.93740  0.85814  1.0000 -0.6039802002
O   O133      1.0  0.20620  0.56260  0.85814  1.0000 -0.6039802002
O   O134      1.0  0.70620  0.43740  0.64186  1.0000 -0.6039802002
O   O135      1.0  0.79380  0.93740  0.35814  1.0000 -0.6039802002
O   O136      1.0  0.29380  0.06260  0.14186  1.0000 -0.6039802002
O   O137      1.0  0.74820  0.53190  0.16266  1.0000 -0.6108772698
O   O138      1.0  0.24820  0.46810  0.33734  1.0000 -0.6108772698
O   O139      1.0  0.25180  0.96810  0.66266  1.0000 -0.6108772698
O   O140      1.0  0.75180  0.03190  0.83734  1.0000 -0.6108772698
O   O141      1.0  0.25180  0.46810  0.83734  1.0000 -0.6108772698
O   O142      1.0  0.75180  0.53190  0.66266  1.0000 -0.6108772698
O   O143      1.0  0.74820  0.03190  0.33734  1.0000 -0.6108772698
O   O144      1.0  0.24820  0.96810  0.16266  1.0000 -0.6108772698
O   O145      1.0  0.11290  0.54570  0.33669  1.0000 -0.6527818756
O   O146      1.0  0.61290  0.45430  0.16331  1.0000 -0.6527818756
O   O147      1.0  0.88710  0.95430  0.83669  1.0000 -0.6527818756
O   O148      1.0  0.38710  0.04570  0.66331  1.0000 -0.6527818756
O   O149      1.0  0.88710  0.45430  0.66331  1.0000 -0.6527818756
O   O150      1.0  0.38710  0.54570  0.83669  1.0000 -0.6527818756
O   O151      1.0  0.11290  0.04570  0.16331  1.0000 -0.6527818756
O   O152      1.0  0.61290  0.95430  0.33669  1.0000 -0.6527818756
O   O153      1.0  0.09980  0.43270  0.34885  1.0000 -0.5801704767
O   O154      1.0  0.59980  0.56730  0.15115  1.0000 -0.5801704767
O   O155      1.0  0.90020  0.06730  0.84885  1.0000 -0.5801704767
O   O156      1.0  0.40020  0.93270  0.65115  1.0000 -0.5801704767
O   O157      1.0  0.90020  0.56730  0.65115  1.0000 -0.5801704767
O   O158      1.0  0.40020  0.43270  0.84885  1.0000 -0.5801704767
O   O159      1.0  0.09980  0.93270  0.15115  1.0000 -0.5801704767
O   O160      1.0  0.59980  0.06730  0.34885  1.0000 -0.5801704767
O   O161      1.0  0.76430  0.58470  0.10646  1.0000 -0.5801704767
O   O162      1.0  0.26430  0.41530  0.39354  1.0000 -0.5801704767
O   O163      1.0  0.23570  0.91530  0.60646  1.0000 -0.5801704767
O   O164      1.0  0.73570  0.08470  0.89354  1.0000 -0.5801704767
O   O165      1.0  0.23570  0.41530  0.89354  1.0000 -0.5801704767
O   O166      1.0  0.73570  0.58470  0.60646  1.0000 -0.5801704767
O   O167      1.0  0.76430  0.08470  0.39354  1.0000 -0.5801704767
O   O168      1.0  0.26430  0.91530  0.10646  1.0000 -0.5801704767
O   O169      1.0  0.64970  0.58130  0.09346  1.0000 -0.6419903951
O   O170      1.0  0.14970  0.41870  0.40654  1.0000 -0.6419903951
O   O171      1.0  0.35030  0.91870  0.59346  1.0000 -0.6419903951
O   O172      1.0  0.85030  0.08130  0.90654  1.0000 -0.6419903951
O   O173      1.0  0.35030  0.41870  0.90654  1.0000 -0.6419903951
O   O174      1.0  0.85030  0.58130  0.59346  1.0000 -0.6419903951
O   O175      1.0  0.64970  0.08130  0.40654  1.0000 -0.6419903951
O   O176      1.0  0.14970  0.91870  0.09346  1.0000 -0.6419903951
O   O177      1.0  0.78490  0.94720  0.91691  1.0000 -0.6896152454
O   O178      1.0  0.28490  0.05280  0.58309  1.0000 -0.6896152454
O   O179      1.0  0.21510  0.55280  0.41691  1.0000 -0.6896152454
O   O180      1.0  0.71510  0.44720  0.08309  1.0000 -0.6896152454
O   O181      1.0  0.21510  0.05280  0.08309  1.0000 -0.6896152454
O   O182      1.0  0.71510  0.94720  0.41691  1.0000 -0.6896152454
O   O183      1.0  0.78490  0.44720  0.58309  1.0000 -0.6896152454
O   O184      1.0  0.28490  0.55280  0.91691  1.0000 -0.6896152454
O   O185      1.0  0.66460  0.94720  0.92561  1.0000 -0.5332170289
O   O186      1.0  0.16460  0.05280  0.57439  1.0000 -0.5332170289
O   O187      1.0  0.33540  0.55280  0.42561  1.0000 -0.5332170289
O   O188      1.0  0.83540  0.44720  0.07439  1.0000 -0.5332170289
O   O189      1.0  0.33540  0.05280  0.07439  1.0000 -0.5332170289
O   O190      1.0  0.83540  0.94720  0.42561  1.0000 -0.5393005395
O   O191      1.0  0.66460  0.44720  0.57439  1.0000 -0.5332170289
O   O192      1.0  0.16460  0.55280  0.92561  1.0000 -0.5332170289
O   O193      1.0  0.76800  0.80510  0.12053  1.0000 -0.779516572
O   O194      1.0  0.26800  0.19490  0.37947  1.0000 -0.779516572
O   O195      1.0  0.23200  0.69490  0.62053  1.0000 -0.779516572
O   O196      1.0  0.73200  0.30510  0.87947  1.0000 -0.779516572
O   O197      1.0  0.23200  0.19490  0.87947  1.0000 -0.779516572
O   O198      1.0  0.73200  0.80510  0.62053  1.0000 -0.779516572
O   O199      1.0  0.76800  0.30510  0.37947  1.0000 -0.779516572
O   O200      1.0  0.26800  0.69490  0.12053  1.0000 -0.779516572
O   O201      1.0  0.56590  0.45670  0.10365  1.0000 -0.779516572
O   O202      1.0  0.06590  0.54330  0.39635  1.0000 -0.779516572
O   O203      1.0  0.43410  0.04330  0.60365  1.0000 -0.779516572
O   O204      1.0  0.93410  0.95670  0.89635  1.0000 -0.779516572
O   O205      1.0  0.43410  0.54330  0.89635  1.0000 -0.779516572
O   O206      1.0  0.93410  0.45670  0.60365  1.0000 -0.779516572
O   O207      1.0  0.56590  0.95670  0.39635  1.0000 -0.779516572
O   O208      1.0  0.06590  0.04330  0.10365  1.0000 -0.779516572
O   O209      1.0  0.67130  0.35770  0.12720  1.0000 -0.7567684807
O   O210      1.0  0.17130  0.64230  0.37280  1.0000 -0.7546491938
O   O211      1.0  0.32870  0.14230  0.62720  1.0000 -0.7567684807
O   O212      1.0  0.82870  0.85770  0.87280  1.0000 -0.7567684807
O   O213      1.0  0.32870  0.64230  0.87280  1.0000 -0.7567684807
O   O214      1.0  0.82870  0.35770  0.62720  1.0000 -0.7567684807
O   O215      1.0  0.67130  0.85770  0.37280  1.0000 -0.7567684807
O   O216      1.0  0.17130  0.14230  0.12720  1.0000 -0.7567684807
O   O217      1.0  0.48820  0.91450  0.89222  1.0000 -0.7898497301
O   O218      1.0  0.98820  0.08550  0.60778  1.0000 -0.7898497301
O   O219      1.0  0.51180  0.58550  0.39222  1.0000 -0.7898497301
O   O220      1.0  0.01180  0.41450  0.10778  1.0000 -0.7898497301
O   O221      1.0  0.51180  0.08550  0.10778  1.0000 -0.7898497301
O   O222      1.0  0.01180  0.91450  0.39222  1.0000 -0.7898497301
O   O223      1.0  0.48820  0.41450  0.60778  1.0000 -0.7898497301
O   O224      1.0  0.98820  0.58550  0.89222  1.0000 -0.7898497301
O   O225      1.0  0.93460  0.98560  0.12438  1.0000 -0.7567684807
O   O226      1.0  0.43460  0.01440  0.37562  1.0000 -0.7567684807
O   O227      1.0  0.06540  0.51440  0.62438  1.0000 -0.7567684807
O   O228      1.0  0.56540  0.48560  0.87562  1.0000 -0.7567684807
O   O229      1.0  0.06540  0.01440  0.87562  1.0000 -0.7567684807
O   O230      1.0  0.56540  0.98560  0.62438  1.0000 -0.7567684807
O   O231      1.0  0.93460  0.48560  0.37562  1.0000 -0.7567684807
O   O232      1.0  0.43460  0.51440  0.12438  1.0000 -0.7567684807
O   O233      1.0  0.75390  0.93630  0.01483  1.0000 -0.4901477749
O   O234      1.0  0.70960  0.04620  0.03251  1.0000 -0.4901477749
O   O235      1.0  0.77670  0.04520  0.99218  1.0000 -0.4722335691
O   O236      1.0  0.65910  0.99600  0.99277  1.0000 -0.4901477749
O   O237      1.0  0.25390  0.06370  0.48517  1.0000 -0.4901477749
O   O238      1.0  0.20960  0.95380  0.46749  1.0000 -0.4901477749
O   O239      1.0  0.27670  0.95480  0.50782  1.0000 -0.4722335691
O   O240      1.0  0.15910  0.00400  0.50723  1.0000 -0.4901477749
O   O241      1.0  0.24610  0.56370  0.51483  1.0000 -0.4901477749
O   O242      1.0  0.29040  0.45380  0.53251  1.0000 -0.4901477749
O   O243      1.0  0.22330  0.45480  0.49218  1.0000 -0.4722335691
O   O244      1.0  0.34090  0.50400  0.49277  1.0000 -0.4901477749
O   O245      1.0  0.74610  0.43630  0.98517  1.0000 -0.4901477749
O   O246      1.0  0.79040  0.54620  0.96749  1.0000 -0.4901477749
O   O247      1.0  0.72330  0.54520  0.00782  1.0000 -0.4722335691
O   O248      1.0  0.84090  0.49600  0.00723  1.0000 -0.4901477749
O   O249      1.0  0.24610  0.06370  0.98517  1.0000 -0.4901477749
O   O250      1.0  0.29040  0.95380  0.96749  1.0000 -0.4901477749
O   O251      1.0  0.22330  0.95480  0.00782  1.0000 -0.4722335691
O   O252      1.0  0.34090  0.00400  0.00723  1.0000 -0.4901477749
O   O253      1.0  0.74610  0.93630  0.51483  1.0000 -0.4901477749
O   O254      1.0  0.79040  0.04620  0.53251  1.0000 -0.4901477749
O   O255      1.0  0.72330  0.04520  0.49218  1.0000 -0.4722335691
O   O256      1.0  0.84090  0.99600  0.49277  1.0000 -0.4901477749
O   O257      1.0  0.75390  0.43630  0.48517  1.0000 -0.4901477749
O   O258      1.0  0.70960  0.54620  0.46749  1.0000 -0.4901477749
O   O259      1.0  0.77670  0.54520  0.50782  1.0000 -0.4722335691
O   O260      1.0  0.65910  0.49600  0.50723  1.0000 -0.4901477749
O   O261      1.0  0.25390  0.56370  0.01483  1.0000 -0.4901477749
O   O262      1.0  0.20960  0.45380  0.03251  1.0000 -0.4901477749
O   O263      1.0  0.27670  0.45480  0.99218  1.0000 -0.4722335691
O   O264      1.0  0.15910  0.50400  0.99277  1.0000 -0.4901477749
