# DDEC6 charges by PACMAN v1.1 (https://github.com/mtap-research/PACMAN-charge/)
data_2012[Cd][bpq]3[ION]1
_chemical_formula_sum              "Cd4 H36 C24 N24 Cl4 O4"
_cell_length_a       7.62
_cell_length_b       20.963
_cell_length_c       9.876
_cell_angle_alpha    90
_cell_angle_beta     90
_cell_angle_gamma    90

_symmetry_space_group_name_H-M    "P 1"
_symmetry_Int_Tables_number       1

loop_
  _symmetry_equiv_pos_as_xyz
  'x, y, z'

loop_
  _atom_site_type_symbol
  _atom_site_label
  _atom_site_symmetry_multiplicity
  _atom_site_fract_x
  _atom_site_fract_y
  _atom_site_fract_z
  _atom_site_occupancy
  _atom_site_charge
Cd  Cd1       1.0  0.75221  0.25104  0.24486  1.0000 0.7097191267
Cd  Cd2       1.0  0.25014  0.25171  0.24439  1.0000 0.7097191267
Cd  Cd3       1.0  0.25150  0.75054  0.73912  1.0000 0.6935695462
Cd  Cd4       1.0  0.74829  0.75036  0.73927  1.0000 0.6935695462
H   H1        1.0  0.77812  0.10865  0.03702  1.0000 0.1119627371
H   H2        1.0  0.38266  0.02336  0.87857  1.0000 0.0975863869
H   H3        1.0  0.28621  0.60050  0.55729  1.0000 0.1438521645
H   H4        1.0  0.88248  0.52242  0.38532  1.0000 0.0900877983
H   H5        1.0  0.21657  0.39990  0.05395  1.0000 0.1477662079
H   H6        1.0  0.61824  0.47849  0.88259  1.0000 0.0975863869
H   H7        1.0  0.71342  0.89932  0.55532  1.0000 0.1477662079
H   H8        1.0  0.11700  0.97628  0.38216  1.0000 0.0975863869
H   H9        1.0  0.22262  0.60877  0.95468  1.0000 0.1119627371
H   H10       1.0  0.61779  0.52605  0.11891  1.0000 0.0900877983
H   H11       1.0  0.64712  0.08985  0.44205  1.0000 0.311004316
H   H12       1.0  0.11449  0.02602  0.61627  1.0000 0.0975863869
H   H13       1.0  0.77785  0.89242  0.95464  1.0000 0.1119627371
H   H14       1.0  0.38242  0.97666  0.11530  1.0000 0.0900877983
H   H15       1.0  0.27805  0.39157  0.45570  1.0000 0.1119627371
H   H16       1.0  0.88253  0.47395  0.62021  1.0000 0.0975863869
H   H17       1.0  0.22226  0.89237  0.95442  1.0000 0.1119627371
H   H18       1.0  0.61737  0.97669  0.11538  1.0000 0.0900877983
H   H19       1.0  0.72216  0.39144  0.45596  1.0000 0.1119627371
H   H20       1.0  0.11747  0.47390  0.62043  1.0000 0.0975863869
H   H21       1.0  0.77794  0.60885  0.95427  1.0000 0.1119627371
H   H22       1.0  0.38291  0.52578  0.11840  1.0000 0.0900877983
H   H23       1.0  0.27839  0.10753  0.45495  1.0000 0.1270429246
H   H24       1.0  0.87926  0.02642  0.61369  1.0000 0.0975863869
H   H25       1.0  0.78738  0.39916  0.05439  1.0000 0.1438521645
H   H26       1.0  0.38319  0.47771  0.88367  1.0000 0.0975863869
H   H27       1.0  0.28511  0.89972  0.55520  1.0000 0.1477662079
H   H28       1.0  0.88114  0.97605  0.38194  1.0000 0.0900877983
H   H29       1.0  0.22152  0.10878  0.03666  1.0000 0.1119627371
H   H30       1.0  0.61720  0.02341  0.87858  1.0000 0.0975863869
H   H31       1.0  0.71474  0.60033  0.55702  1.0000 0.1438521645
H   H32       1.0  0.11757  0.52215  0.38483  1.0000 0.0900877983
H   H33       1.0  0.50111  0.53688  0.50627  1.0000 0.3494186901
H   H34       1.0  0.00487  0.46592  0.02853  1.0000 0.3494186901
H   H35       1.0  0.52593  0.05125  0.34171  1.0000 0.3585789554
H   H36       1.0  0.50119  0.96762  0.53211  1.0000 0.3585789554
C   C1        1.0  0.64227  0.12318  0.05093  1.0000 0.0693614162
C   C2        1.0  0.14582  0.61671  0.56715  1.0000 0.0812378152
C   C3        1.0  0.35738  0.38317  0.06426  1.0000 0.0693614162
C   C4        1.0  0.85406  0.88295  0.56580  1.0000 0.0812378152
C   C5        1.0  0.35797  0.62451  0.94397  1.0000 0.0900877983
C   C6        1.0  0.85784  0.12250  0.43391  1.0000 -0.0120341679
C   C7        1.0  0.64225  0.87714  0.94289  1.0000 0.0812378152
C   C8        1.0  0.14257  0.37634  0.44309  1.0000 0.0900877983
C   C9        1.0  0.35789  0.87711  0.94282  1.0000 0.0812378152
C   C10       1.0  0.85765  0.37626  0.44324  1.0000 0.0900877983
C   C11       1.0  0.64253  0.62456  0.94379  1.0000 0.0900877983
C   C12       1.0  0.14418  0.12323  0.44003  1.0000 0.0812378152
C   C13       1.0  0.64760  0.38309  0.06407  1.0000 0.0693614162
C   C14       1.0  0.14488  0.88318  0.56570  1.0000 0.0812378152
C   C15       1.0  0.35742  0.12307  0.05132  1.0000 0.0693614162
C   C16       1.0  0.85522  0.61665  0.56713  1.0000 0.0812378152
C   C17       1.0  0.49992  0.02664  0.94319  1.0000 -0.1068760105
C   C18       1.0  0.00025  0.52434  0.44934  1.0000 -0.1015840762
C   C19       1.0  0.50125  0.47590  0.94735  1.0000 -0.1015840762
C   C20       1.0  0.99898  0.97474  0.44597  1.0000 -0.0947138615
C   C21       1.0  0.50055  0.52903  0.05416  1.0000 -0.1015840762
C   C22       1.0  0.99810  0.02872  0.55062  1.0000 -0.1015840762
C   C23       1.0  0.49993  0.97366  0.05078  1.0000 -0.1068760105
C   C24       1.0  0.00009  0.47105  0.55580  1.0000 -0.1015840762
N   N1        1.0  0.59063  0.17367  0.11908  1.0000 -0.1883406438
N   N2        1.0  0.09162  0.66652  0.63631  1.0000 -0.1883406438
N   N3        1.0  0.41113  0.33277  0.13175  1.0000 -0.1883406438
N   N4        1.0  0.90859  0.83316  0.63499  1.0000 -0.1883406438
N   N5        1.0  0.40935  0.67572  0.87814  1.0000 -0.1748307034
N   N6        1.0  0.91147  0.17250  0.36849  1.0000 -0.2029989608
N   N7        1.0  0.59088  0.82572  0.87790  1.0000 -0.1748307034
N   N8        1.0  0.09116  0.32612  0.37408  1.0000 -0.180310978
N   N9        1.0  0.40939  0.82569  0.87787  1.0000 -0.1748307034
N   N10       1.0  0.90918  0.32606  0.37424  1.0000 -0.180310978
N   N11       1.0  0.59084  0.67574  0.87804  1.0000 -0.1748307034
N   N12       1.0  0.09517  0.17372  0.37152  1.0000 -0.180310978
N   N13       1.0  0.59412  0.33265  0.13176  1.0000 -0.180310978
N   N14       1.0  0.09102  0.83328  0.63485  1.0000 -0.1883406438
N   N15       1.0  0.40912  0.17351  0.11955  1.0000 -0.1883406438
N   N16       1.0  0.90926  0.66648  0.63627  1.0000 -0.1883406438
N   N17       1.0  0.49984  0.09099  0.00159  1.0000 0.0125414162
N   N18       1.0  0.00062  0.58708  0.51323  1.0000 0.0125414162
N   N19       1.0  0.50267  0.41308  0.01097  1.0000 0.0125414162
N   N20       1.0  0.99928  0.91256  0.51199  1.0000 0.0125414162
N   N21       1.0  0.50034  0.59283  0.99457  1.0000 0.0125414162
N   N22       1.0  0.99970  0.09174  0.48790  1.0000 0.0125414162
N   N23       1.0  0.50002  0.90941  0.99204  1.0000 0.0125414162
N   N24       1.0  0.00010  0.40743  0.49525  1.0000 0.0125414162
Cl  Cl1       1.0  0.00007  0.23316  0.06473  1.0000 -0.503996218
Cl  Cl2       1.0  0.49991  0.74998  0.56352  1.0000 -0.4334797509
Cl  Cl3       1.0  0.00004  0.75056  0.92486  1.0000 -0.5563031085
Cl  Cl4       1.0  0.50190  0.25833  0.42846  1.0000 -0.5335292466
O   O1        1.0  0.00527  0.42036  0.04995  1.0000 -0.9023016937
O   O2        1.0  0.49992  0.92160  0.54946  1.0000 -0.9023016937
O   O3        1.0  0.50078  0.57809  0.55263  1.0000 -0.9023016937
O   O4        1.0  0.53023  0.06620  0.43485  1.0000 -0.7422778256
