# DDEC6 charges by PACMAN v1.1 (https://github.com/mtap-research/PACMAN-charge/)
data_2012[Cu][ths]3[ION]1
_chemical_formula_sum              "Cu8 H64 C48 N4 O48"
_cell_length_a       8.6081
_cell_length_b       34.1408
_cell_length_c       8.6987
_cell_angle_alpha    90
_cell_angle_beta     107.578
_cell_angle_gamma    90

_symmetry_space_group_name_H-M    "P 1"
_symmetry_Int_Tables_number       1

loop_
  _symmetry_equiv_pos_as_xyz
  'x, y, z'

loop_
  _atom_site_type_symbol
  _atom_site_label
  _atom_site_symmetry_multiplicity
  _atom_site_fract_x
  _atom_site_fract_y
  _atom_site_fract_z
  _atom_site_occupancy
  _atom_site_charge
Cu  Cu1       1.0  0.51921  0.79653  0.25136  1.0000 0.9018348584
Cu  Cu2       1.0  0.98079  0.29653  0.74864  1.0000 0.9018348584
Cu  Cu3       1.0  0.48079  0.20347  0.74864  1.0000 0.9018348584
Cu  Cu4       1.0  0.01921  0.70347  0.25136  1.0000 0.9018348584
Cu  Cu5       1.0  0.50170  0.95447  0.26215  1.0000 0.870312197
Cu  Cu6       1.0  0.99830  0.45447  0.73785  1.0000 0.870312197
Cu  Cu7       1.0  0.49830  0.04553  0.73785  1.0000 0.870312197
Cu  Cu8       1.0  0.00170  0.54553  0.26215  1.0000 0.870312197
H   H1        1.0  0.30300  0.56710  0.08750  1.0000 0.2710962796
H   H2        1.0  0.27410  0.62880  0.99880  1.0000 0.1104851801
H   H3        1.0  0.32520  0.62960  0.19130  1.0000 0.1104851801
H   H4        1.0  0.47560  0.67670  0.10860  1.0000 0.1663718054
H   H5        1.0  0.59880  0.64290  0.19710  1.0000 0.149551949
H   H6        1.0  0.53820  0.64530  0.00440  1.0000 0.149551949
H   H7        1.0  0.57530  0.57830  0.98610  1.0000 0.1168223667
H   H8        1.0  0.47950  0.53780  0.97610  1.0000 0.1043848337
H   H9        1.0  0.40970  0.56950  0.72340  1.0000 0.149551949
H   H10       1.0  0.25270  0.56410  0.78360  1.0000 0.149551949
H   H11       1.0  0.34040  0.60590  0.79860  1.0000 0.1401819045
H   H12       1.0  0.46810  0.58110  0.34950  1.0000 0.1168223667
H   H13       1.0  0.62040  0.57780  0.28100  1.0000 0.1168223667
H   H14       1.0  0.60460  0.51850  0.38880  1.0000 0.149551949
H   H15       1.0  0.41100  0.51640  0.31030  1.0000 0.149551949
H   H16       1.0  0.52760  0.51170  0.19880  1.0000 0.1327058801
H   H17       1.0  0.19700  0.06710  0.91250  1.0000 0.2710962796
H   H18       1.0  0.22590  0.12880  0.00120  1.0000 0.1104851801
H   H19       1.0  0.17480  0.12960  0.80870  1.0000 0.1104851801
H   H20       1.0  0.02440  0.17670  0.89140  1.0000 0.1663718054
H   H21       1.0  0.90120  0.14290  0.80290  1.0000 0.149551949
H   H22       1.0  0.96180  0.14530  0.99560  1.0000 0.149551949
H   H23       1.0  0.92470  0.07830  0.01390  1.0000 0.1168223667
H   H24       1.0  0.02050  0.03780  0.02390  1.0000 0.1043848337
H   H25       1.0  0.09030  0.06950  0.27660  1.0000 0.149551949
H   H26       1.0  0.24730  0.06410  0.21640  1.0000 0.149551949
H   H27       1.0  0.15960  0.10590  0.20140  1.0000 0.1401819045
H   H28       1.0  0.03190  0.08110  0.65050  1.0000 0.1168223667
H   H29       1.0  0.87960  0.07780  0.71900  1.0000 0.1168223667
H   H30       1.0  0.89540  0.01850  0.61120  1.0000 0.149551949
H   H31       1.0  0.08900  0.01640  0.68970  1.0000 0.149551949
H   H32       1.0  0.97240  0.01170  0.80120  1.0000 0.1327058801
H   H33       1.0  0.69700  0.43290  0.91250  1.0000 0.2710962796
H   H34       1.0  0.72590  0.37120  0.00120  1.0000 0.1104851801
H   H35       1.0  0.67480  0.37040  0.80870  1.0000 0.1104851801
H   H36       1.0  0.52440  0.32330  0.89140  1.0000 0.1663718054
H   H37       1.0  0.40120  0.35710  0.80290  1.0000 0.149551949
H   H38       1.0  0.46180  0.35470  0.99560  1.0000 0.149551949
H   H39       1.0  0.42470  0.42170  0.01390  1.0000 0.1168223667
H   H40       1.0  0.52050  0.46220  0.02390  1.0000 0.1043848337
H   H41       1.0  0.59030  0.43050  0.27660  1.0000 0.149551949
H   H42       1.0  0.74730  0.43590  0.21640  1.0000 0.149551949
H   H43       1.0  0.65960  0.39410  0.20140  1.0000 0.1401819045
H   H44       1.0  0.53190  0.41890  0.65050  1.0000 0.1168223667
H   H45       1.0  0.37960  0.42220  0.71900  1.0000 0.1168223667
H   H46       1.0  0.39540  0.48150  0.61120  1.0000 0.149551949
H   H47       1.0  0.58900  0.48360  0.68970  1.0000 0.149551949
H   H48       1.0  0.47240  0.48830  0.80120  1.0000 0.1327058801
H   H49       1.0  0.80300  0.93290  0.08750  1.0000 0.2710962796
H   H50       1.0  0.77410  0.87120  0.99880  1.0000 0.1104851801
H   H51       1.0  0.82520  0.87040  0.19130  1.0000 0.1104851801
H   H52       1.0  0.97560  0.82330  0.10860  1.0000 0.1663718054
H   H53       1.0  0.09880  0.85710  0.19710  1.0000 0.149551949
H   H54       1.0  0.03820  0.85470  0.00440  1.0000 0.149551949
H   H55       1.0  0.07530  0.92170  0.98610  1.0000 0.1168223667
H   H56       1.0  0.97950  0.96220  0.97610  1.0000 0.1043848337
H   H57       1.0  0.90970  0.93050  0.72340  1.0000 0.149551949
H   H58       1.0  0.75270  0.93590  0.78360  1.0000 0.149551949
H   H59       1.0  0.84040  0.89410  0.79860  1.0000 0.1401819045
H   H60       1.0  0.96810  0.91890  0.34950  1.0000 0.1168223667
H   H61       1.0  0.12040  0.92220  0.28100  1.0000 0.1168223667
H   H62       1.0  0.10460  0.98150  0.38880  1.0000 0.149551949
H   H63       1.0  0.91100  0.98360  0.31030  1.0000 0.149551949
H   H64       1.0  0.02760  0.98830  0.19880  1.0000 0.1327058801
C   C1        1.0  0.43780  0.87677  0.18220  1.0000 0.4613316337
C   C2        1.0  0.06220  0.37677  0.81780  1.0000 0.4613316337
C   C3        1.0  0.56220  0.12323  0.81780  1.0000 0.4613316337
C   C4        1.0  0.93780  0.62323  0.18220  1.0000 0.4613316337
C   C5        1.0  0.59470  0.87405  0.33050  1.0000 0.4613316337
C   C6        1.0  0.90530  0.37405  0.66950  1.0000 0.4613316337
C   C7        1.0  0.40530  0.12595  0.66950  1.0000 0.4613316337
C   C8        1.0  0.09470  0.62595  0.33050  1.0000 0.4613316337
C   C9        1.0  0.28070  0.74137  0.18960  1.0000 0.4687872888
C   C10       1.0  0.21930  0.24137  0.81040  1.0000 0.4687872888
C   C11       1.0  0.71930  0.25863  0.81040  1.0000 0.4687872888
C   C12       1.0  0.78070  0.75863  0.18960  1.0000 0.4687872888
C   C13       1.0  0.26770  0.76384  0.34000  1.0000 0.4687872888
C   C14       1.0  0.23230  0.26384  0.66000  1.0000 0.4687872888
C   C15       1.0  0.73230  0.23616  0.66000  1.0000 0.4759239236
C   C16       1.0  0.76770  0.73616  0.34000  1.0000 0.4687872888
C   C17       1.0  0.57890  0.98864  0.00010  1.0000 0.4687872888
C   C18       1.0  0.92110  0.48864  0.99990  1.0000 0.4687872888
C   C19       1.0  0.42110  0.01136  0.99990  1.0000 0.4687872888
C   C20       1.0  0.07890  0.51136  0.00010  1.0000 0.4687872888
C   C21       1.0  0.43050  0.98774  0.51510  1.0000 0.4540422911
C   C22       1.0  0.06950  0.48774  0.48490  1.0000 0.4540422911
C   C23       1.0  0.56950  0.01226  0.48490  1.0000 0.4540422911
C   C24       1.0  0.93050  0.51226  0.51510  1.0000 0.4540422911
C   C25       1.0  0.36400  0.62313  0.09820  1.0000 -0.0375169201
C   C26       1.0  0.50670  0.64930  0.10240  1.0000 -0.3916629787
C   C27       1.0  0.46630  0.56663  0.96990  1.0000 -0.0308182739
C   C28       1.0  0.35780  0.57746  0.80450  1.0000 -0.3916629787
C   C29       1.0  0.50840  0.56829  0.26680  1.0000 -0.0308182739
C   C30       1.0  0.51330  0.52501  0.29350  1.0000 -0.400639387
C   C31       1.0  0.13600  0.12313  0.90180  1.0000 -0.0375169201
C   C32       1.0  0.99330  0.14930  0.89760  1.0000 -0.3916629787
C   C33       1.0  0.03370  0.06663  0.03010  1.0000 -0.0308182739
C   C34       1.0  0.14220  0.07746  0.19550  1.0000 -0.400639387
C   C35       1.0  0.99160  0.06829  0.73320  1.0000 -0.0308182739
C   C36       1.0  0.98670  0.02501  0.70650  1.0000 -0.400639387
C   C37       1.0  0.63600  0.37687  0.90180  1.0000 -0.0375169201
C   C38       1.0  0.49330  0.35070  0.89760  1.0000 -0.3916629787
C   C39       1.0  0.53370  0.43337  0.03010  1.0000 -0.0308182739
C   C40       1.0  0.64220  0.42254  0.19550  1.0000 -0.3916629787
C   C41       1.0  0.49160  0.43171  0.73320  1.0000 -0.0308182739
C   C42       1.0  0.48670  0.47499  0.70650  1.0000 -0.400639387
C   C43       1.0  0.86400  0.87687  0.09820  1.0000 -0.0375169201
C   C44       1.0  0.00670  0.85070  0.10240  1.0000 -0.3916629787
C   C45       1.0  0.96630  0.93337  0.96990  1.0000 -0.0308182739
C   C46       1.0  0.85780  0.92254  0.80450  1.0000 -0.3916629787
C   C47       1.0  0.00840  0.93171  0.26680  1.0000 -0.0308182739
C   C48       1.0  0.01330  0.97499  0.29350  1.0000 -0.400639387
N   N1        1.0  0.40170  0.58001  0.10280  1.0000 -0.0114602676
N   N2        1.0  0.09830  0.08001  0.89720  1.0000 -0.0114602676
N   N3        1.0  0.59830  0.41999  0.89720  1.0000 -0.0114602676
N   N4        1.0  0.90170  0.91999  0.10280  1.0000 -0.0114602676
O   O1        1.0  0.38941  0.84650  0.10433  1.0000 -0.4624269277
O   O2        1.0  0.11059  0.34650  0.89567  1.0000 -0.4624269277
O   O3        1.0  0.61059  0.15350  0.89567  1.0000 -0.4624269277
O   O4        1.0  0.88941  0.65350  0.10433  1.0000 -0.4624269277
O   O5        1.0  0.37171  0.91005  0.15182  1.0000 -0.4673876708
O   O6        1.0  0.12829  0.41005  0.84818  1.0000 -0.4673876708
O   O7        1.0  0.62829  0.08995  0.84818  1.0000 -0.4673876708
O   O8        1.0  0.87171  0.58995  0.15182  1.0000 -0.4673876708
O   O9        1.0  0.64116  0.83990  0.37925  1.0000 -0.4512225075
O   O10       1.0  0.85884  0.33990  0.62075  1.0000 -0.4512225075
O   O11       1.0  0.35884  0.16010  0.62075  1.0000 -0.4512225075
O   O12       1.0  0.14116  0.66010  0.37925  1.0000 -0.4512225075
O   O13       1.0  0.66247  0.90484  0.38853  1.0000 -0.4926420508
O   O14       1.0  0.83753  0.40484  0.61147  1.0000 -0.4926420508
O   O15       1.0  0.33753  0.09516  0.61147  1.0000 -0.4926420508
O   O16       1.0  0.16247  0.59516  0.38853  1.0000 -0.4926420508
O   O17       1.0  0.35815  0.79419  0.37641  1.0000 -0.4624269277
O   O18       1.0  0.14185  0.29419  0.62359  1.0000 -0.4624269277
O   O19       1.0  0.64185  0.20581  0.62359  1.0000 -0.4624269277
O   O20       1.0  0.85815  0.70581  0.37641  1.0000 -0.4624269277
O   O21       1.0  0.17566  0.75190  0.41336  1.0000 -0.4316536879
O   O22       1.0  0.32434  0.25190  0.58664  1.0000 -0.4316536879
O   O23       1.0  0.82434  0.24810  0.58664  1.0000 -0.4316536879
O   O24       1.0  0.67566  0.74810  0.41336  1.0000 -0.4316536879
O   O25       1.0  0.38470  0.75375  0.12590  1.0000 -0.4371179288
O   O26       1.0  0.11530  0.25375  0.87410  1.0000 -0.4371179288
O   O27       1.0  0.61530  0.24625  0.87410  1.0000 -0.4371179288
O   O28       1.0  0.88470  0.74625  0.12590  1.0000 -0.4371179288
O   O29       1.0  0.19024  0.71248  0.14209  1.0000 -0.4316536879
O   O30       1.0  0.30976  0.21248  0.85791  1.0000 -0.4316536879
O   O31       1.0  0.80976  0.28752  0.85791  1.0000 -0.4316536879
O   O32       1.0  0.69024  0.78752  0.14209  1.0000 -0.4316536879
O   O33       1.0  0.61493  0.95920  0.09411  1.0000 -0.5008424392
O   O34       1.0  0.88507  0.45920  0.90589  1.0000 -0.5008424392
O   O35       1.0  0.38507  0.04080  0.90589  1.0000 -0.5008424392
O   O36       1.0  0.11493  0.54080  0.09411  1.0000 -0.5008424392
O   O37       1.0  0.65735  0.99984  0.91149  1.0000 -0.4926420508
O   O38       1.0  0.84265  0.49984  0.08851  1.0000 -0.4926420508
O   O39       1.0  0.34265  0.00016  0.08851  1.0000 -0.4926420508
O   O40       1.0  0.15735  0.50016  0.91149  1.0000 -0.4926420508
O   O41       1.0  0.38731  0.95778  0.43029  1.0000 -0.4512225075
O   O42       1.0  0.11269  0.45778  0.56971  1.0000 -0.4512225075
O   O43       1.0  0.61269  0.04222  0.56971  1.0000 -0.4512225075
O   O44       1.0  0.88731  0.54222  0.43029  1.0000 -0.4512225075
O   O45       1.0  0.37222  0.99997  0.62152  1.0000 -0.4624269277
O   O46       1.0  0.12778  0.49997  0.37848  1.0000 -0.4624269277
O   O47       1.0  0.62778  0.00003  0.37848  1.0000 -0.4624269277
O   O48       1.0  0.87222  0.50003  0.62152  1.0000 -0.4624269277
