# DDEC6 charges by PACMAN v1.1 (https://github.com/mtap-research/PACMAN-charge/)
data_2012[Cu][pcu]3[ION]1
_chemical_formula_sum              "Cu2 H56 C72 N16 Cl6 O8"
_cell_length_a       21.6145
_cell_length_b       21.6145
_cell_length_c       5.1678
_cell_angle_alpha    90
_cell_angle_beta     90
_cell_angle_gamma    90

_symmetry_space_group_name_H-M    "P 1"
_symmetry_Int_Tables_number       1

loop_
  _symmetry_equiv_pos_as_xyz
  'x, y, z'

loop_
  _atom_site_type_symbol
  _atom_site_label
  _atom_site_symmetry_multiplicity
  _atom_site_fract_x
  _atom_site_fract_y
  _atom_site_fract_z
  _atom_site_occupancy
  _atom_site_charge
Cu  Cu1       1.0  0.00000  0.00000  0.70430  1.0000 0.603481559
Cu  Cu2       1.0  0.50000  0.50000  0.70430  1.0000 0.603481559
H   H1        1.0  0.01590  0.88120  0.42090  1.0000 0.1103714387
H   H2        1.0  0.88120  0.98410  0.42090  1.0000 0.1103714387
H   H3        1.0  0.98410  0.11880  0.42090  1.0000 0.1103714387
H   H4        1.0  0.11880  0.01590  0.42090  1.0000 0.1103714387
H   H5        1.0  0.51590  0.61880  0.42090  1.0000 0.1103714387
H   H6        1.0  0.61880  0.48410  0.42090  1.0000 0.1103714387
H   H7        1.0  0.48410  0.38120  0.42090  1.0000 0.1103714387
H   H8        1.0  0.38120  0.51590  0.42090  1.0000 0.1103714387
H   H9        1.0  0.97530  0.78160  0.40260  1.0000 0.1441294531
H   H10       1.0  0.78160  0.02470  0.40260  1.0000 0.1441294531
H   H11       1.0  0.02470  0.21840  0.40260  1.0000 0.1441294531
H   H12       1.0  0.21840  0.97530  0.40260  1.0000 0.1441294531
H   H13       1.0  0.47530  0.71840  0.40260  1.0000 0.1441294531
H   H14       1.0  0.71840  0.52470  0.40260  1.0000 0.1441294531
H   H15       1.0  0.52470  0.28160  0.40260  1.0000 0.1441294531
H   H16       1.0  0.28160  0.47530  0.40260  1.0000 0.1441294531
H   H17       1.0  0.89650  0.75450  0.69050  1.0000 0.1477973591
H   H18       1.0  0.75450  0.10350  0.69050  1.0000 0.1477973591
H   H19       1.0  0.10350  0.24550  0.69050  1.0000 0.1477973591
H   H20       1.0  0.24550  0.89650  0.69050  1.0000 0.1477973591
H   H21       1.0  0.39650  0.74550  0.69050  1.0000 0.1477973591
H   H22       1.0  0.74550  0.60350  0.69050  1.0000 0.1477973591
H   H23       1.0  0.60350  0.25450  0.69050  1.0000 0.1477973591
H   H24       1.0  0.25450  0.39650  0.69050  1.0000 0.1477973591
H   H25       1.0  0.90620  0.92520  0.98990  1.0000 0.1219696445
H   H26       1.0  0.92520  0.09380  0.98990  1.0000 0.1219696445
H   H27       1.0  0.09380  0.07480  0.98990  1.0000 0.1219696445
H   H28       1.0  0.07480  0.90620  0.98990  1.0000 0.1219696445
H   H29       1.0  0.40620  0.57480  0.98990  1.0000 0.1219696445
H   H30       1.0  0.57480  0.59380  0.98990  1.0000 0.1219696445
H   H31       1.0  0.59380  0.42520  0.98990  1.0000 0.1219696445
H   H32       1.0  0.42520  0.40620  0.98990  1.0000 0.1219696445
H   H33       1.0  0.83860  0.78100  0.06370  1.0000 0.2872485499
H   H34       1.0  0.78100  0.16140  0.06370  1.0000 0.2872485499
H   H35       1.0  0.16140  0.21900  0.06370  1.0000 0.2872485499
H   H36       1.0  0.21900  0.83860  0.06370  1.0000 0.2872485499
H   H37       1.0  0.33860  0.71900  0.06370  1.0000 0.2872485499
H   H38       1.0  0.71900  0.66140  0.06370  1.0000 0.2872485499
H   H39       1.0  0.66140  0.28100  0.06370  1.0000 0.2872485499
H   H40       1.0  0.28100  0.33860  0.06370  1.0000 0.2872485499
H   H41       1.0  0.74210  0.75790  0.03950  1.0000 0.1219696445
H   H42       1.0  0.75790  0.25790  0.03950  1.0000 0.1219696445
H   H43       1.0  0.25790  0.24210  0.03950  1.0000 0.1219696445
H   H44       1.0  0.24210  0.74210  0.03950  1.0000 0.1219696445
H   H45       1.0  0.74090  0.89060  0.58010  1.0000 0.1219696445
H   H46       1.0  0.89060  0.25910  0.58010  1.0000 0.1219696445
H   H47       1.0  0.25910  0.10940  0.58010  1.0000 0.1219696445
H   H48       1.0  0.10940  0.74090  0.58010  1.0000 0.1219696445
H   H49       1.0  0.24090  0.60940  0.58010  1.0000 0.1219696445
H   H50       1.0  0.60940  0.75910  0.58010  1.0000 0.1219696445
H   H51       1.0  0.75910  0.39060  0.58010  1.0000 0.1219696445
H   H52       1.0  0.39060  0.24090  0.58010  1.0000 0.1219696445
H   H53       1.0  0.65410  0.84590  0.76680  1.0000 0.1219696445
H   H54       1.0  0.84590  0.34590  0.76680  1.0000 0.1219696445
H   H55       1.0  0.34590  0.15410  0.76680  1.0000 0.1219696445
H   H56       1.0  0.15410  0.65410  0.76680  1.0000 0.1219696445
C   C1        1.0  0.98429  0.87016  0.53380  1.0000 0.0767537187
C   C2        1.0  0.87016  0.01571  0.53380  1.0000 0.0767537187
C   C3        1.0  0.01571  0.12984  0.53380  1.0000 0.0767537187
C   C4        1.0  0.12984  0.98429  0.53380  1.0000 0.0767537187
C   C5        1.0  0.48429  0.62984  0.53380  1.0000 0.0767537187
C   C6        1.0  0.62984  0.51571  0.53380  1.0000 0.0767537187
C   C7        1.0  0.51571  0.37016  0.53380  1.0000 0.0767537187
C   C8        1.0  0.37016  0.48429  0.53380  1.0000 0.0767537187
C   C9        1.0  0.96025  0.81005  0.52200  1.0000 -0.1002361719
C   C10       1.0  0.81005  0.03975  0.52200  1.0000 -0.1002361719
C   C11       1.0  0.03975  0.18995  0.52200  1.0000 -0.1002361719
C   C12       1.0  0.18995  0.96025  0.52200  1.0000 -0.1002361719
C   C13       1.0  0.46025  0.68995  0.52200  1.0000 -0.1002361719
C   C14       1.0  0.68995  0.53975  0.52200  1.0000 -0.1002361719
C   C15       1.0  0.53975  0.31005  0.52200  1.0000 -0.1002361719
C   C16       1.0  0.31005  0.46025  0.52200  1.0000 -0.1002361719
C   C17       1.0  0.91333  0.79407  0.69350  1.0000 -0.1260002126
C   C18       1.0  0.79407  0.08667  0.69350  1.0000 -0.1260002126
C   C19       1.0  0.08667  0.20593  0.69350  1.0000 -0.1260002126
C   C20       1.0  0.20593  0.91333  0.69350  1.0000 -0.1260002126
C   C21       1.0  0.41333  0.70593  0.69350  1.0000 -0.1260002126
C   C22       1.0  0.70593  0.58667  0.69350  1.0000 -0.1260002126
C   C23       1.0  0.58667  0.29407  0.69350  1.0000 -0.1260002126
C   C24       1.0  0.29407  0.41333  0.69350  1.0000 -0.1260002126
C   C25       1.0  0.89176  0.83762  0.86910  1.0000 0.1985915768
C   C26       1.0  0.83762  0.10824  0.86910  1.0000 0.1985915768
C   C27       1.0  0.10824  0.16238  0.86910  1.0000 0.1985915768
C   C28       1.0  0.16238  0.89176  0.86910  1.0000 0.1985915768
C   C29       1.0  0.39176  0.66238  0.86910  1.0000 0.1985915768
C   C30       1.0  0.66238  0.60824  0.86910  1.0000 0.1985915768
C   C31       1.0  0.60824  0.33762  0.86910  1.0000 0.1985915768
C   C32       1.0  0.33762  0.39176  0.86910  1.0000 0.1985915768
C   C33       1.0  0.91916  0.89613  0.86880  1.0000 -0.0186391707
C   C34       1.0  0.89613  0.08084  0.86880  1.0000 -0.0186391707
C   C35       1.0  0.08084  0.10387  0.86880  1.0000 -0.0186391707
C   C36       1.0  0.10387  0.91916  0.86880  1.0000 -0.0186391707
C   C37       1.0  0.41916  0.60387  0.86880  1.0000 -0.0186391707
C   C38       1.0  0.60387  0.58084  0.86880  1.0000 -0.0186391707
C   C39       1.0  0.58084  0.39613  0.86880  1.0000 -0.0186391707
C   C40       1.0  0.39613  0.41916  0.86880  1.0000 -0.0186391707
C   C41       1.0  0.80482  0.85903  0.16390  1.0000 0.4710623006
C   C42       1.0  0.85903  0.19518  0.16390  1.0000 0.4710623006
C   C43       1.0  0.19518  0.14097  0.16390  1.0000 0.4710623006
C   C44       1.0  0.14097  0.80482  0.16390  1.0000 0.4710623006
C   C45       1.0  0.30482  0.64097  0.16390  1.0000 0.4710623006
C   C46       1.0  0.64097  0.69518  0.16390  1.0000 0.4710623006
C   C47       1.0  0.69518  0.35903  0.16390  1.0000 0.4710623006
C   C48       1.0  0.35903  0.30482  0.16390  1.0000 0.4710623006
C   C49       1.0  0.75142  0.82785  0.29410  1.0000 -0.0186391707
C   C50       1.0  0.82785  0.24858  0.29410  1.0000 -0.0186391707
C   C51       1.0  0.24858  0.17215  0.29410  1.0000 -0.0186391707
C   C52       1.0  0.17215  0.75142  0.29410  1.0000 -0.0186391707
C   C53       1.0  0.25142  0.67215  0.29410  1.0000 -0.0186391707
C   C54       1.0  0.67215  0.74858  0.29410  1.0000 -0.0186391707
C   C55       1.0  0.74858  0.32785  0.29410  1.0000 -0.0186391707
C   C56       1.0  0.32785  0.25142  0.29410  1.0000 -0.0186391707
C   C57       1.0  0.72459  0.77541  0.18660  1.0000 -0.1407745202
C   C58       1.0  0.77541  0.27541  0.18660  1.0000 -0.1407745202
C   C59       1.0  0.27541  0.22459  0.18660  1.0000 -0.1407745202
C   C60       1.0  0.22459  0.72459  0.18660  1.0000 -0.1407745202
C   C61       1.0  0.72410  0.85479  0.50920  1.0000 -0.0881813909
C   C62       1.0  0.85479  0.27590  0.50920  1.0000 -0.0881813909
C   C63       1.0  0.27590  0.14521  0.50920  1.0000 -0.0881813909
C   C64       1.0  0.14521  0.72410  0.50920  1.0000 -0.0881813909
C   C65       1.0  0.22410  0.64521  0.50920  1.0000 -0.0881813909
C   C66       1.0  0.64521  0.77590  0.50920  1.0000 -0.0881813909
C   C67       1.0  0.77590  0.35479  0.50920  1.0000 -0.0881813909
C   C68       1.0  0.35479  0.22410  0.50920  1.0000 -0.0881813909
C   C69       1.0  0.67150  0.82850  0.61960  1.0000 -0.0881813909
C   C70       1.0  0.82850  0.32850  0.61960  1.0000 -0.0881813909
C   C71       1.0  0.32850  0.17150  0.61960  1.0000 -0.0881813909
C   C72       1.0  0.17150  0.67150  0.61960  1.0000 -0.0881813909
N   N1        1.0  0.96346  0.91190  0.70030  1.0000 -0.1994973627
N   N2        1.0  0.91190  0.03654  0.70030  1.0000 -0.1994973627
N   N3        1.0  0.03654  0.08810  0.70030  1.0000 -0.1994973627
N   N4        1.0  0.08810  0.96346  0.70030  1.0000 -0.1994973627
N   N5        1.0  0.46346  0.58810  0.70030  1.0000 -0.1994973627
N   N6        1.0  0.58810  0.53654  0.70030  1.0000 -0.1994973627
N   N7        1.0  0.53654  0.41190  0.70030  1.0000 -0.1994973627
N   N8        1.0  0.41190  0.46346  0.70030  1.0000 -0.1994973627
N   N9        1.0  0.84374  0.81999  0.03800  1.0000 -0.3647558709
N   N10       1.0  0.81999  0.15626  0.03800  1.0000 -0.3647558709
N   N11       1.0  0.15626  0.18001  0.03800  1.0000 -0.3647558709
N   N12       1.0  0.18001  0.84374  0.03800  1.0000 -0.3647558709
N   N13       1.0  0.34374  0.68001  0.03800  1.0000 -0.3647558709
N   N14       1.0  0.68001  0.65626  0.03800  1.0000 -0.3647558709
N   N15       1.0  0.65626  0.31999  0.03800  1.0000 -0.3647558709
N   N16       1.0  0.31999  0.34374  0.03800  1.0000 -0.3647558709
Cl  Cl1       1.0  0.00000  0.00000  0.20160  1.0000 -0.5782528241
Cl  Cl2       1.0  0.50000  0.50000  0.20160  1.0000 -0.5782528241
Cl  Cl3       1.0  0.32536  0.82536  0.03710  1.0000 -0.6028108915
Cl  Cl4       1.0  0.17464  0.32536  0.03710  1.0000 -0.6028108915
Cl  Cl5       1.0  0.67464  0.17464  0.03710  1.0000 -0.6028108915
Cl  Cl6       1.0  0.82536  0.67464  0.03710  1.0000 -0.6028108915
O   O1        1.0  0.81079  0.91541  0.17080  1.0000 -0.4763377627
O   O2        1.0  0.91541  0.18921  0.17080  1.0000 -0.4763377627
O   O3        1.0  0.18921  0.08459  0.17080  1.0000 -0.4763377627
O   O4        1.0  0.08459  0.81079  0.17080  1.0000 -0.4763377627
O   O5        1.0  0.31079  0.58459  0.17080  1.0000 -0.4763377627
O   O6        1.0  0.58459  0.68921  0.17080  1.0000 -0.4763377627
O   O7        1.0  0.68921  0.41541  0.17080  1.0000 -0.4763377627
O   O8        1.0  0.41541  0.31079  0.17080  1.0000 -0.4763377627
