# DDEC6 charges by PACMAN v1.1 (https://github.com/mtap-research/PACMAN-charge/)
data_2012[PbK][nan]3[ION]1
_chemical_formula_sum              "K4 H32 Pb2 C56 S4 O26"
_cell_length_a       13.5107
_cell_length_b       23.38
_cell_length_c       5.8727
_cell_angle_alpha    90
_cell_angle_beta     90
_cell_angle_gamma    90

_symmetry_space_group_name_H-M    "P 1"
_symmetry_Int_Tables_number       1

loop_
  _symmetry_equiv_pos_as_xyz
  'x, y, z'

loop_
  _atom_site_type_symbol
  _atom_site_label
  _atom_site_symmetry_multiplicity
  _atom_site_fract_x
  _atom_site_fract_y
  _atom_site_fract_z
  _atom_site_occupancy
  _atom_site_charge
K   K1        1.0  0.25000  0.37312  0.90820  1.0000 0.8738623568
K   K2        1.0  0.25000  0.12688  0.90820  1.0000 0.8738623568
K   K3        1.0  0.75000  0.87312  0.09180  1.0000 0.8738623568
K   K4        1.0  0.75000  0.62688  0.09180  1.0000 0.8738623568
H   H1        1.0  0.50960  0.57210  0.83230  1.0000 0.1183143042
H   H2        1.0  0.37650  0.51230  0.76100  1.0000 0.1280894064
H   H3        1.0  0.35300  0.57650  0.12880  1.0000 0.1183143042
H   H4        1.0  0.48890  0.63470  0.19980  1.0000 0.1280894064
H   H5        1.0  0.99040  0.92790  0.83230  1.0000 0.1183143042
H   H6        1.0  0.12350  0.98770  0.76100  1.0000 0.1280894064
H   H7        1.0  0.14700  0.92350  0.12880  1.0000 0.1183143042
H   H8        1.0  0.01110  0.86530  0.19980  1.0000 0.1280894064
H   H9        1.0  0.49040  0.07210  0.16770  1.0000 0.1183143042
H   H10       1.0  0.62350  0.01230  0.23900  1.0000 0.1280894064
H   H11       1.0  0.64700  0.07650  0.87120  1.0000 0.1183143042
H   H12       1.0  0.51110  0.13470  0.80020  1.0000 0.1280894064
H   H13       1.0  0.00960  0.42790  0.16770  1.0000 0.1183143042
H   H14       1.0  0.87650  0.48770  0.23900  1.0000 0.1280894064
H   H15       1.0  0.85300  0.42350  0.87120  1.0000 0.1183143042
H   H16       1.0  0.98890  0.36530  0.80020  1.0000 0.1280894064
H   H17       1.0  0.49040  0.42790  0.16770  1.0000 0.1183143042
H   H18       1.0  0.62350  0.48770  0.23900  1.0000 0.1280894064
H   H19       1.0  0.64700  0.42350  0.87120  1.0000 0.1183143042
H   H20       1.0  0.51110  0.36530  0.80020  1.0000 0.1280894064
H   H21       1.0  0.00960  0.07210  0.16770  1.0000 0.1183143042
H   H22       1.0  0.87650  0.01230  0.23900  1.0000 0.1280894064
H   H23       1.0  0.85300  0.07650  0.87120  1.0000 0.1183143042
H   H24       1.0  0.98890  0.13470  0.80020  1.0000 0.1280894064
H   H25       1.0  0.50960  0.92790  0.83230  1.0000 0.1183143042
H   H26       1.0  0.37650  0.98770  0.76100  1.0000 0.1280894064
H   H27       1.0  0.35300  0.92350  0.12880  1.0000 0.1183143042
H   H28       1.0  0.48890  0.86530  0.19980  1.0000 0.1280894064
H   H29       1.0  0.99040  0.57210  0.83230  1.0000 0.1183143042
H   H30       1.0  0.12350  0.51230  0.76100  1.0000 0.1280894064
H   H31       1.0  0.14700  0.57650  0.12880  1.0000 0.1183143042
H   H32       1.0  0.01110  0.63470  0.19980  1.0000 0.1280894064
Pb  Pb1       1.0  0.75000  0.75000  0.66987  1.0000 1.0706402071
Pb  Pb2       1.0  0.25000  0.25000  0.33013  1.0000 1.0706402071
C   C1        1.0  0.59350  0.65260  0.57660  1.0000 0.5674201258
C   C2        1.0  0.51060  0.61110  0.52780  1.0000 -0.0019289445
C   C3        1.0  0.47810  0.57340  0.69160  1.0000 -0.099629637
C   C4        1.0  0.39860  0.53720  0.64880  1.0000 -0.099629637
C   C5        1.0  0.35350  0.53850  0.44200  1.0000 -0.0822313159
C   C6        1.0  0.38490  0.57560  0.26910  1.0000 -0.1132755756
C   C7        1.0  0.46500  0.61080  0.31380  1.0000 -0.0896460275
C   C8        1.0  0.90650  0.84740  0.57660  1.0000 0.5674201258
C   C9        1.0  0.98940  0.88890  0.52780  1.0000 -0.0019289445
C   C10       1.0  0.02190  0.92660  0.69160  1.0000 -0.099629637
C   C11       1.0  0.10140  0.96280  0.64880  1.0000 -0.099629637
C   C12       1.0  0.14650  0.96150  0.44200  1.0000 -0.0822313159
C   C13       1.0  0.11510  0.92440  0.26910  1.0000 -0.1132755756
C   C14       1.0  0.03500  0.88920  0.31380  1.0000 -0.0896460275
C   C15       1.0  0.40650  0.15260  0.42340  1.0000 0.5674201258
C   C16       1.0  0.48940  0.11110  0.47220  1.0000 -0.0019289445
C   C17       1.0  0.52190  0.07340  0.30840  1.0000 -0.099629637
C   C18       1.0  0.60140  0.03720  0.35120  1.0000 -0.099629637
C   C19       1.0  0.64650  0.03850  0.55800  1.0000 -0.0822313159
C   C20       1.0  0.61510  0.07560  0.73090  1.0000 -0.1132755756
C   C21       1.0  0.53500  0.11080  0.68620  1.0000 -0.0896460275
C   C22       1.0  0.09350  0.34740  0.42340  1.0000 0.5674201258
C   C23       1.0  0.01060  0.38890  0.47220  1.0000 -0.0019289445
C   C24       1.0  0.97810  0.42660  0.30840  1.0000 -0.099629637
C   C25       1.0  0.89860  0.46280  0.35120  1.0000 -0.099629637
C   C26       1.0  0.85350  0.46150  0.55800  1.0000 -0.0822313159
C   C27       1.0  0.88490  0.42440  0.73090  1.0000 -0.1132755756
C   C28       1.0  0.96500  0.38920  0.68620  1.0000 -0.0896460275
C   C29       1.0  0.40650  0.34740  0.42340  1.0000 0.5674201258
C   C30       1.0  0.48940  0.38890  0.47220  1.0000 -0.0019289445
C   C31       1.0  0.52190  0.42660  0.30840  1.0000 -0.099629637
C   C32       1.0  0.60140  0.46280  0.35120  1.0000 -0.099629637
C   C33       1.0  0.64650  0.46150  0.55800  1.0000 -0.0822313159
C   C34       1.0  0.61510  0.42440  0.73090  1.0000 -0.1132755756
C   C35       1.0  0.53500  0.38920  0.68620  1.0000 -0.0896460275
C   C36       1.0  0.09350  0.15260  0.42340  1.0000 0.5674201258
C   C37       1.0  0.01060  0.11110  0.47220  1.0000 -0.0019289445
C   C38       1.0  0.97810  0.07340  0.30840  1.0000 -0.099629637
C   C39       1.0  0.89860  0.03720  0.35120  1.0000 -0.099629637
C   C40       1.0  0.85350  0.03850  0.55800  1.0000 -0.0822313159
C   C41       1.0  0.88490  0.07560  0.73090  1.0000 -0.1132755756
C   C42       1.0  0.96500  0.11080  0.68620  1.0000 -0.0896460275
C   C43       1.0  0.59350  0.84740  0.57660  1.0000 0.5674201258
C   C44       1.0  0.51060  0.88890  0.52780  1.0000 -0.0019289445
C   C45       1.0  0.47810  0.92660  0.69160  1.0000 -0.099629637
C   C46       1.0  0.39860  0.96280  0.64880  1.0000 -0.099629637
C   C47       1.0  0.35350  0.96150  0.44200  1.0000 -0.0822313159
C   C48       1.0  0.38490  0.92440  0.26910  1.0000 -0.1132755756
C   C49       1.0  0.46500  0.88920  0.31380  1.0000 -0.0896460275
C   C50       1.0  0.90650  0.65260  0.57660  1.0000 0.5674201258
C   C51       1.0  0.98940  0.61110  0.52780  1.0000 -0.0019289445
C   C52       1.0  0.02190  0.57340  0.69160  1.0000 -0.099629637
C   C53       1.0  0.10140  0.53720  0.64880  1.0000 -0.099629637
C   C54       1.0  0.14650  0.53850  0.44200  1.0000 -0.0822313159
C   C55       1.0  0.11510  0.57560  0.26910  1.0000 -0.1132755756
C   C56       1.0  0.03500  0.61080  0.31380  1.0000 -0.0896460275
S   S1        1.0  0.25000  0.49411  0.38730  1.0000 0.9913402953
S   S2        1.0  0.25000  0.00589  0.38730  1.0000 0.9913402953
S   S3        1.0  0.75000  0.99411  0.61270  1.0000 0.9913402953
S   S4        1.0  0.75000  0.50589  0.61270  1.0000 0.9913402953
O   O1        1.0  0.62800  0.67910  0.40900  1.0000 -0.55401422
O   O2        1.0  0.61890  0.65920  0.77480  1.0000 -0.582085251
O   O3        1.0  0.87200  0.82090  0.40900  1.0000 -0.5591491974
O   O4        1.0  0.88110  0.84080  0.77480  1.0000 -0.582085251
O   O5        1.0  0.37200  0.17910  0.59100  1.0000 -0.5591491974
O   O6        1.0  0.38110  0.15920  0.22520  1.0000 -0.582085251
O   O7        1.0  0.12800  0.32090  0.59100  1.0000 -0.55401422
O   O8        1.0  0.11890  0.34080  0.22520  1.0000 -0.582085251
O   O9        1.0  0.37200  0.32090  0.59100  1.0000 -0.5591491974
O   O10       1.0  0.38110  0.34080  0.22520  1.0000 -0.582085251
O   O11       1.0  0.12800  0.17910  0.59100  1.0000 -0.55401422
O   O12       1.0  0.11890  0.15920  0.22520  1.0000 -0.582085251
O   O13       1.0  0.62800  0.82090  0.40900  1.0000 -0.5591491974
O   O14       1.0  0.61890  0.84080  0.77480  1.0000 -0.582085251
O   O15       1.0  0.87200  0.67910  0.40900  1.0000 -0.55401422
O   O16       1.0  0.88110  0.65920  0.77480  1.0000 -0.582085251
O   O17       1.0  0.75000  0.75000  0.09070  1.0000 -0.3172050409
O   O18       1.0  0.25000  0.25000  0.90930  1.0000 -0.31398791
O   O19       1.0  0.25000  0.48070  0.14640  1.0000 -0.5591491974
O   O20       1.0  0.25000  0.44910  0.55370  1.0000 -0.55401422
O   O21       1.0  0.25000  0.01930  0.14640  1.0000 -0.5591491974
O   O22       1.0  0.25000  0.05090  0.55370  1.0000 -0.55401422
O   O23       1.0  0.75000  0.98070  0.85360  1.0000 -0.5591491974
O   O24       1.0  0.75000  0.94910  0.44630  1.0000 -0.55401422
O   O25       1.0  0.75000  0.51930  0.85360  1.0000 -0.5591491974
O   O26       1.0  0.75000  0.55090  0.44630  1.0000 -0.55401422
