# DDEC6 charges by PACMAN v1.1 (https://github.com/mtap-research/PACMAN-charge/)
data_2012[In][dia]3[ION]1
_chemical_formula_sum              "In8 H192 C240 N8 O64"
_cell_length_a       28.3154
_cell_length_b       23.3673
_cell_length_c       22.8737
_cell_angle_alpha    75.5099
_cell_angle_beta     53.0347
_cell_angle_gamma    51.4554

_symmetry_space_group_name_H-M    "P 1"
_symmetry_Int_Tables_number       1

loop_
  _symmetry_equiv_pos_as_xyz
  'x, y, z'

loop_
  _atom_site_type_symbol
  _atom_site_label
  _atom_site_symmetry_multiplicity
  _atom_site_fract_x
  _atom_site_fract_y
  _atom_site_fract_z
  _atom_site_occupancy
  _atom_site_charge
In  In1       1.0  0.48773  0.48773  0.01227  1.0000 1.2992575598
In  In2       1.0  0.23773  0.23773  0.76227  1.0000 1.2992575598
In  In3       1.0  0.01227  0.01227  0.48773  1.0000 1.2992575598
In  In4       1.0  0.76227  0.76227  0.23773  1.0000 1.2992575598
In  In5       1.0  0.62634  0.37366  0.62634  1.0000 1.3052146864
In  In6       1.0  0.87634  0.62366  0.87634  1.0000 1.3052146864
In  In7       1.0  0.37366  0.62634  0.37366  1.0000 1.3052146864
In  In8       1.0  0.62366  0.87634  0.62366  1.0000 1.3052146864
H   H1        1.0  0.66110  0.47070  0.01650  1.0000 0.1288175792
H   H2        1.0  0.47070  0.66110  0.85170  1.0000 0.1288175792
H   H3        1.0  0.23350  0.39830  0.58890  1.0000 0.1288175792
H   H4        1.0  0.39830  0.23350  0.77930  1.0000 0.1288175792
H   H5        1.0  0.77630  0.42850  0.97510  1.0000 0.1107602197
H   H6        1.0  0.42850  0.77630  0.82010  1.0000 0.1107602197
H   H7        1.0  0.27490  0.42990  0.47370  1.0000 0.1107602197
H   H8        1.0  0.42990  0.27490  0.82150  1.0000 0.1107602197
H   H9        1.0  0.87230  0.29770  0.79710  1.0000 0.1107602197
H   H10       1.0  0.29770  0.87230  0.03290  1.0000 0.1107602197
H   H11       1.0  0.45290  0.21710  0.37770  1.0000 0.1107602197
H   H12       1.0  0.21710  0.45290  0.95230  1.0000 0.1107602197
H   H13       1.0  0.75840  0.33560  0.84220  1.0000 0.1189120246
H   H14       1.0  0.33560  0.75840  0.06380  1.0000 0.1189120246
H   H15       1.0  0.40780  0.18620  0.49160  1.0000 0.1189120246
H   H16       1.0  0.18620  0.40780  0.91440  1.0000 0.1189120246
H   H17       1.0  0.08840  0.19540  0.76000  1.0000 0.1189120246
H   H18       1.0  0.19540  0.08840  0.95620  1.0000 0.1189120246
H   H19       1.0  0.49000  0.29380  0.16160  1.0000 0.1189120246
H   H20       1.0  0.29380  0.49000  0.05460  1.0000 0.1189120246
H   H21       1.0  0.97410  0.23270  0.80030  1.0000 0.1107602197
H   H22       1.0  0.23270  0.97410  0.99290  1.0000 0.1107602197
H   H23       1.0  0.44970  0.25710  0.27590  1.0000 0.1107602197
H   H24       1.0  0.25710  0.44970  0.01730  1.0000 0.1107602197
H   H25       1.0  0.87080  0.43000  0.90520  1.0000 0.1189120246
H   H26       1.0  0.43000  0.87080  0.79400  1.0000 0.1189120246
H   H27       1.0  0.34480  0.45600  0.37920  1.0000 0.1189120246
H   H28       1.0  0.45600  0.34480  0.82000  1.0000 0.1189120246
H   H29       1.0  0.98360  0.39220  0.86920  1.0000 0.1189120246
H   H30       1.0  0.39220  0.98360  0.75500  1.0000 0.1189120246
H   H31       1.0  0.38080  0.49500  0.26640  1.0000 0.1189120246
H   H32       1.0  0.49500  0.38080  0.85780  1.0000 0.1189120246
H   H33       1.0  0.01650  0.85170  0.66110  1.0000 0.1288175792
H   H34       1.0  0.85170  0.01650  0.47070  1.0000 0.1288175792
H   H35       1.0  0.58890  0.77930  0.23350  1.0000 0.1288175792
H   H36       1.0  0.77930  0.58890  0.39830  1.0000 0.1288175792
H   H37       1.0  0.97510  0.82010  0.77630  1.0000 0.1107602197
H   H38       1.0  0.82010  0.97510  0.42850  1.0000 0.1107602197
H   H39       1.0  0.47370  0.82150  0.27490  1.0000 0.1107602197
H   H40       1.0  0.82150  0.47370  0.42990  1.0000 0.1107602197
H   H41       1.0  0.79710  0.03290  0.87230  1.0000 0.1107602197
H   H42       1.0  0.03290  0.79710  0.29770  1.0000 0.1107602197
H   H43       1.0  0.37770  0.95230  0.45290  1.0000 0.1107602197
H   H44       1.0  0.95230  0.37770  0.21710  1.0000 0.1107602197
H   H45       1.0  0.84220  0.06380  0.75840  1.0000 0.1189120246
H   H46       1.0  0.06380  0.84220  0.33560  1.0000 0.1189120246
H   H47       1.0  0.49160  0.91440  0.40780  1.0000 0.1189120246
H   H48       1.0  0.91440  0.49160  0.18620  1.0000 0.1189120246
H   H49       1.0  0.76000  0.95620  0.08840  1.0000 0.1189120246
H   H50       1.0  0.95620  0.76000  0.19540  1.0000 0.1189120246
H   H51       1.0  0.16160  0.05460  0.49000  1.0000 0.1189120246
H   H52       1.0  0.05460  0.16160  0.29380  1.0000 0.1189120246
H   H53       1.0  0.80030  0.99290  0.97410  1.0000 0.1107602197
H   H54       1.0  0.99290  0.80030  0.23270  1.0000 0.1107602197
H   H55       1.0  0.27590  0.01730  0.44970  1.0000 0.1107602197
H   H56       1.0  0.01730  0.27590  0.25710  1.0000 0.1107602197
H   H57       1.0  0.90520  0.79400  0.87080  1.0000 0.1189120246
H   H58       1.0  0.79400  0.90520  0.43000  1.0000 0.1189120246
H   H59       1.0  0.37920  0.82000  0.34480  1.0000 0.1189120246
H   H60       1.0  0.82000  0.37920  0.45600  1.0000 0.1189120246
H   H61       1.0  0.86920  0.75500  0.98360  1.0000 0.1189120246
H   H62       1.0  0.75500  0.86920  0.39220  1.0000 0.1189120246
H   H63       1.0  0.26640  0.85780  0.38080  1.0000 0.1189120246
H   H64       1.0  0.85780  0.26640  0.49500  1.0000 0.1189120246
H   H65       1.0  0.76410  0.33810  0.36110  1.0000 0.1288175792
H   H66       1.0  0.36110  0.53670  0.76410  1.0000 0.1288175792
H   H67       1.0  0.91190  0.48590  0.71330  1.0000 0.1288175792
H   H68       1.0  0.71330  0.88890  0.91190  1.0000 0.1288175792
H   H69       1.0  0.80700  0.37280  0.24880  1.0000 0.1189120246
H   H70       1.0  0.24880  0.57140  0.80700  1.0000 0.1189120246
H   H71       1.0  0.87720  0.44300  0.67860  1.0000 0.1189120246
H   H72       1.0  0.67860  0.00120  0.87720  1.0000 0.1189120246
H   H73       1.0  0.68460  0.57700  0.34500  1.0000 0.1107602197
H   H74       1.0  0.34500  0.39340  0.68460  1.0000 0.1107602197
H   H75       1.0  0.67300  0.56540  0.85660  1.0000 0.1107602197
H   H76       1.0  0.85660  0.90500  0.67300  1.0000 0.1107602197
H   H77       1.0  0.65030  0.54130  0.45750  1.0000 0.1189120246
H   H78       1.0  0.45750  0.35090  0.65030  1.0000 0.1189120246
H   H79       1.0  0.70870  0.59970  0.89910  1.0000 0.1189120246
H   H80       1.0  0.89910  0.79250  0.70870  1.0000 0.1189120246
H   H81       1.0  0.86160  0.44860  0.03680  1.0000 0.1107602197
H   H82       1.0  0.03680  0.65300  0.86160  1.0000 0.1107602197
H   H83       1.0  0.80140  0.38840  0.59700  1.0000 0.1107602197
H   H84       1.0  0.59700  0.21320  0.80140  1.0000 0.1107602197
H   H85       1.0  0.82170  0.41190  0.15030  1.0000 0.1047574115
H   H86       1.0  0.15030  0.61610  0.82170  1.0000 0.1047574115
H   H87       1.0  0.83810  0.42830  0.63390  1.0000 0.1047574115
H   H88       1.0  0.63390  0.09970  0.83810  1.0000 0.1047574115
H   H89       1.0  0.71990  0.60910  0.25070  1.0000 0.1107602197
H   H90       1.0  0.25070  0.42030  0.71990  1.0000 0.1107602197
H   H91       1.0  0.64090  0.53010  0.82970  1.0000 0.1107602197
H   H92       1.0  0.82970  0.99930  0.64090  1.0000 0.1107602197
H   H93       1.0  0.75250  0.65070  0.13810  1.0000 0.1288175792
H   H94       1.0  0.13810  0.45870  0.75250  1.0000 0.1288175792
H   H95       1.0  0.59930  0.49750  0.79130  1.0000 0.1288175792
H   H96       1.0  0.79130  0.11190  0.59930  1.0000 0.1288175792
H   H97       1.0  0.33810  0.76410  0.53670  1.0000 0.1288175792
H   H98       1.0  0.53670  0.36110  0.33810  1.0000 0.1288175792
H   H99       1.0  0.48590  0.91190  0.88890  1.0000 0.1288175792
H   H100      1.0  0.88890  0.71330  0.48590  1.0000 0.1288175792
H   H101      1.0  0.37280  0.80700  0.57140  1.0000 0.1189120246
H   H102      1.0  0.57140  0.24880  0.37280  1.0000 0.1189120246
H   H103      1.0  0.44300  0.87720  0.00120  1.0000 0.1189120246
H   H104      1.0  0.00120  0.67860  0.44300  1.0000 0.1189120246
H   H105      1.0  0.57700  0.68460  0.39340  1.0000 0.1107602197
H   H106      1.0  0.39340  0.34500  0.57700  1.0000 0.1107602197
H   H107      1.0  0.56540  0.67300  0.90500  1.0000 0.1107602197
H   H108      1.0  0.90500  0.85660  0.56540  1.0000 0.1107602197
H   H109      1.0  0.54130  0.65030  0.35090  1.0000 0.1189120246
H   H110      1.0  0.35090  0.45750  0.54130  1.0000 0.1189120246
H   H111      1.0  0.59970  0.70870  0.79250  1.0000 0.1189120246
H   H112      1.0  0.79250  0.89910  0.59970  1.0000 0.1189120246
H   H113      1.0  0.44860  0.86160  0.65300  1.0000 0.1107602197
H   H114      1.0  0.65300  0.03680  0.44860  1.0000 0.1107602197
H   H115      1.0  0.38840  0.80140  0.21320  1.0000 0.1107602197
H   H116      1.0  0.21320  0.59700  0.38840  1.0000 0.1107602197
H   H117      1.0  0.41190  0.82170  0.61610  1.0000 0.1047574115
H   H118      1.0  0.61610  0.15030  0.41190  1.0000 0.1047574115
H   H119      1.0  0.42830  0.83810  0.09970  1.0000 0.1047574115
H   H120      1.0  0.09970  0.63390  0.42830  1.0000 0.1047574115
H   H121      1.0  0.60910  0.71990  0.42030  1.0000 0.1107602197
H   H122      1.0  0.42030  0.25070  0.60910  1.0000 0.1107602197
H   H123      1.0  0.53010  0.64090  0.99930  1.0000 0.1107602197
H   H124      1.0  0.99930  0.82970  0.53010  1.0000 0.1107602197
H   H125      1.0  0.65070  0.75250  0.45870  1.0000 0.1288175792
H   H126      1.0  0.45870  0.13810  0.65070  1.0000 0.1288175792
H   H127      1.0  0.49750  0.59930  0.11190  1.0000 0.1288175792
H   H128      1.0  0.11190  0.79130  0.49750  1.0000 0.1288175792
H   H129      1.0  0.57820  0.01460  0.35020  1.0000 0.2582635116
H   H130      1.0  0.64100  0.93560  0.31900  1.0000 0.2705034819
H   H131      1.0  0.56380  0.94180  0.43980  1.0000 0.1288175792
H   H132      1.0  0.63280  0.92280  0.42840  1.0000 0.1485851986
H   H133      1.0  0.55880  0.00480  0.46140  1.0000 0.1107602197
H   H134      1.0  0.68310  0.00390  0.27610  1.0000 0.1373526436
H   H135      1.0  0.64390  0.03290  0.35890  1.0000 0.1107602197
H   H136      1.0  0.71170  0.94850  0.32170  1.0000 0.1288175792
H   H137      1.0  0.01460  0.57820  0.05700  1.0000 0.2582635116
H   H138      1.0  0.93560  0.64100  0.10440  1.0000 0.2705034819
H   H139      1.0  0.94180  0.56380  0.05460  1.0000 0.1288175792
H   H140      1.0  0.92280  0.63280  0.01600  1.0000 0.1485851986
H   H141      1.0  0.00480  0.55880  0.97500  1.0000 0.1107602197
H   H142      1.0  0.00390  0.68310  0.03690  1.0000 0.1373526436
H   H143      1.0  0.03290  0.64390  0.96430  1.0000 0.1107602197
H   H144      1.0  0.94850  0.71170  0.01810  1.0000 0.1288175792
H   H145      1.0  0.35020  0.05700  0.57820  1.0000 0.2582635116
H   H146      1.0  0.31900  0.10440  0.64100  1.0000 0.2705034819
H   H147      1.0  0.43980  0.05460  0.56380  1.0000 0.1288175792
H   H148      1.0  0.42840  0.01600  0.63280  1.0000 0.1485851986
H   H149      1.0  0.46140  0.97500  0.55880  1.0000 0.1107602197
H   H150      1.0  0.27610  0.03690  0.68310  1.0000 0.1373526436
H   H151      1.0  0.35890  0.96430  0.64390  1.0000 0.1107602197
H   H152      1.0  0.32170  0.01810  0.71170  1.0000 0.1288175792
H   H153      1.0  0.05700  0.35020  0.01460  1.0000 0.2582635116
H   H154      1.0  0.10440  0.31900  0.93560  1.0000 0.2705034819
H   H155      1.0  0.05460  0.43980  0.94180  1.0000 0.1288175792
H   H156      1.0  0.01600  0.42840  0.92280  1.0000 0.1485851986
H   H157      1.0  0.97500  0.46140  0.00480  1.0000 0.1107602197
H   H158      1.0  0.03690  0.27610  0.00390  1.0000 0.1373526436
H   H159      1.0  0.96430  0.35890  0.03290  1.0000 0.1107602197
H   H160      1.0  0.01810  0.32170  0.94850  1.0000 0.1288175792
H   H161      1.0  0.67180  0.23540  0.89980  1.0000 0.2582635116
H   H162      1.0  0.60900  0.31440  0.93100  1.0000 0.2705034819
H   H163      1.0  0.68620  0.30820  0.81020  1.0000 0.1288175792
H   H164      1.0  0.61720  0.32720  0.82160  1.0000 0.1485851986
H   H165      1.0  0.69120  0.24520  0.78860  1.0000 0.1107602197
H   H166      1.0  0.56690  0.24610  0.97390  1.0000 0.1373526436
H   H167      1.0  0.60610  0.21710  0.89110  1.0000 0.1107602197
H   H168      1.0  0.53830  0.30150  0.92830  1.0000 0.1288175792
H   H169      1.0  0.23540  0.67180  0.19300  1.0000 0.2582635116
H   H170      1.0  0.31440  0.60900  0.14560  1.0000 0.2705034819
H   H171      1.0  0.30820  0.68620  0.19540  1.0000 0.1288175792
H   H172      1.0  0.32720  0.61720  0.23400  1.0000 0.1485851986
H   H173      1.0  0.24520  0.69120  0.27500  1.0000 0.1107602197
H   H174      1.0  0.24610  0.56690  0.21310  1.0000 0.1373526436
H   H175      1.0  0.21710  0.60610  0.28570  1.0000 0.1107602197
H   H176      1.0  0.30150  0.53830  0.23190  1.0000 0.1288175792
H   H177      1.0  0.89980  0.19300  0.67180  1.0000 0.2582635116
H   H178      1.0  0.93100  0.14560  0.60900  1.0000 0.2705034819
H   H179      1.0  0.81020  0.19540  0.68620  1.0000 0.1288175792
H   H180      1.0  0.82160  0.23400  0.61720  1.0000 0.1485851986
H   H181      1.0  0.78860  0.27500  0.69120  1.0000 0.1107602197
H   H182      1.0  0.97390  0.21310  0.56690  1.0000 0.1373526436
H   H183      1.0  0.89110  0.28570  0.60610  1.0000 0.1107602197
H   H184      1.0  0.92830  0.23190  0.53830  1.0000 0.1288175792
H   H185      1.0  0.19300  0.89980  0.23540  1.0000 0.2582635116
H   H186      1.0  0.14560  0.93100  0.31440  1.0000 0.2705034819
H   H187      1.0  0.19540  0.81020  0.30820  1.0000 0.1288175792
H   H188      1.0  0.23400  0.82160  0.32720  1.0000 0.1485851986
H   H189      1.0  0.27500  0.78860  0.24520  1.0000 0.1107602197
H   H190      1.0  0.21310  0.97390  0.24610  1.0000 0.1373526436
H   H191      1.0  0.28570  0.89110  0.21710  1.0000 0.1107602197
H   H192      1.0  0.23190  0.92830  0.30150  1.0000 0.1288175792
C   C1        1.0  0.70375  0.43497  0.97263  1.0000 -0.0988691728
C   C2        1.0  0.43497  0.70375  0.88865  1.0000 -0.0988691728
C   C3        1.0  0.27737  0.36135  0.54625  1.0000 -0.0988691728
C   C4        1.0  0.36135  0.27737  0.81503  1.0000 -0.0988691728
C   C5        1.0  0.77300  0.40982  0.94738  1.0000 -0.1420862761
C   C6        1.0  0.40982  0.77300  0.86980  1.0000 -0.1420862761
C   C7        1.0  0.30262  0.38020  0.47700  1.0000 -0.1420862761
C   C8        1.0  0.38020  0.30262  0.84018  1.0000 -0.1420862761
C   C9        1.0  0.83775  0.35773  0.88207  1.0000 0.0762126097
C   C10       1.0  0.35773  0.83775  0.92245  1.0000 0.0762126097
C   C11       1.0  0.36793  0.32755  0.41225  1.0000 0.0762126097
C   C12       1.0  0.32755  0.36793  0.89227  1.0000 0.0762126097
C   C13       1.0  0.83040  0.33164  0.84216  1.0000 -0.1526773478
C   C14       1.0  0.33164  0.83040  0.99580  1.0000 -0.1526773478
C   C15       1.0  0.40784  0.25420  0.41960  1.0000 -0.1526773478
C   C16       1.0  0.25420  0.40784  0.91836  1.0000 -0.1526773478
C   C17       1.0  0.76169  0.35561  0.86899  1.0000 -0.1213878635
C   C18       1.0  0.35561  0.76169  0.01371  1.0000 -0.1213878635
C   C19       1.0  0.38101  0.23629  0.48831  1.0000 -0.1213878635
C   C20       1.0  0.23629  0.38101  0.89439  1.0000 -0.1213878635
C   C21       1.0  0.69750  0.40728  0.93292  1.0000 -0.0190362125
C   C22       1.0  0.40728  0.69750  0.96230  1.0000 -0.0190362125
C   C23       1.0  0.31708  0.28770  0.55250  1.0000 -0.0190362125
C   C24       1.0  0.28770  0.31708  0.84272  1.0000 -0.0190362125
C   C25       1.0  0.04474  0.24212  0.78968  1.0000 -0.0988691728
C   C26       1.0  0.24212  0.04474  0.92346  1.0000 -0.0988691728
C   C27       1.0  0.46032  0.32654  0.20526  1.0000 -0.0988691728
C   C28       1.0  0.32654  0.46032  0.00788  1.0000 -0.0988691728
C   C29       1.0  0.97577  0.26531  0.81409  1.0000 -0.1526773478
C   C30       1.0  0.26531  0.97577  0.94483  1.0000 -0.1526773478
C   C31       1.0  0.43591  0.30517  0.27423  1.0000 -0.1526773478
C   C32       1.0  0.30517  0.43591  0.98469  1.0000 -0.1526773478
C   C33       1.0  0.90985  0.33423  0.85777  1.0000 0.0653370079
C   C34       1.0  0.33423  0.90985  0.89815  1.0000 0.0653370079
C   C35       1.0  0.39223  0.35185  0.34015  1.0000 0.0653370079
C   C36       1.0  0.35185  0.39223  0.91577  1.0000 0.0653370079
C   C37       1.0  0.91399  0.38241  0.87699  1.0000 -0.1420862761
C   C38       1.0  0.38241  0.91399  0.82661  1.0000 -0.1420862761
C   C39       1.0  0.37301  0.42339  0.33601  1.0000 -0.1420862761
C   C40       1.0  0.42339  0.37301  0.86759  1.0000 -0.1420862761
C   C41       1.0  0.98203  0.36009  0.85451  1.0000 -0.0909938919
C   C42       1.0  0.36009  0.98203  0.80337  1.0000 -0.0909938919
C   C43       1.0  0.39549  0.44663  0.26797  1.0000 -0.0909938919
C   C44       1.0  0.44663  0.39549  0.88991  1.0000 -0.0909938919
C   C45       1.0  0.04577  0.29203  0.81157  1.0000 -0.0326554812
C   C46       1.0  0.29203  0.04577  0.85063  1.0000 -0.0326554812
C   C47       1.0  0.43843  0.39937  0.20423  1.0000 -0.0326554812
C   C48       1.0  0.39937  0.43843  0.95797  1.0000 -0.0326554812
C   C49       1.0  0.62302  0.43390  0.95890  1.0000 0.5256458205
C   C50       1.0  0.43390  0.62302  0.98418  1.0000 0.5256458205
C   C51       1.0  0.29110  0.26582  0.62698  1.0000 0.5256458205
C   C52       1.0  0.26582  0.29110  0.81610  1.0000 0.5256458205
C   C53       1.0  0.11760  0.26716  0.78984  1.0000 0.5204784504
C   C54       1.0  0.26716  0.11760  0.82540  1.0000 0.5204784504
C   C55       1.0  0.46016  0.42460  0.13240  1.0000 0.5204784504
C   C56       1.0  0.42460  0.46016  0.98284  1.0000 0.5204784504
C   C57       1.0  0.97263  0.88865  0.70375  1.0000 -0.0988691728
C   C58       1.0  0.88865  0.97263  0.43497  1.0000 -0.0988691728
C   C59       1.0  0.54625  0.81503  0.27737  1.0000 -0.0988691728
C   C60       1.0  0.81503  0.54625  0.36135  1.0000 -0.0988691728
C   C61       1.0  0.94738  0.86980  0.77300  1.0000 -0.1420862761
C   C62       1.0  0.86980  0.94738  0.40982  1.0000 -0.1420862761
C   C63       1.0  0.47700  0.84018  0.30262  1.0000 -0.1420862761
C   C64       1.0  0.84018  0.47700  0.38020  1.0000 -0.1420862761
C   C65       1.0  0.88207  0.92245  0.83775  1.0000 0.0762126097
C   C66       1.0  0.92245  0.88207  0.35773  1.0000 0.0762126097
C   C67       1.0  0.41225  0.89227  0.36793  1.0000 0.0762126097
C   C68       1.0  0.89227  0.41225  0.32755  1.0000 0.0762126097
C   C69       1.0  0.84216  0.99580  0.83040  1.0000 -0.1526773478
C   C70       1.0  0.99580  0.84216  0.33164  1.0000 -0.1526773478
C   C71       1.0  0.41960  0.91836  0.40784  1.0000 -0.1526773478
C   C72       1.0  0.91836  0.41960  0.25420  1.0000 -0.1526773478
C   C73       1.0  0.86899  0.01371  0.76169  1.0000 -0.1213878635
C   C74       1.0  0.01371  0.86899  0.35561  1.0000 -0.1213878635
C   C75       1.0  0.48831  0.89439  0.38101  1.0000 -0.1213878635
C   C76       1.0  0.89439  0.48831  0.23629  1.0000 -0.1213878635
C   C77       1.0  0.93292  0.96230  0.69750  1.0000 -0.0190362125
C   C78       1.0  0.96230  0.93292  0.40728  1.0000 -0.0190362125
C   C79       1.0  0.55250  0.84272  0.31708  1.0000 -0.0190362125
C   C80       1.0  0.84272  0.55250  0.28770  1.0000 -0.0190362125
C   C81       1.0  0.78968  0.92346  0.04474  1.0000 -0.0988691728
C   C82       1.0  0.92346  0.78968  0.24212  1.0000 -0.0988691728
C   C83       1.0  0.20526  0.00788  0.46032  1.0000 -0.0988691728
C   C84       1.0  0.00788  0.20526  0.32654  1.0000 -0.0988691728
C   C85       1.0  0.81409  0.94483  0.97577  1.0000 -0.1526773478
C   C86       1.0  0.94483  0.81409  0.26531  1.0000 -0.1526773478
C   C87       1.0  0.27423  0.98469  0.43591  1.0000 -0.1526773478
C   C88       1.0  0.98469  0.27423  0.30517  1.0000 -0.1526773478
C   C89       1.0  0.85777  0.89815  0.90985  1.0000 0.0653370079
C   C90       1.0  0.89815  0.85777  0.33423  1.0000 0.0653370079
C   C91       1.0  0.34015  0.91577  0.39223  1.0000 0.0653370079
C   C92       1.0  0.91577  0.34015  0.35185  1.0000 0.0653370079
C   C93       1.0  0.87699  0.82661  0.91399  1.0000 -0.1420862761
C   C94       1.0  0.82661  0.87699  0.38241  1.0000 -0.1420862761
C   C95       1.0  0.33601  0.86759  0.37301  1.0000 -0.1420862761
C   C96       1.0  0.86759  0.33601  0.42339  1.0000 -0.1420862761
C   C97       1.0  0.85451  0.80337  0.98203  1.0000 -0.0909938919
C   C98       1.0  0.80337  0.85451  0.36009  1.0000 -0.0909938919
C   C99       1.0  0.26797  0.88991  0.39549  1.0000 -0.0909938919
C   C100      1.0  0.88991  0.26797  0.44663  1.0000 -0.0909938919
C   C101      1.0  0.81157  0.85063  0.04577  1.0000 -0.0326554812
C   C102      1.0  0.85063  0.81157  0.29203  1.0000 -0.0326554812
C   C103      1.0  0.20423  0.95797  0.43843  1.0000 -0.0326554812
C   C104      1.0  0.95797  0.20423  0.39937  1.0000 -0.0326554812
C   C105      1.0  0.95890  0.98418  0.62302  1.0000 0.5256458205
C   C106      1.0  0.98418  0.95890  0.43390  1.0000 0.5256458205
C   C107      1.0  0.62698  0.81610  0.29110  1.0000 0.5256458205
C   C108      1.0  0.81610  0.62698  0.26582  1.0000 0.5256458205
C   C109      1.0  0.78984  0.82540  0.11760  1.0000 0.5204784504
C   C110      1.0  0.82540  0.78984  0.26716  1.0000 0.5204784504
C   C111      1.0  0.13240  0.98284  0.46016  1.0000 0.5204784504
C   C112      1.0  0.98284  0.13240  0.42460  1.0000 0.5204784504
C   C113      1.0  0.74632  0.38746  0.35914  1.0000 -0.0909938919
C   C114      1.0  0.35914  0.50708  0.74632  1.0000 -0.0909938919
C   C115      1.0  0.86254  0.50368  0.74292  1.0000 -0.0909938919
C   C116      1.0  0.74292  0.89086  0.86254  1.0000 -0.0909938919
C   C117      1.0  0.77035  0.40975  0.29165  1.0000 -0.1851902306
C   C118      1.0  0.29165  0.52825  0.77035  1.0000 -0.1851902306
C   C119      1.0  0.84025  0.47965  0.72175  1.0000 -0.1851902306
C   C120      1.0  0.72175  0.95835  0.84025  1.0000 -0.1851902306
C   C121      1.0  0.74526  0.48092  0.28208  1.0000 0.0762126097
C   C122      1.0  0.28208  0.49174  0.74526  1.0000 0.0762126097
C   C123      1.0  0.76908  0.50474  0.75826  1.0000 0.0762126097
C   C124      1.0  0.75826  0.96792  0.76908  1.0000 0.0762126097
C   C125      1.0  0.70075  0.52809  0.34691  1.0000 -0.1670173425
C   C126      1.0  0.34691  0.42425  0.70075  1.0000 -0.1670173425
C   C127      1.0  0.72191  0.54925  0.82575  1.0000 -0.1670173425
C   C128      1.0  0.82575  0.90309  0.72191  1.0000 -0.1670173425
C   C129      1.0  0.67835  0.50709  0.41551  1.0000 -0.0909938919
C   C130      1.0  0.41551  0.39905  0.67835  1.0000 -0.0909938919
C   C131      1.0  0.74291  0.57165  0.85095  1.0000 -0.0909938919
C   C132      1.0  0.85095  0.83449  0.74291  1.0000 -0.0909938919
C   C133      1.0  0.69588  0.43884  0.42316  1.0000 -0.0190362125
C   C134      1.0  0.42316  0.44212  0.69588  1.0000 -0.0190362125
C   C135      1.0  0.81116  0.55412  0.80788  1.0000 -0.0190362125
C   C136      1.0  0.80788  0.82684  0.81116  1.0000 -0.0190362125
C   C137      1.0  0.83196  0.48210  0.08010  1.0000 -0.1213878635
C   C138      1.0  0.08010  0.60584  0.83196  1.0000 -0.1213878635
C   C139      1.0  0.76790  0.41804  0.64416  1.0000 -0.1213878635
C   C140      1.0  0.64416  0.16990  0.76790  1.0000 -0.1213878635
C   C141      1.0  0.80857  0.45967  0.14833  1.0000 -0.1602159533
C   C142      1.0  0.14833  0.58343  0.80857  1.0000 -0.1602159533
C   C143      1.0  0.79033  0.44143  0.66657  1.0000 -0.1602159533
C   C144      1.0  0.66657  0.10167  0.79033  1.0000 -0.1602159533
C   C145      1.0  0.76658  0.50708  0.21252  1.0000 0.0642268193
C   C146      1.0  0.21252  0.51382  0.76658  1.0000 0.0642268193
C   C147      1.0  0.74292  0.48342  0.73618  1.0000 0.0642268193
C   C148      1.0  0.73618  0.03748  0.74292  1.0000 0.0642268193
C   C149      1.0  0.74760  0.57670  0.20750  1.0000 -0.1420862761
C   C150      1.0  0.20750  0.46820  0.74760  1.0000 -0.1420862761
C   C151      1.0  0.67330  0.50240  0.78180  1.0000 -0.1420862761
C   C152      1.0  0.78180  0.04250  0.67330  1.0000 -0.1420862761
C   C153      1.0  0.76837  0.60189  0.13931  1.0000 -0.0909938919
C   C154      1.0  0.13931  0.49043  0.76837  1.0000 -0.0909938919
C   C155      1.0  0.64811  0.48163  0.75957  1.0000 -0.0909938919
C   C156      1.0  0.75957  0.11069  0.64811  1.0000 -0.0909938919
C   C157      1.0  0.81180  0.55368  0.07552  1.0000 -0.014194888
C   C158      1.0  0.07552  0.55900  0.81180  1.0000 -0.014194888
C   C159      1.0  0.69632  0.43820  0.69100  1.0000 -0.014194888
C   C160      1.0  0.69100  0.17448  0.69632  1.0000 -0.014194888
C   C161      1.0  0.66852  0.41706  0.49714  1.0000 0.5204784504
C   C162      1.0  0.49714  0.41728  0.66852  1.0000 0.5204784504
C   C163      1.0  0.83294  0.58148  0.83272  1.0000 0.5204784504
C   C164      1.0  0.83272  0.75286  0.83294  1.0000 0.5204784504
C   C165      1.0  0.83619  0.57845  0.00275  1.0000 0.5204784504
C   C166      1.0  0.00275  0.58261  0.83619  1.0000 0.5204784504
C   C167      1.0  0.67155  0.41381  0.66739  1.0000 0.5204784504
C   C168      1.0  0.66739  0.24725  0.67155  1.0000 0.5204784504
C   C169      1.0  0.38746  0.74632  0.50708  1.0000 -0.0909938919
C   C170      1.0  0.50708  0.35914  0.38746  1.0000 -0.0909938919
C   C171      1.0  0.50368  0.86254  0.89086  1.0000 -0.0909938919
C   C172      1.0  0.89086  0.74292  0.50368  1.0000 -0.0909938919
C   C173      1.0  0.40975  0.77035  0.52825  1.0000 -0.1851902306
C   C174      1.0  0.52825  0.29165  0.40975  1.0000 -0.1851902306
C   C175      1.0  0.47965  0.84025  0.95835  1.0000 -0.1851902306
C   C176      1.0  0.95835  0.72175  0.47965  1.0000 -0.1851902306
C   C177      1.0  0.48092  0.74526  0.49174  1.0000 0.0762126097
C   C178      1.0  0.49174  0.28208  0.48092  1.0000 0.0762126097
C   C179      1.0  0.50474  0.76908  0.96792  1.0000 0.0762126097
C   C180      1.0  0.96792  0.75826  0.50474  1.0000 0.0762126097
C   C181      1.0  0.52809  0.70075  0.42425  1.0000 -0.1670173425
C   C182      1.0  0.42425  0.34691  0.52809  1.0000 -0.1670173425
C   C183      1.0  0.54925  0.72191  0.90309  1.0000 -0.1670173425
C   C184      1.0  0.90309  0.82575  0.54925  1.0000 -0.1670173425
C   C185      1.0  0.50709  0.67835  0.39905  1.0000 -0.0909938919
C   C186      1.0  0.39905  0.41551  0.50709  1.0000 -0.0909938919
C   C187      1.0  0.57165  0.74291  0.83449  1.0000 -0.0909938919
C   C188      1.0  0.83449  0.85095  0.57165  1.0000 -0.0909938919
C   C189      1.0  0.43884  0.69588  0.44212  1.0000 -0.0190362125
C   C190      1.0  0.44212  0.42316  0.43884  1.0000 -0.0190362125
C   C191      1.0  0.55412  0.81116  0.82684  1.0000 -0.0190362125
C   C192      1.0  0.82684  0.80788  0.55412  1.0000 -0.0190362125
C   C193      1.0  0.48210  0.83196  0.60584  1.0000 -0.1213878635
C   C194      1.0  0.60584  0.08010  0.48210  1.0000 -0.1213878635
C   C195      1.0  0.41804  0.76790  0.16990  1.0000 -0.1213878635
C   C196      1.0  0.16990  0.64416  0.41804  1.0000 -0.1213878635
C   C197      1.0  0.45967  0.80857  0.58343  1.0000 -0.1602159533
C   C198      1.0  0.58343  0.14833  0.45967  1.0000 -0.1602159533
C   C199      1.0  0.44143  0.79033  0.10167  1.0000 -0.1602159533
C   C200      1.0  0.10167  0.66657  0.44143  1.0000 -0.1602159533
C   C201      1.0  0.50708  0.76658  0.51382  1.0000 0.0642268193
C   C202      1.0  0.51382  0.21252  0.50708  1.0000 0.0642268193
C   C203      1.0  0.48342  0.74292  0.03748  1.0000 0.0642268193
C   C204      1.0  0.03748  0.73618  0.48342  1.0000 0.0642268193
C   C205      1.0  0.57670  0.74760  0.46820  1.0000 -0.1420862761
C   C206      1.0  0.46820  0.20750  0.57670  1.0000 -0.1420862761
C   C207      1.0  0.50240  0.67330  0.04250  1.0000 -0.1420862761
C   C208      1.0  0.04250  0.78180  0.50240  1.0000 -0.1420862761
C   C209      1.0  0.60189  0.76837  0.49043  1.0000 -0.0909938919
C   C210      1.0  0.49043  0.13931  0.60189  1.0000 -0.0909938919
C   C211      1.0  0.48163  0.64811  0.11069  1.0000 -0.0909938919
C   C212      1.0  0.11069  0.75957  0.48163  1.0000 -0.0909938919
C   C213      1.0  0.55368  0.81180  0.55900  1.0000 -0.014194888
C   C214      1.0  0.55900  0.07552  0.55368  1.0000 -0.014194888
C   C215      1.0  0.43820  0.69632  0.17448  1.0000 -0.014194888
C   C216      1.0  0.17448  0.69100  0.43820  1.0000 -0.014194888
C   C217      1.0  0.41706  0.66852  0.41728  1.0000 0.5204784504
C   C218      1.0  0.41728  0.49714  0.41706  1.0000 0.5204784504
C   C219      1.0  0.58148  0.83294  0.75286  1.0000 0.5204784504
C   C220      1.0  0.75286  0.83272  0.58148  1.0000 0.5204784504
C   C221      1.0  0.57845  0.83619  0.58261  1.0000 0.5204784504
C   C222      1.0  0.58261  0.00275  0.57845  1.0000 0.5204784504
C   C223      1.0  0.41381  0.67155  0.24725  1.0000 0.5204784504
C   C224      1.0  0.24725  0.66739  0.41381  1.0000 0.5204784504
C   C225      1.0  0.59090  0.95990  0.42670  1.0000 -0.3224130142
C   C226      1.0  0.66840  0.99160  0.32460  1.0000 -0.2948424387
C   C227      1.0  0.95990  0.59090  0.02250  1.0000 -0.3224130142
C   C228      1.0  0.99160  0.66840  0.01540  1.0000 -0.2948424387
C   C229      1.0  0.42670  0.02250  0.59090  1.0000 -0.3224130142
C   C230      1.0  0.32460  0.01540  0.66840  1.0000 -0.2948424387
C   C231      1.0  0.02250  0.42670  0.95990  1.0000 -0.3224130142
C   C232      1.0  0.01540  0.32460  0.99160  1.0000 -0.2948424387
C   C233      1.0  0.65910  0.29010  0.82330  1.0000 -0.3224130142
C   C234      1.0  0.58160  0.25840  0.92540  1.0000 -0.2948424387
C   C235      1.0  0.29010  0.65910  0.22750  1.0000 -0.3224130142
C   C236      1.0  0.25840  0.58160  0.23460  1.0000 -0.2948424387
C   C237      1.0  0.82330  0.22750  0.65910  1.0000 -0.3224130142
C   C238      1.0  0.92540  0.23460  0.58160  1.0000 -0.2948424387
C   C239      1.0  0.22750  0.82330  0.29010  1.0000 -0.3224130142
C   C240      1.0  0.23460  0.92540  0.25840  1.0000 -0.2948424387
N   N1        1.0  0.61750  0.97530  0.35030  1.0000 -0.0838490892
N   N2        1.0  0.97530  0.61750  0.05690  1.0000 -0.0838490892
N   N3        1.0  0.35030  0.05690  0.61750  1.0000 -0.0838490892
N   N4        1.0  0.05690  0.35030  0.97530  1.0000 -0.0838490892
N   N5        1.0  0.63250  0.27470  0.89970  1.0000 -0.0838490892
N   N6        1.0  0.27470  0.63250  0.19310  1.0000 -0.0838490892
N   N7        1.0  0.89970  0.19310  0.63250  1.0000 -0.0838490892
N   N8        1.0  0.19310  0.89970  0.27470  1.0000 -0.0838490892
O   O1        1.0  0.56588  0.48804  0.01390  1.0000 -0.5198671091
O   O2        1.0  0.48804  0.56588  0.93218  1.0000 -0.5198671091
O   O3        1.0  0.23610  0.31782  0.68412  1.0000 -0.5198671091
O   O4        1.0  0.31782  0.23610  0.76196  1.0000 -0.5198671091
O   O5        1.0  0.61706  0.40466  0.92836  1.0000 -0.5198671091
O   O6        1.0  0.40466  0.61706  0.04992  1.0000 -0.5198671091
O   O7        1.0  0.32164  0.20008  0.63294  1.0000 -0.5198671091
O   O8        1.0  0.20008  0.32164  0.84534  1.0000 -0.5198671091
O   O9        1.0  0.17709  0.21093  0.74485  1.0000 -0.5070464331
O   O10       1.0  0.21093  0.17709  0.86713  1.0000 -0.5070464331
O   O11       1.0  0.50515  0.38287  0.07291  1.0000 -0.5070464331
O   O12       1.0  0.38287  0.50515  0.03907  1.0000 -0.5070464331
O   O13       1.0  0.11699  0.30789  0.81947  1.0000 -0.5308208633
O   O14       1.0  0.30789  0.11699  0.75565  1.0000 -0.5308208633
O   O15       1.0  0.43053  0.49435  0.13301  1.0000 -0.5308208633
O   O16       1.0  0.49435  0.43053  0.94211  1.0000 -0.5308208633
O   O17       1.0  0.01390  0.93218  0.56588  1.0000 -0.5198671091
O   O18       1.0  0.93218  0.01390  0.48804  1.0000 -0.5198671091
O   O19       1.0  0.68412  0.76196  0.23610  1.0000 -0.5198671091
O   O20       1.0  0.76196  0.68412  0.31782  1.0000 -0.5198671091
O   O21       1.0  0.92836  0.04992  0.61706  1.0000 -0.5198671091
O   O22       1.0  0.04992  0.92836  0.40466  1.0000 -0.5198671091
O   O23       1.0  0.63294  0.84534  0.32164  1.0000 -0.5198671091
O   O24       1.0  0.84534  0.63294  0.20008  1.0000 -0.5198671091
O   O25       1.0  0.74485  0.86713  0.17709  1.0000 -0.5070464331
O   O26       1.0  0.86713  0.74485  0.21093  1.0000 -0.5070464331
O   O27       1.0  0.07291  0.03907  0.50515  1.0000 -0.5070464331
O   O28       1.0  0.03907  0.07291  0.38287  1.0000 -0.5070464331
O   O29       1.0  0.81947  0.75565  0.11699  1.0000 -0.5308208633
O   O30       1.0  0.75565  0.81947  0.30789  1.0000 -0.5308208633
O   O31       1.0  0.13301  0.94211  0.43053  1.0000 -0.5308208633
O   O32       1.0  0.94211  0.13301  0.49435  1.0000 -0.5308208633
O   O33       1.0  0.69068  0.35302  0.50190  1.0000 -0.4486782196
O   O34       1.0  0.50190  0.45440  0.69068  1.0000 -0.4486782196
O   O35       1.0  0.89698  0.55932  0.79560  1.0000 -0.4486782196
O   O36       1.0  0.79560  0.74810  0.89698  1.0000 -0.4486782196
O   O37       1.0  0.62347  0.46315  0.55313  1.0000 -0.4600955415
O   O38       1.0  0.55313  0.36025  0.62347  1.0000 -0.4600955415
O   O39       1.0  0.78685  0.62653  0.88975  1.0000 -0.4600955415
O   O40       1.0  0.88975  0.69687  0.78685  1.0000 -0.4600955415
O   O41       1.0  0.88825  0.52921  0.94429  1.0000 -0.5397259164
O   O42       1.0  0.94429  0.63825  0.88825  1.0000 -0.5397259164
O   O43       1.0  0.72079  0.36175  0.61175  1.0000 -0.5397259164
O   O44       1.0  0.61175  0.30571  0.72079  1.0000 -0.5397259164
O   O45       1.0  0.80700  0.64456  0.00094  1.0000 -0.4737551715
O   O46       1.0  0.00094  0.54750  0.80700  1.0000 -0.4737551715
O   O47       1.0  0.60544  0.44300  0.70250  1.0000 -0.4737551715
O   O48       1.0  0.70250  0.24906  0.60544  1.0000 -0.4737551715
O   O49       1.0  0.35302  0.69068  0.45440  1.0000 -0.4486782196
O   O50       1.0  0.45440  0.50190  0.35302  1.0000 -0.4486782196
O   O51       1.0  0.55932  0.89698  0.74810  1.0000 -0.4486782196
O   O52       1.0  0.74810  0.79560  0.55932  1.0000 -0.4486782196
O   O53       1.0  0.46315  0.62347  0.36025  1.0000 -0.4600955415
O   O54       1.0  0.36025  0.55313  0.46315  1.0000 -0.4600955415
O   O55       1.0  0.62653  0.78685  0.69687  1.0000 -0.4600955415
O   O56       1.0  0.69687  0.88975  0.62653  1.0000 -0.4600955415
O   O57       1.0  0.52921  0.88825  0.63825  1.0000 -0.5397259164
O   O58       1.0  0.63825  0.94429  0.52921  1.0000 -0.5397259164
O   O59       1.0  0.36175  0.72079  0.30571  1.0000 -0.5397259164
O   O60       1.0  0.30571  0.61175  0.36175  1.0000 -0.5397259164
O   O61       1.0  0.64456  0.80700  0.54750  1.0000 -0.4737551715
O   O62       1.0  0.54750  0.00094  0.64456  1.0000 -0.4737551715
O   O63       1.0  0.44300  0.60544  0.24906  1.0000 -0.4737551715
O   O64       1.0  0.24906  0.70250  0.44300  1.0000 -0.4737551715
