# DDEC6 charges by PACMAN v1.1 (https://github.com/mtap-research/PACMAN-charge/)
data_2013[Cd][bcu]3[ION]1
_chemical_formula_sum              "Cd12 H192 C256 Cl8 O96"
_cell_length_a       26.7498
_cell_length_b       26.7498
_cell_length_c       26.7498
_cell_angle_alpha    130.698
_cell_angle_beta     130.698
_cell_angle_gamma    72.2925

_symmetry_space_group_name_H-M    "P 1"
_symmetry_Int_Tables_number       1

loop_
  _symmetry_equiv_pos_as_xyz
  'x, y, z'

loop_
  _atom_site_type_symbol
  _atom_site_label
  _atom_site_symmetry_multiplicity
  _atom_site_fract_x
  _atom_site_fract_y
  _atom_site_fract_z
  _atom_site_occupancy
  _atom_site_charge
Cd  Cd1       1.0  0.54419  0.54182  0.73381  1.0000 0.9484697128
Cd  Cd2       1.0  0.80801  0.81038  0.26619  1.0000 0.9484697128
Cd  Cd3       1.0  0.45818  0.19199  0.00237  1.0000 0.9484697128
Cd  Cd4       1.0  0.18962  0.45581  0.99763  1.0000 0.9484697128
Cd  Cd5       1.0  0.94199  0.70818  0.50237  1.0000 0.9484697128
Cd  Cd6       1.0  0.20581  0.43962  0.49763  1.0000 0.9484697128
Cd  Cd7       1.0  0.56038  0.05801  0.76619  1.0000 0.9484697128
Cd  Cd8       1.0  0.29182  0.79419  0.23381  1.0000 0.9484697128
Cd  Cd9       1.0  0.37500  0.48836  0.61336  1.0000 1.0394473815
Cd  Cd10      1.0  0.87500  0.76164  0.38664  1.0000 1.0394473815
Cd  Cd11      1.0  0.51164  0.12500  0.88664  1.0000 1.0394473815
Cd  Cd12      1.0  0.23836  0.62500  0.11336  1.0000 1.0394473815
H   H1        1.0  0.76390  0.67490  0.97340  1.0000 0.1369013912
H   H2        1.0  0.70150  0.79050  0.02660  1.0000 0.1369013912
H   H3        1.0  0.32510  0.29850  0.08900  1.0000 0.1369013912
H   H4        1.0  0.20950  0.23610  0.91100  1.0000 0.1369013912
H   H5        1.0  0.04850  0.57510  0.58900  1.0000 0.1369013912
H   H6        1.0  0.98610  0.45950  0.41100  1.0000 0.1369013912
H   H7        1.0  0.54050  0.95150  0.52660  1.0000 0.1369013912
H   H8        1.0  0.42490  0.01390  0.47340  1.0000 0.1369013912
H   H9        1.0  0.85130  0.60140  0.83850  1.0000 0.1213585321
H   H10       1.0  0.76290  0.01280  0.16150  1.0000 0.1213585321
H   H11       1.0  0.39860  0.23710  0.24990  1.0000 0.1213585321
H   H12       1.0  0.98720  0.14870  0.75010  1.0000 0.1213585321
H   H13       1.0  0.98710  0.64860  0.74990  1.0000 0.1213585321
H   H14       1.0  0.89870  0.23720  0.25010  1.0000 0.1213585321
H   H15       1.0  0.76280  0.01290  0.66150  1.0000 0.1213585321
H   H16       1.0  0.35140  0.10130  0.33850  1.0000 0.1213585321
H   H17       1.0  0.73870  0.56050  0.76020  1.0000 0.1369013912
H   H18       1.0  0.80030  0.97850  0.23980  1.0000 0.1369013912
H   H19       1.0  0.43950  0.19970  0.17820  1.0000 0.1369013912
H   H20       1.0  0.02150  0.26130  0.82180  1.0000 0.1369013912
H   H21       1.0  0.94970  0.68950  0.67820  1.0000 0.1369013912
H   H22       1.0  0.01130  0.27150  0.32180  1.0000 0.1369013912
H   H23       1.0  0.72850  0.05030  0.73980  1.0000 0.1369013912
H   H24       1.0  0.31050  0.98870  0.26020  1.0000 0.1369013912
H   H25       1.0  0.08350  0.63150  0.01920  1.0000 0.1323307918
H   H26       1.0  0.61230  0.06430  0.98080  1.0000 0.1323307918
H   H27       1.0  0.36850  0.38770  0.45200  1.0000 0.1323307918
H   H28       1.0  0.93570  0.91650  0.54800  1.0000 0.1323307918
H   H29       1.0  0.13770  0.61850  0.95200  1.0000 0.1323307918
H   H30       1.0  0.66650  0.18570  0.04800  1.0000 0.1369013912
H   H31       1.0  0.81430  0.86230  0.48080  1.0000 0.1323307918
H   H32       1.0  0.38150  0.33350  0.51920  1.0000 0.1323307918
H   H33       1.0  0.06070  0.82370  0.14280  1.0000 0.1369013912
H   H34       1.0  0.68090  0.91790  0.85720  1.0000 0.1369013912
H   H35       1.0  0.17630  0.31910  0.23700  1.0000 0.1369013912
H   H36       1.0  0.08210  0.93930  0.76300  1.0000 0.1369013912
H   H37       1.0  0.06910  0.42630  0.73700  1.0000 0.1369013912
H   H38       1.0  0.68930  0.33210  0.26300  1.0000 0.1369013912
H   H39       1.0  0.66790  0.93090  0.35720  1.0000 0.1369013912
H   H40       1.0  0.57370  0.31070  0.64280  1.0000 0.1369013912
H   H41       1.0  0.94870  0.78490  0.06520  1.0000 0.1369013912
H   H42       1.0  0.71970  0.88350  0.93480  1.0000 0.1369013912
H   H43       1.0  0.21510  0.28030  0.16380  1.0000 0.1369013912
H   H44       1.0  0.11650  0.05130  0.83620  1.0000 0.1369013912
H   H45       1.0  0.03030  0.46510  0.66380  1.0000 0.1369013912
H   H46       1.0  0.80130  0.36650  0.33620  1.0000 0.1369013912
H   H47       1.0  0.63350  0.96970  0.43480  1.0000 0.1369013912
H   H48       1.0  0.53490  0.19870  0.56520  1.0000 0.1369013912
H   H49       1.0  0.91170  0.78900  0.19210  1.0000 0.1323307918
H   H50       1.0  0.59690  0.71960  0.80790  1.0000 0.1323307918
H   H51       1.0  0.21100  0.40310  0.12270  1.0000 0.1323307918
H   H52       1.0  0.28040  0.08830  0.87730  1.0000 0.1323307918
H   H53       1.0  0.15310  0.46100  0.62270  1.0000 0.1323307918
H   H54       1.0  0.83830  0.53040  0.37730  1.0000 0.1323307918
H   H55       1.0  0.46960  0.84690  0.30790  1.0000 0.1323307918
H   H56       1.0  0.53900  0.16170  0.69210  1.0000 0.1323307918
H   H57       1.0  0.85330  0.72320  0.11870  1.0000 0.1125574106
H   H58       1.0  0.60450  0.73460  0.88130  1.0000 0.1125574106
H   H59       1.0  0.27680  0.39550  0.13010  1.0000 0.1125574106
H   H60       1.0  0.26540  0.14670  0.86990  1.0000 0.1125574106
H   H61       1.0  0.14550  0.52680  0.63010  1.0000 0.1125574106
H   H62       1.0  0.89670  0.51540  0.36990  1.0000 0.1125574106
H   H63       1.0  0.48460  0.85450  0.38130  1.0000 0.1125574106
H   H64       1.0  0.47320  0.10330  0.61870  1.0000 0.1125574106
H   H65       1.0  0.83970  0.78450  0.11640  1.0000 0.1213585321
H   H66       1.0  0.66810  0.72330  0.88360  1.0000 0.1213585321
H   H67       1.0  0.21550  0.33190  0.05520  1.0000 0.1213585321
H   H68       1.0  0.27670  0.16030  0.94480  1.0000 0.1213585321
H   H69       1.0  0.08190  0.46550  0.55520  1.0000 0.1213585321
H   H70       1.0  0.91030  0.52670  0.44480  1.0000 0.1213585321
H   H71       1.0  0.47330  0.91810  0.38360  1.0000 0.1213585321
H   H72       1.0  0.53450  0.08970  0.61640  1.0000 0.1213585321
H   H73       1.0  0.97400  0.47900  0.87580  1.0000 0.1461043687
H   H74       1.0  0.60320  0.09820  0.12420  1.0000 0.1461043687
H   H75       1.0  0.52100  0.39680  0.49500  1.0000 0.1461043687
H   H76       1.0  0.90180  0.02600  0.50500  1.0000 0.1461043687
H   H77       1.0  0.14680  0.77100  0.99500  1.0000 0.1461043687
H   H78       1.0  0.77600  0.15180  0.00500  1.0000 0.1461043687
H   H79       1.0  0.84820  0.85320  0.62420  1.0000 0.1461043687
H   H80       1.0  0.22900  0.22400  0.37580  1.0000 0.1461043687
H   H81       1.0  0.04070  0.53330  0.96920  1.0000 0.1323307918
H   H82       1.0  0.56410  0.07150  0.03080  1.0000 0.1323307918
H   H83       1.0  0.46670  0.43590  0.50740  1.0000 0.1323307918
H   H84       1.0  0.92850  0.95930  0.49260  1.0000 0.1323307918
H   H85       1.0  0.18590  0.71670  0.00740  1.0000 0.1323307918
H   H86       1.0  0.70930  0.17850  0.99260  1.0000 0.1323307918
H   H87       1.0  0.82150  0.81410  0.53080  1.0000 0.1323307918
H   H88       1.0  0.28330  0.29070  0.46920  1.0000 0.1323307918
H   H89       1.0  0.01470  0.52720  0.89170  1.0000 0.1213585321
H   H90       1.0  0.63550  0.12300  0.10830  1.0000 0.1213585321
H   H91       1.0  0.47280  0.36450  0.48750  1.0000 0.1213585321
H   H92       1.0  0.87700  0.98530  0.51250  1.0000 0.1213585321
H   H93       1.0  0.11450  0.72280  0.98750  1.0000 0.1213585321
H   H94       1.0  0.73530  0.12700  0.01250  1.0000 0.1213585321
H   H95       1.0  0.87300  0.88550  0.60830  1.0000 0.1213585321
H   H96       1.0  0.27720  0.26470  0.39170  1.0000 0.1213585321
H   H97       1.0  0.32440  0.51780  0.44480  1.0000 0.1323307918
H   H98       1.0  0.07300  0.87960  0.55520  1.0000 0.1369013912
H   H99       1.0  0.48220  0.92700  0.80660  1.0000 0.1369013912
H   H100      1.0  0.12040  0.67560  0.19340  1.0000 0.1369013912
H   H101      1.0  0.67700  0.73220  0.30660  1.0000 0.1323307918
H   H102      1.0  0.42560  0.37040  0.69340  1.0000 0.1323307918
H   H103      1.0  0.62960  0.32300  0.05520  1.0000 0.1323307918
H   H104      1.0  0.26780  0.57440  0.94480  1.0000 0.1323307918
H   H105      1.0  0.43880  0.71630  0.57870  1.0000 0.1213585321
H   H106      1.0  0.13760  0.86010  0.42130  1.0000 0.1213585321
H   H107      1.0  0.28370  0.86240  0.72250  1.0000 0.1213585321
H   H108      1.0  0.13990  0.56120  0.27750  1.0000 0.1213585321
H   H109      1.0  0.61240  0.53370  0.22250  1.0000 0.1213585321
H   H110      1.0  0.31120  0.38990  0.77750  1.0000 0.1213585321
H   H111      1.0  0.61010  0.38760  0.92130  1.0000 0.1213585321
H   H112      1.0  0.46630  0.68880  0.07870  1.0000 0.1213585321
H   H113      1.0  0.48270  0.67460  0.65170  1.0000 0.1213585321
H   H114      1.0  0.02290  0.83100  0.34830  1.0000 0.1213585321
H   H115      1.0  0.32540  0.97710  0.80810  1.0000 0.1213585321
H   H116      1.0  0.16900  0.51730  0.19190  1.0000 0.1213585321
H   H117      1.0  0.72710  0.57540  0.30810  1.0000 0.1213585321
H   H118      1.0  0.26730  0.41900  0.69190  1.0000 0.1213585321
H   H119      1.0  0.58100  0.27290  0.84830  1.0000 0.1213585321
H   H120      1.0  0.42460  0.73270  0.15170  1.0000 0.1213585321
H   H121      1.0  0.34290  0.62610  0.27500  1.0000 0.1369013912
H   H122      1.0  0.35110  0.06790  0.72500  1.0000 0.1369013912
H   H123      1.0  0.37390  0.64890  0.71680  1.0000 0.1369013912
H   H124      1.0  0.93210  0.65710  0.28320  1.0000 0.1369013912
H   H125      1.0  0.39890  0.62390  0.21680  1.0000 0.1369013912
H   H126      1.0  0.40710  0.18210  0.78320  1.0000 0.1369013912
H   H127      1.0  0.81790  0.60110  0.22500  1.0000 0.1369013912
H   H128      1.0  0.37610  0.59290  0.77500  1.0000 0.1369013912
H   H129      1.0  0.29550  0.78640  0.41790  1.0000 0.1323307918
H   H130      1.0  0.36850  0.87760  0.58210  1.0000 0.1323307918
H   H131      1.0  0.21360  0.63150  0.50910  1.0000 0.1323307918
H   H132      1.0  0.12240  0.70450  0.49090  1.0000 0.1323307918
H   H133      1.0  0.38150  0.46360  0.00910  1.0000 0.1323307918
H   H134      1.0  0.45450  0.37240  0.99090  1.0000 0.1323307918
H   H135      1.0  0.62760  0.61850  0.08210  1.0000 0.1323307918
H   H136      1.0  0.53640  0.54550  0.91790  1.0000 0.1323307918
H   H137      1.0  0.31950  0.74340  0.48230  1.0000 0.1323307918
H   H138      1.0  0.26110  0.83720  0.51770  1.0000 0.1323307918
H   H139      1.0  0.25660  0.73890  0.57610  1.0000 0.1323307918
H   H140      1.0  0.16280  0.68050  0.42390  1.0000 0.1323307918
H   H141      1.0  0.48890  0.50660  0.07610  1.0000 0.1323307918
H   H142      1.0  0.43050  0.41280  0.92390  1.0000 0.1213585321
H   H143      1.0  0.58720  0.51110  0.01770  1.0000 0.1323307918
H   H144      1.0  0.49340  0.56950  0.98230  1.0000 0.1213585321
H   H145      1.0  0.20260  0.45600  0.24180  1.0000 0.1323307918
H   H146      1.0  0.21420  0.96080  0.75820  1.0000 0.1323307918
H   H147      1.0  0.54400  0.78580  0.74660  1.0000 0.1323307918
H   H148      1.0  0.03920  0.79740  0.25340  1.0000 0.1323307918
H   H149      1.0  0.53580  0.79400  0.24660  1.0000 0.1323307918
H   H150      1.0  0.54740  0.28920  0.75340  1.0000 0.1323307918
H   H151      1.0  0.71080  0.46420  0.25820  1.0000 0.1323307918
H   H152      1.0  0.20600  0.45260  0.74180  1.0000 0.1323307918
H   H153      1.0  0.22790  0.48440  0.33090  1.0000 0.1213585321
H   H154      1.0  0.15350  0.89700  0.66910  1.0000 0.1213585321
H   H155      1.0  0.51560  0.84650  0.74350  1.0000 0.1213585321
H   H156      1.0  0.10300  0.77210  0.25650  1.0000 0.1213585321
H   H157      1.0  0.59650  0.76560  0.24350  1.0000 0.1213585321
H   H158      1.0  0.52210  0.35300  0.75650  1.0000 0.1213585321
H   H159      1.0  0.64700  0.40350  0.16910  1.0000 0.1213585321
H   H160      1.0  0.23440  0.47790  0.83090  1.0000 0.1213585321
H   H161      1.0  0.27430  0.44700  0.30330  1.0000 0.1213585321
H   H162      1.0  0.14370  0.97100  0.69670  1.0000 0.1213585321
H   H163      1.0  0.55300  0.85630  0.82730  1.0000 0.1213585321
H   H164      1.0  0.02900  0.72570  0.17270  1.0000 0.1213585321
H   H165      1.0  0.60630  0.80300  0.32730  1.0000 0.1213585321
H   H166      1.0  0.47570  0.27900  0.67270  1.0000 0.1213585321
H   H167      1.0  0.72100  0.39370  0.19670  1.0000 0.1213585321
H   H168      1.0  0.19700  0.52430  0.80330  1.0000 0.1213585321
H   H169      1.0  0.37880  0.47640  0.24840  1.0000 0.1369013912
H   H170      1.0  0.22800  0.13040  0.75160  1.0000 0.1369013912
H   H171      1.0  0.52360  0.77200  0.90240  1.0000 0.1369013912
H   H172      1.0  0.86960  0.62120  0.09760  1.0000 0.1369013912
H   H173      1.0  0.52200  0.77360  0.40240  1.0000 0.1369013912
H   H174      1.0  0.37120  0.11960  0.59760  1.0000 0.1369013912
H   H175      1.0  0.88040  0.47800  0.25160  1.0000 0.1369013912
H   H176      1.0  0.22640  0.62880  0.74840  1.0000 0.1369013912
H   H177      1.0  0.40040  0.54080  0.26880  1.0000 0.1323307918
H   H178      1.0  0.27200  0.13160  0.73120  1.0000 0.1323307918
H   H179      1.0  0.45920  0.72800  0.85960  1.0000 0.1323307918
H   H180      1.0  0.86840  0.59960  0.14040  1.0000 0.1323307918
H   H181      1.0  0.47800  0.70920  0.35960  1.0000 0.1323307918
H   H182      1.0  0.34960  0.11840  0.64040  1.0000 0.1323307918
H   H183      1.0  0.88160  0.52200  0.23120  1.0000 0.1323307918
H   H184      1.0  0.29080  0.65040  0.76880  1.0000 0.1323307918
H   H185      1.0  0.32230  0.51020  0.20850  1.0000 0.1323307918
H   H186      1.0  0.30170  0.11380  0.79150  1.0000 0.1323307918
H   H187      1.0  0.48980  0.69830  0.81210  1.0000 0.1323307918
H   H188      1.0  0.88620  0.67770  0.18790  1.0000 0.1323307918
H   H189      1.0  0.44830  0.73980  0.31210  1.0000 0.1323307918
H   H190      1.0  0.42770  0.13620  0.68790  1.0000 0.1323307918
H   H191      1.0  0.86380  0.55170  0.29150  1.0000 0.1323307918
H   H192      1.0  0.26020  0.57230  0.70850  1.0000 0.1323307918
C   C1        1.0  0.67040  0.58910  0.81470  1.0000 0.5307707334
C   C2        1.0  0.77440  0.85570  0.18530  1.0000 0.5307707334
C   C3        1.0  0.41090  0.22560  0.08130  1.0000 0.5307707334
C   C4        1.0  0.14430  0.32960  0.91870  1.0000 0.5307707334
C   C5        1.0  0.97560  0.66090  0.58130  1.0000 0.5307707334
C   C6        1.0  0.07960  0.39430  0.41870  1.0000 0.5307707334
C   C7        1.0  0.60570  0.02440  0.68530  1.0000 0.5307707334
C   C8        1.0  0.33910  0.92040  0.31470  1.0000 0.5307707334
C   C9        1.0  0.74060  0.61260  0.85820  1.0000 -0.009627453
C   C10       1.0  0.75440  0.88240  0.14180  1.0000 -0.009627453
C   C11       1.0  0.38740  0.24560  0.12800  1.0000 -0.009627453
C   C12       1.0  0.11760  0.25940  0.87200  1.0000 -0.009627453
C   C13       1.0  0.99560  0.63740  0.62800  1.0000 -0.009627453
C   C14       1.0  0.00940  0.36760  0.37200  1.0000 -0.009627453
C   C15       1.0  0.63240  0.00440  0.64180  1.0000 -0.009627453
C   C16       1.0  0.36260  0.99060  0.35820  1.0000 -0.009627453
C   C17       1.0  0.78180  0.65860  0.94520  1.0000 -0.2003532058
C   C18       1.0  0.71340  0.83660  0.05480  1.0000 -0.2003532058
C   C19       1.0  0.34140  0.28660  0.12320  1.0000 -0.2003532058
C   C20       1.0  0.16340  0.21820  0.87680  1.0000 -0.2003532058
C   C21       1.0  0.03660  0.59140  0.62320  1.0000 -0.2003532058
C   C22       1.0  0.96820  0.41340  0.37680  1.0000 -0.2003532058
C   C23       1.0  0.58660  0.96340  0.55480  1.0000 -0.2003532058
C   C24       1.0  0.40860  0.03180  0.44520  1.0000 -0.2003532058
C   C25       1.0  0.85080  0.68180  0.99320  1.0000 0.2031167758
C   C26       1.0  0.68860  0.85760  0.00680  1.0000 0.2031167758
C   C27       1.0  0.31820  0.31140  0.16900  1.0000 0.2031167758
C   C28       1.0  0.14240  0.14920  0.83100  1.0000 0.2031167758
C   C29       1.0  0.06140  0.56820  0.66900  1.0000 0.2031167758
C   C30       1.0  0.89920  0.39240  0.33100  1.0000 0.2031167758
C   C31       1.0  0.60760  0.93860  0.50680  1.0000 0.2031167758
C   C32       1.0  0.43180  0.10080  0.49320  1.0000 0.2031167758
C   C33       1.0  0.87707  0.66127  0.95380  1.0000 -0.0175107407
C   C34       1.0  0.70747  0.92327  0.04620  1.0000 -0.0175107407
C   C35       1.0  0.33873  0.29253  0.21580  1.0000 -0.0175107407
C   C36       1.0  0.07673  0.12293  0.78420  1.0000 -0.0175107407
C   C37       1.0  0.04253  0.58873  0.71580  1.0000 -0.0175107407
C   C38       1.0  0.87293  0.32673  0.28420  1.0000 -0.0175107407
C   C39       1.0  0.67327  0.95747  0.54620  1.0000 -0.0175107407
C   C40       1.0  0.41127  0.12707  0.45380  1.0000 -0.0175107407
C   C41       1.0  0.83460  0.61660  0.86760  1.0000 -0.1125280558
C   C42       1.0  0.74900  0.96700  0.13240  1.0000 -0.1125280558
C   C43       1.0  0.38340  0.25100  0.21800  1.0000 -0.1125280558
C   C44       1.0  0.03300  0.16540  0.78200  1.0000 -0.1125280558
C   C45       1.0  0.00100  0.63340  0.71800  1.0000 -0.1125280558
C   C46       1.0  0.91540  0.28300  0.28200  1.0000 -0.1125280558
C   C47       1.0  0.71700  0.99900  0.63240  1.0000 -0.1125280558
C   C48       1.0  0.36660  0.08460  0.36760  1.0000 -0.1125280558
C   C49       1.0  0.76650  0.59210  0.82020  1.0000 -0.0866153693
C   C50       1.0  0.77190  0.94630  0.17980  1.0000 -0.0866153693
C   C51       1.0  0.40790  0.22810  0.17440  1.0000 -0.0866153693
C   C52       1.0  0.05370  0.23350  0.82560  1.0000 -0.0866153693
C   C53       1.0  0.97810  0.65790  0.67440  1.0000 -0.0866153693
C   C54       1.0  0.98350  0.30370  0.32560  1.0000 -0.0866153693
C   C55       1.0  0.69630  0.02190  0.67980  1.0000 -0.0866153693
C   C56       1.0  0.34210  0.01650  0.32020  1.0000 -0.0866153693
C   C57       1.0  0.94924  0.68634  0.00230  1.0000 0.0072616573
C   C58       1.0  0.68404  0.94694  0.99770  1.0000 0.0072616573
C   C59       1.0  0.31366  0.31596  0.26290  1.0000 0.0072616573
C   C60       1.0  0.05306  0.05076  0.73710  1.0000 0.0072616573
C   C61       1.0  0.06596  0.56366  0.76290  1.0000 0.0072616573
C   C62       1.0  0.80076  0.30306  0.23710  1.0000 0.0072616573
C   C63       1.0  0.69694  0.93404  0.49770  1.0000 0.0072616573
C   C64       1.0  0.43634  0.19924  0.50230  1.0000 0.0072616573
C   C65       1.0  0.99080  0.63990  0.98810  1.0000 0.2031167758
C   C66       1.0  0.65180  0.00270  0.01190  1.0000 0.2031167758
C   C67       1.0  0.36010  0.34820  0.35090  1.0000 0.2031167758
C   C68       1.0  0.99730  0.00920  0.64910  1.0000 0.2031167758
C   C69       1.0  0.09820  0.61010  0.85090  1.0000 0.2031167758
C   C70       1.0  0.75920  0.24730  0.14910  1.0000 0.2031167758
C   C71       1.0  0.75270  0.90180  0.51190  1.0000 0.2031167758
C   C72       1.0  0.38990  0.24080  0.48810  1.0000 0.2031167758
C   C73       1.0  0.05656  0.66286  0.03070  1.0000 -0.2105531139
C   C74       1.0  0.63216  0.02586  0.96930  1.0000 -0.2105531139
C   C75       1.0  0.33714  0.36784  0.39370  1.0000 -0.2105531139
C   C76       1.0  0.97414  0.94344  0.60630  1.0000 -0.2105531139
C   C77       1.0  0.11784  0.58714  0.89370  1.0000 -0.2105531139
C   C78       1.0  0.69344  0.22414  0.10630  1.0000 -0.2105531139
C   C79       1.0  0.77586  0.88216  0.46930  1.0000 -0.2105531139
C   C80       1.0  0.41286  0.30656  0.53070  1.0000 -0.2105531139
C   C81       1.0  0.08393  0.73263  0.09130  1.0000 -0.009627453
C   C82       1.0  0.64133  0.99263  0.90870  1.0000 -0.009627453
C   C83       1.0  0.26737  0.35867  0.35130  1.0000 -0.009627453
C   C84       1.0  0.00737  0.91607  0.64870  1.0000 -0.009627453
C   C85       1.0  0.10867  0.51737  0.85130  1.0000 -0.009627453
C   C86       1.0  0.66607  0.25737  0.14870  1.0000 -0.009627453
C   C87       1.0  0.74263  0.89133  0.40870  1.0000 -0.009627453
C   C88       1.0  0.48263  0.33393  0.59130  1.0000 -0.009627453
C   C89       1.0  0.04310  0.77650  0.10300  1.0000 -0.1193028843
C   C90       1.0  0.67350  0.94010  0.89700  1.0000 -0.1193028843
C   C91       1.0  0.22350  0.32650  0.26660  1.0000 -0.1193028843
C   C92       1.0  0.05990  0.95690  0.73340  1.0000 -0.1193028843
C   C93       1.0  0.07650  0.47350  0.76660  1.0000 -0.1193028843
C   C94       1.0  0.70690  0.30990  0.23340  1.0000 -0.1193028843
C   C95       1.0  0.69010  0.92350  0.39700  1.0000 -0.1193028843
C   C96       1.0  0.52650  0.29310  0.60300  1.0000 -0.1193028843
C   C97       1.0  0.97650  0.75330  0.05760  1.0000 -0.1193028843
C   C98       1.0  0.69570  0.91890  0.94240  1.0000 -0.1193028843
C   C99       1.0  0.24670  0.30430  0.22320  1.0000 -0.1193028843
C   C100      1.0  0.08110  0.02350  0.77680  1.0000 -0.1193028843
C   C101      1.0  0.05430  0.49670  0.72320  1.0000 -0.1193028843
C   C102      1.0  0.77350  0.33110  0.27680  1.0000 -0.1193028843
C   C103      1.0  0.66890  0.94570  0.44240  1.0000 -0.1193028843
C   C104      1.0  0.50330  0.22650  0.55760  1.0000 -0.1193028843
C   C105      1.0  0.15579  0.75569  0.13870  1.0000 0.5698468978
C   C106      1.0  0.61699  0.01709  0.86130  1.0000 0.5698468978
C   C107      1.0  0.24431  0.38301  0.40010  1.0000 0.5698468978
C   C108      1.0  0.98291  0.84421  0.59990  1.0000 0.5698468978
C   C109      1.0  0.13301  0.49431  0.90010  1.0000 0.5698468978
C   C110      1.0  0.59421  0.23291  0.09990  1.0000 0.5698468978
C   C111      1.0  0.76709  0.86699  0.36130  1.0000 0.5698468978
C   C112      1.0  0.50569  0.40579  0.63870  1.0000 0.5698468978
C   C113      1.0  0.87350  0.75880  0.13150  1.0000 -0.238162587
C   C114      1.0  0.62730  0.74200  0.86850  1.0000 -0.238162587
C   C115      1.0  0.24120  0.37270  0.11470  1.0000 -0.238162587
C   C116      1.0  0.25800  0.12650  0.88530  1.0000 -0.238162587
C   C117      1.0  0.12270  0.49120  0.61470  1.0000 -0.238162587
C   C118      1.0  0.87650  0.50800  0.38530  1.0000 -0.238162587
C   C119      1.0  0.49200  0.87730  0.36850  1.0000 -0.238162587
C   C120      1.0  0.50880  0.12350  0.63150  1.0000 -0.238162587
C   C121      1.0  0.00070  0.52430  0.91580  1.0000 -0.219833392
C   C122      1.0  0.60850  0.08490  0.08420  1.0000 -0.219833392
C   C123      1.0  0.47570  0.39150  0.47640  1.0000 -0.219833392
C   C124      1.0  0.91510  0.99930  0.52360  1.0000 -0.219833392
C   C125      1.0  0.14150  0.72570  0.97640  1.0000 -0.219833392
C   C126      1.0  0.74930  0.16510  0.02360  1.0000 -0.219833392
C   C127      1.0  0.83490  0.85850  0.58420  1.0000 -0.219833392
C   C128      1.0  0.27430  0.25070  0.41580  1.0000 -0.219833392
C   C129      1.0  0.42860  0.56700  0.60160  1.0000 0.5854023242
C   C130      1.0  0.96540  0.82700  0.39840  1.0000 0.5854023242
C   C131      1.0  0.43300  0.03460  0.86160  1.0000 0.5854023242
C   C132      1.0  0.17300  0.57140  0.13840  1.0000 0.5854023242
C   C133      1.0  0.78460  0.68300  0.36160  1.0000 0.5854023242
C   C134      1.0  0.32140  0.42300  0.63840  1.0000 0.5854023242
C   C135      1.0  0.57700  0.21540  0.89840  1.0000 0.5854023242
C   C136      1.0  0.31700  0.67860  0.10160  1.0000 0.5854023242
C   C137      1.0  0.40724  0.59184  0.55480  1.0000 -0.0013228127
C   C138      1.0  0.03704  0.85244  0.44520  1.0000 -0.0013228127
C   C139      1.0  0.40816  0.96296  0.81540  1.0000 -0.0013228127
C   C140      1.0  0.14756  0.59276  0.18460  1.0000 -0.0013228127
C   C141      1.0  0.71296  0.65816  0.31540  1.0000 -0.0013228127
C   C142      1.0  0.34276  0.39756  0.68460  1.0000 -0.0013228127
C   C143      1.0  0.60244  0.28704  0.94520  1.0000 -0.0013228127
C   C144      1.0  0.34184  0.65724  0.05480  1.0000 -0.0013228127
C   C145      1.0  0.35031  0.55701  0.47190  1.0000 -0.2105531139
C   C146      1.0  0.08511  0.87841  0.52810  1.0000 -0.2105531139
C   C147      1.0  0.44299  0.91489  0.79330  1.0000 -0.2105531139
C   C148      1.0  0.12159  0.64969  0.20670  1.0000 -0.2105531139
C   C149      1.0  0.66489  0.69299  0.29330  1.0000 -0.2105531139
C   C150      1.0  0.39969  0.37159  0.70670  1.0000 -0.2105531139
C   C151      1.0  0.62841  0.33511  0.02810  1.0000 -0.2105531139
C   C152      1.0  0.30701  0.60031  0.97190  1.0000 -0.2105531139
C   C153      1.0  0.33030  0.57790  0.42760  1.0000 0.1829314972
C   C154      1.0  0.15030  0.90270  0.57240  1.0000 0.1829314972
C   C155      1.0  0.42210  0.84970  0.75240  1.0000 0.1829314972
C   C156      1.0  0.09730  0.66970  0.24760  1.0000 0.1829314972
C   C157      1.0  0.59970  0.67210  0.25240  1.0000 0.1829314972
C   C158      1.0  0.41970  0.34730  0.74760  1.0000 0.1829314972
C   C159      1.0  0.65270  0.40030  0.07240  1.0000 0.1829314972
C   C160      1.0  0.32790  0.58030  0.92760  1.0000 0.1829314972
C   C161      1.0  0.36470  0.63530  0.46560  1.0000 -0.009627453
C   C162      1.0  0.16970  0.89910  0.53440  1.0000 -0.009627453
C   C163      1.0  0.36470  0.83030  0.72940  1.0000 -0.009627453
C   C164      1.0  0.10090  0.63530  0.27060  1.0000 -0.009627453
C   C165      1.0  0.58030  0.61470  0.22940  1.0000 -0.009627453
C   C166      1.0  0.38530  0.35090  0.77060  1.0000 -0.009627453
C   C167      1.0  0.64910  0.41970  0.03440  1.0000 -0.009627453
C   C168      1.0  0.38530  0.61470  0.96560  1.0000 -0.009627453
C   C169      1.0  0.41800  0.67330  0.54990  1.0000 -0.1125280558
C   C170      1.0  0.12340  0.86810  0.45010  1.0000 -0.1125280558
C   C171      1.0  0.32670  0.87660  0.74470  1.0000 -0.1125280558
C   C172      1.0  0.13190  0.58200  0.25530  1.0000 -0.1125280558
C   C173      1.0  0.62660  0.57670  0.24470  1.0000 -0.1125280558
C   C174      1.0  0.33200  0.38190  0.75530  1.0000 -0.1125280558
C   C175      1.0  0.61810  0.37340  0.95010  1.0000 -0.1125280558
C   C176      1.0  0.42330  0.66800  0.04990  1.0000 -0.1125280558
C   C177      1.0  0.44240  0.65020  0.59460  1.0000 -0.0835471308
C   C178      1.0  0.05560  0.84780  0.40540  1.0000 -0.0835471308
C   C179      1.0  0.34980  0.94440  0.79220  1.0000 -0.0835471308
C   C180      1.0  0.15220  0.55760  0.20780  1.0000 -0.0835471308
C   C181      1.0  0.69440  0.59980  0.29220  1.0000 -0.0835471308
C   C182      1.0  0.30760  0.40220  0.70780  1.0000 -0.0835471308
C   C183      1.0  0.59780  0.30560  0.90540  1.0000 -0.0835471308
C   C184      1.0  0.40020  0.69240  0.09460  1.0000 -0.0835471308
C   C185      1.0  0.34760  0.66080  0.41960  1.0000 0.0032170357
C   C186      1.0  0.24120  0.92800  0.58040  1.0000 0.0032170357
C   C187      1.0  0.33920  0.75880  0.68680  1.0000 0.0032170357
C   C188      1.0  0.07200  0.65240  0.31320  1.0000 0.0032170357
C   C189      1.0  0.50880  0.58920  0.18680  1.0000 0.0032170357
C   C190      1.0  0.40240  0.32200  0.81320  1.0000 0.0032170357
C   C191      1.0  0.67800  0.49120  0.08040  1.0000 0.0032170357
C   C192      1.0  0.41080  0.59760  0.91960  1.0000 0.0032170357
C   C193      1.0  0.35360  0.62550  0.35670  1.0000 0.2095999265
C   C194      1.0  0.26880  0.99690  0.64330  1.0000 0.2095999265
C   C195      1.0  0.37450  0.73120  0.72810  1.0000 0.2095999265
C   C196      1.0  0.00310  0.64640  0.27190  1.0000 0.2095999265
C   C197      1.0  0.48120  0.62450  0.22810  1.0000 0.2095999265
C   C198      1.0  0.39640  0.25310  0.77190  1.0000 0.2095999265
C   C199      1.0  0.74690  0.51880  0.14330  1.0000 0.2095999265
C   C200      1.0  0.37550  0.60360  0.85670  1.0000 0.2095999265
C   C201      1.0  0.33989  0.65119  0.31910  1.0000 -0.219833392
C   C202      1.0  0.33209  0.02079  0.68090  1.0000 -0.219833392
C   C203      1.0  0.34881  0.66791  0.68870  1.0000 -0.219833392
C   C204      1.0  0.97921  0.66011  0.31130  1.0000 -0.219833392
C   C205      1.0  0.41791  0.59881  0.18870  1.0000 -0.219833392
C   C206      1.0  0.41011  0.22921  0.81130  1.0000 -0.219833392
C   C207      1.0  0.77079  0.58209  0.18090  1.0000 -0.219833392
C   C208      1.0  0.40119  0.58989  0.81910  1.0000 -0.219833392
C   C209      1.0  0.32214  0.71224  0.34430  1.0000 0.0227712424
C   C210      1.0  0.36794  0.97784  0.65570  1.0000 0.0227712424
C   C211      1.0  0.28776  0.63206  0.60990  1.0000 0.0227712424
C   C212      1.0  0.02216  0.67786  0.39010  1.0000 0.0227712424
C   C213      1.0  0.38206  0.53776  0.10990  1.0000 0.0227712424
C   C214      1.0  0.42786  0.27216  0.89010  1.0000 0.0227712424
C   C215      1.0  0.72784  0.61794  0.15570  1.0000 0.0227712424
C   C216      1.0  0.46224  0.57214  0.84430  1.0000 0.0227712424
C   C217      1.0  0.31190  0.74590  0.40360  1.0000 -0.1125280558
C   C218      1.0  0.34230  0.90830  0.59640  1.0000 -0.1125280558
C   C219      1.0  0.25410  0.65770  0.56600  1.0000 -0.1125280558
C   C220      1.0  0.09170  0.68810  0.43400  1.0000 -0.1125280558
C   C221      1.0  0.40770  0.50410  0.06600  1.0000 -0.1125280558
C   C222      1.0  0.43810  0.34170  0.93400  1.0000 -0.1125280558
C   C223      1.0  0.65830  0.59230  0.09640  1.0000 -0.1125280558
C   C224      1.0  0.49590  0.56190  0.90360  1.0000 -0.1125280558
C   C225      1.0  0.32550  0.71990  0.44100  1.0000 -0.1312765829
C   C226      1.0  0.27890  0.88450  0.55900  1.0000 -0.1312765829
C   C227      1.0  0.28010  0.72110  0.60560  1.0000 -0.1312765829
C   C228      1.0  0.11550  0.67450  0.39440  1.0000 -0.1312765829
C   C229      1.0  0.47110  0.53010  0.10560  1.0000 -0.1312765829
C   C230      1.0  0.42450  0.36550  0.89440  1.0000 -0.1312765829
C   C231      1.0  0.63450  0.52890  0.05900  1.0000 -0.1312765829
C   C232      1.0  0.46990  0.57550  0.94100  1.0000 -0.1312765829
C   C233      1.0  0.31210  0.74020  0.30430  1.0000 0.552183702
C   C234      1.0  0.43590  0.00780  0.69570  1.0000 0.552183702
C   C235      1.0  0.25980  0.56410  0.57190  1.0000 0.552183702
C   C236      1.0  0.99220  0.68790  0.42810  1.0000 0.552183702
C   C237      1.0  0.31410  0.50980  0.07190  1.0000 0.552183702
C   C238      1.0  0.43790  0.24220  0.92810  1.0000 0.552183702
C   C239      1.0  0.75780  0.68590  0.19570  1.0000 0.552183702
C   C240      1.0  0.49020  0.56210  0.80430  1.0000 0.552183702
C   C241      1.0  0.24210  0.47690  0.30100  1.0000 -0.219833392
C   C242      1.0  0.17590  0.94110  0.69900  1.0000 -0.219833392
C   C243      1.0  0.52310  0.82410  0.76520  1.0000 -0.219833392
C   C244      1.0  0.05890  0.75790  0.23480  1.0000 -0.219833392
C   C245      1.0  0.57410  0.77310  0.26520  1.0000 -0.219833392
C   C246      1.0  0.50790  0.30890  0.73480  1.0000 -0.219833392
C   C247      1.0  0.69110  0.42590  0.19900  1.0000 -0.219833392
C   C248      1.0  0.22690  0.49210  0.80100  1.0000 -0.219833392
C   C249      1.0  0.36770  0.51910  0.25840  1.0000 -0.2514188146
C   C250      1.0  0.26070  0.10930  0.74160  1.0000 -0.2514188146
C   C251      1.0  0.48090  0.73930  0.84860  1.0000 -0.2514188146
C   C252      1.0  0.89070  0.63230  0.15140  1.0000 -0.2514188146
C   C253      1.0  0.48930  0.73090  0.34860  1.0000 -0.2514188146
C   C254      1.0  0.38230  0.14070  0.65140  1.0000 -0.2514188146
C   C255      1.0  0.85930  0.51070  0.24160  1.0000 -0.2514188146
C   C256      1.0  0.26910  0.61770  0.75840  1.0000 -0.2514188146
Cl  Cl1       1.0  0.34740  0.83190  0.14230  1.0000 -0.3597879192
Cl  Cl2       1.0  0.68960  0.20510  0.85770  1.0000 -0.3597879192
Cl  Cl3       1.0  0.16810  0.31040  0.51550  1.0000 -0.3597879192
Cl  Cl4       1.0  0.79490  0.65260  0.48450  1.0000 -0.3597879192
Cl  Cl5       1.0  0.06040  0.41810  0.01550  1.0000 -0.3597879192
Cl  Cl6       1.0  0.40260  0.04490  0.98450  1.0000 -0.3597879192
Cl  Cl7       1.0  0.95510  0.93960  0.35770  1.0000 -0.3597879192
Cl  Cl8       1.0  0.58190  0.59740  0.64230  1.0000 -0.3597879192
O   O1        1.0  0.63421  0.54781  0.73620  1.0000 -0.4425724568
O   O2        1.0  0.81161  0.89801  0.26380  1.0000 -0.4425724568
O   O3        1.0  0.45219  0.18839  0.08640  1.0000 -0.4425724568
O   O4        1.0  0.10199  0.36579  0.91360  1.0000 -0.4425724568
O   O5        1.0  0.93839  0.70219  0.58640  1.0000 -0.4425724568
O   O6        1.0  0.11579  0.35199  0.41360  1.0000 -0.4425724568
O   O7        1.0  0.64801  0.06161  0.76380  1.0000 -0.4425724568
O   O8        1.0  0.29781  0.88421  0.23620  1.0000 -0.4425724568
O   O9        1.0  0.65025  0.60675  0.85150  1.0000 -0.4346850073
O   O10       1.0  0.75525  0.79875  0.14850  1.0000 -0.4346850073
O   O11       1.0  0.39325  0.24475  0.04350  1.0000 -0.4346850073
O   O12       1.0  0.20125  0.34975  0.95650  1.0000 -0.4425724568
O   O13       1.0  0.99475  0.64325  0.54350  1.0000 -0.4346850073
O   O14       1.0  0.09975  0.45125  0.45650  1.0000 -0.4346850073
O   O15       1.0  0.54875  0.00525  0.64850  1.0000 -0.4346850073
O   O16       1.0  0.35675  0.90025  0.35150  1.0000 -0.4346850073
O   O17       1.0  0.18188  0.81678  0.19870  1.0000 -0.4697003445
O   O18       1.0  0.61808  0.98318  0.80130  1.0000 -0.4697003445
O   O19       1.0  0.18322  0.38192  0.36510  1.0000 -0.4697003445
O   O20       1.0  0.01682  0.81812  0.63490  1.0000 -0.4697003445
O   O21       1.0  0.13192  0.43322  0.86510  1.0000 -0.4697003445
O   O22       1.0  0.56812  0.26682  0.13490  1.0000 -0.4697003445
O   O23       1.0  0.73318  0.86808  0.30130  1.0000 -0.4697003445
O   O24       1.0  0.56678  0.43188  0.69870  1.0000 -0.4697003445
O   O25       1.0  0.18862  0.71402  0.11620  1.0000 -0.5777689671
O   O26       1.0  0.59782  0.07242  0.88380  1.0000 -0.5777689671
O   O27       1.0  0.28598  0.40218  0.47460  1.0000 -0.5777689671
O   O28       1.0  0.92758  0.81138  0.52540  1.0000 -0.5777689671
O   O29       1.0  0.15218  0.53598  0.97460  1.0000 -0.5777689671
O   O30       1.0  0.56138  0.17758  0.02540  1.0000 -0.5777689671
O   O31       1.0  0.82242  0.84782  0.38380  1.0000 -0.5777689671
O   O32       1.0  0.46402  0.43862  0.61620  1.0000 -0.5777689671
O   O33       1.0  0.89674  0.72864  0.08310  1.0000 -0.1915657824
O   O34       1.0  0.64554  0.81364  0.91690  1.0000 -0.1915657824
O   O35       1.0  0.27136  0.35446  0.16810  1.0000 -0.1915657824
O   O36       1.0  0.18636  0.10326  0.83190  1.0000 -0.1915657824
O   O37       1.0  0.10446  0.52136  0.66810  1.0000 -0.1915657824
O   O38       1.0  0.85326  0.43636  0.33190  1.0000 -0.1915657824
O   O39       1.0  0.56364  0.89554  0.41690  1.0000 -0.1915657824
O   O40       1.0  0.47864  0.14674  0.58310  1.0000 -0.1915657824
O   O41       1.0  0.96141  0.57211  0.93090  1.0000 -0.1312765829
O   O42       1.0  0.64121  0.03051  0.06910  1.0000 -0.1312765829
O   O43       1.0  0.42789  0.35879  0.38930  1.0000 -0.1312765829
O   O44       1.0  0.96949  0.03859  0.61070  1.0000 -0.1312765829
O   O45       1.0  0.10879  0.67789  0.88930  1.0000 -0.1312765829
O   O46       1.0  0.78859  0.21949  0.11070  1.0000 -0.1312765829
O   O47       1.0  0.78051  0.89121  0.56910  1.0000 -0.1312765829
O   O48       1.0  0.32211  0.21141  0.43090  1.0000 -0.1312765829
O   O49       1.0  0.48898  0.58778  0.66820  1.0000 -0.5245712256
O   O50       1.0  0.91958  0.82078  0.33180  1.0000 -0.5245712256
O   O51       1.0  0.41222  0.08042  0.90120  1.0000 -0.5245712256
O   O52       1.0  0.17922  0.51102  0.09880  1.0000 -0.5245712256
O   O53       1.0  0.83042  0.66222  0.40120  1.0000 -0.5245712256
O   O54       1.0  0.26102  0.42922  0.59880  1.0000 -0.5245712256
O   O55       1.0  0.57078  0.16958  0.83180  1.0000 -0.5245712256
O   O56       1.0  0.33778  0.73898  0.16820  1.0000 -0.5245712256
O   O57       1.0  0.38456  0.52696  0.56920  1.0000 -0.5359873032
O   O58       1.0  0.95776  0.81536  0.43080  1.0000 -0.5359873032
O   O59       1.0  0.47304  0.04224  0.85760  1.0000 -0.5359873032
O   O60       1.0  0.18464  0.61544  0.14240  1.0000 -0.5359873032
O   O61       1.0  0.79224  0.72304  0.35760  1.0000 -0.5359873032
O   O62       1.0  0.36544  0.43464  0.64240  1.0000 -0.5359873032
O   O63       1.0  0.56536  0.20776  0.93080  1.0000 -0.5359873032
O   O64       1.0  0.27696  0.63456  0.06920  1.0000 -0.5359873032
O   O65       1.0  0.29621  0.79791  0.33110  1.0000 -0.4753928041
O   O66       1.0  0.46681  0.96511  0.66890  1.0000 -0.4753928041
O   O67       1.0  0.20209  0.53319  0.49830  1.0000 -0.4753928041
O   O68       1.0  0.03489  0.70379  0.50170  1.0000 -0.4753928041
O   O69       1.0  0.28319  0.45209  0.99830  1.0000 -0.4753928041
O   O70       1.0  0.45379  0.28489  0.00170  1.0000 -0.4753928041
O   O71       1.0  0.71511  0.71681  0.16890  1.0000 -0.4753928041
O   O72       1.0  0.54791  0.54621  0.83110  1.0000 -0.4753928041
O   O73       1.0  0.32080  0.71040  0.25320  1.0000 -0.5089910781
O   O74       1.0  0.45720  0.06760  0.74680  1.0000 -0.5089910781
O   O75       1.0  0.28960  0.54280  0.61040  1.0000 -0.5089910781
O   O76       1.0  0.93240  0.67920  0.38960  1.0000 -0.5089910781
O   O77       1.0  0.29280  0.53960  0.11040  1.0000 -0.5089910781
O   O78       1.0  0.42920  0.18240  0.88960  1.0000 -0.5089910781
O   O79       1.0  0.81760  0.70720  0.24680  1.0000 -0.5089910781
O   O80       1.0  0.46040  0.57080  0.75320  1.0000 -0.5089910781
O   O81       1.0  0.27237  0.53827  0.33950  1.0000 -0.1717681015
O   O82       1.0  0.19877  0.93287  0.66050  1.0000 -0.1717681015
O   O83       1.0  0.46173  0.80123  0.73410  1.0000 -0.1717681015
O   O84       1.0  0.06713  0.72763  0.26590  1.0000 -0.1717681015
O   O85       1.0  0.55123  0.71173  0.23410  1.0000 -0.1717681015
O   O86       1.0  0.47763  0.31713  0.76590  1.0000 -0.1717681015
O   O87       1.0  0.68287  0.44877  0.16050  1.0000 -0.1717681015
O   O88       1.0  0.28827  0.52237  0.83950  1.0000 -0.1717681015
O   O89       1.0  0.37008  0.56308  0.33140  1.0000 -0.1375717377
O   O90       1.0  0.23168  0.03868  0.66860  1.0000 -0.1375717377
O   O91       1.0  0.43692  0.76832  0.80700  1.0000 -0.1375717377
O   O92       1.0  0.96132  0.62992  0.19300  1.0000 -0.1375717377
O   O93       1.0  0.51832  0.68692  0.30700  1.0000 -0.1375717377
O   O94       1.0  0.37992  0.21132  0.69300  1.0000 -0.1375717377
O   O95       1.0  0.78868  0.48168  0.16860  1.0000 -0.1375717377
O   O96       1.0  0.31308  0.62008  0.83140  1.0000 -0.1375717377
