# DDEC6 charges by PACMAN v1.1 (https://github.com/mtap-research/PACMAN-charge/)
data_2013[Zn][nan]3[ION]2
_chemical_formula_sum              "Zn8 H144 C180 N72 Cl12 O48"
_cell_length_a       21.703
_cell_length_b       20.062
_cell_length_c       22.121
_cell_angle_alpha    90
_cell_angle_beta     108.799
_cell_angle_gamma    90

_symmetry_space_group_name_H-M    "P 1"
_symmetry_Int_Tables_number       1

loop_
  _symmetry_equiv_pos_as_xyz
  'x, y, z'

loop_
  _atom_site_type_symbol
  _atom_site_label
  _atom_site_symmetry_multiplicity
  _atom_site_fract_x
  _atom_site_fract_y
  _atom_site_fract_z
  _atom_site_occupancy
  _atom_site_charge
Zn  Zn1       1.0  0.86063  0.33745  0.05586  1.0000 0.627761824
Zn  Zn2       1.0  0.13937  0.83745  0.44414  1.0000 0.627761824
Zn  Zn3       1.0  0.13937  0.66255  0.94414  1.0000 0.627761824
Zn  Zn4       1.0  0.86063  0.16255  0.55586  1.0000 0.627761824
Zn  Zn5       1.0  0.39798  0.13781  0.25982  1.0000 0.6609053742
Zn  Zn6       1.0  0.60202  0.63781  0.24018  1.0000 0.6609053742
Zn  Zn7       1.0  0.60202  0.86219  0.74018  1.0000 0.6609053742
Zn  Zn8       1.0  0.39798  0.36219  0.75982  1.0000 0.6609053742
H   H1        1.0  0.69930  0.56130  0.05800  1.0000 0.120232172
H   H2        1.0  0.30070  0.06130  0.44200  1.0000 0.120232172
H   H3        1.0  0.30070  0.43870  0.94200  1.0000 0.120232172
H   H4        1.0  0.69930  0.93870  0.55800  1.0000 0.120232172
H   H5        1.0  0.66180  0.74970  0.98480  1.0000 0.1383180528
H   H6        1.0  0.33820  0.24970  0.51520  1.0000 0.1383180528
H   H7        1.0  0.33820  0.25030  0.01520  1.0000 0.1383180528
H   H8        1.0  0.66180  0.75030  0.48480  1.0000 0.1383180528
H   H9        1.0  0.73930  0.61040  0.89640  1.0000 0.1383180528
H   H10       1.0  0.26070  0.11040  0.60360  1.0000 0.1383180528
H   H11       1.0  0.26070  0.38960  0.10360  1.0000 0.1383180528
H   H12       1.0  0.73930  0.88960  0.39640  1.0000 0.1383180528
H   H13       1.0  0.80130  0.48920  0.06350  1.0000 0.09226338
H   H14       1.0  0.19870  0.98920  0.43650  1.0000 0.09226338
H   H15       1.0  0.19870  0.51080  0.93650  1.0000 0.09226338
H   H16       1.0  0.80130  0.01080  0.56350  1.0000 0.09226338
H   H17       1.0  0.76470  0.38040  0.90620  1.0000 0.1105067424
H   H18       1.0  0.23530  0.88040  0.59380  1.0000 0.1105067424
H   H19       1.0  0.23530  0.61960  0.09380  1.0000 0.1105067424
H   H20       1.0  0.76470  0.11960  0.40620  1.0000 0.1105067424
H   H21       1.0  0.70450  0.48580  0.87540  1.0000 0.1383180528
H   H22       1.0  0.29550  0.98580  0.62460  1.0000 0.1383180528
H   H23       1.0  0.29550  0.51420  0.12460  1.0000 0.1383180528
H   H24       1.0  0.70450  0.01420  0.37540  1.0000 0.1383180528
H   H25       1.0  0.62470  0.59090  0.10930  1.0000 0.101052215
H   H26       1.0  0.37530  0.09090  0.39070  1.0000 0.101052215
H   H27       1.0  0.37530  0.40910  0.89070  1.0000 0.101052215
H   H28       1.0  0.62470  0.90910  0.60930  1.0000 0.101052215
H   H29       1.0  0.63110  0.77310  0.18220  1.0000 0.1383180528
H   H30       1.0  0.36890  0.27310  0.31780  1.0000 0.1383180528
H   H31       1.0  0.36890  0.22690  0.81780  1.0000 0.1383180528
H   H32       1.0  0.63110  0.72690  0.68220  1.0000 0.1383180528
H   H33       1.0  0.67160  0.78150  0.09030  1.0000 0.1383180528
H   H34       1.0  0.32840  0.28150  0.40970  1.0000 0.1383180528
H   H35       1.0  0.32840  0.21850  0.90970  1.0000 0.1282436004
H   H36       1.0  0.67160  0.71850  0.59030  1.0000 0.1282436004
H   H37       1.0  0.61070  0.77730  0.86490  1.0000 0.1105067424
H   H38       1.0  0.38930  0.27730  0.63510  1.0000 0.1105067424
H   H39       1.0  0.38930  0.22270  0.13510  1.0000 0.1105067424
H   H40       1.0  0.61070  0.72270  0.36490  1.0000 0.1105067424
H   H41       1.0  0.74680  0.80350  0.78250  1.0000 0.1105067424
H   H42       1.0  0.25320  0.30350  0.71750  1.0000 0.1105067424
H   H43       1.0  0.25320  0.19650  0.21750  1.0000 0.1105067424
H   H44       1.0  0.74680  0.69650  0.28250  1.0000 0.1105067424
H   H45       1.0  0.79000  0.72020  0.86840  1.0000 0.1282436004
H   H46       1.0  0.21000  0.22020  0.63160  1.0000 0.1282436004
H   H47       1.0  0.21000  0.27980  0.13160  1.0000 0.1282436004
H   H48       1.0  0.79000  0.77980  0.36840  1.0000 0.1282436004
H   H49       1.0  0.98980  0.44230  0.90360  1.0000 0.1383180528
H   H50       1.0  0.01020  0.94230  0.59640  1.0000 0.1383180528
H   H51       1.0  0.01020  0.55770  0.09640  1.0000 0.1383180528
H   H52       1.0  0.98980  0.05770  0.40360  1.0000 0.1383180528
H   H53       1.0  0.01620  0.42820  0.73020  1.0000 0.1282436004
H   H54       1.0  0.98380  0.92820  0.76980  1.0000 0.1282436004
H   H55       1.0  0.98380  0.57180  0.26980  1.0000 0.1282436004
H   H56       1.0  0.01620  0.07180  0.23020  1.0000 0.1282436004
H   H57       1.0  0.92630  0.27800  0.79300  1.0000 0.120232172
H   H58       1.0  0.07370  0.77800  0.70700  1.0000 0.120232172
H   H59       1.0  0.07370  0.72200  0.20700  1.0000 0.120232172
H   H60       1.0  0.92630  0.22200  0.29300  1.0000 0.120232172
H   H61       1.0  0.90340  0.40510  0.94600  1.0000 0.1105067424
H   H62       1.0  0.09660  0.90510  0.55400  1.0000 0.1105067424
H   H63       1.0  0.09660  0.59490  0.05400  1.0000 0.1105067424
H   H64       1.0  0.90340  0.09490  0.44600  1.0000 0.1105067424
H   H65       1.0  0.90610  0.21120  0.98460  1.0000 0.1105067424
H   H66       1.0  0.09390  0.71120  0.51540  1.0000 0.1105067424
H   H67       1.0  0.09390  0.78880  0.01540  1.0000 0.1105067424
H   H68       1.0  0.90610  0.28880  0.48460  1.0000 0.1105067424
H   H69       1.0  0.95140  0.22490  0.89670  1.0000 0.120232172
H   H70       1.0  0.04860  0.72490  0.60330  1.0000 0.120232172
H   H71       1.0  0.04860  0.77510  0.10330  1.0000 0.120232172
H   H72       1.0  0.95140  0.27510  0.39670  1.0000 0.120232172
H   H73       1.0  0.07010  0.52120  0.92440  1.0000 0.1105067424
H   H74       1.0  0.92990  0.02120  0.57560  1.0000 0.1105067424
H   H75       1.0  0.92990  0.47880  0.07560  1.0000 0.1105067424
H   H76       1.0  0.07010  0.97880  0.42440  1.0000 0.1105067424
H   H77       1.0  0.09170  0.64000  0.78930  1.0000 0.101052215
H   H78       1.0  0.90830  0.14000  0.71070  1.0000 0.101052215
H   H79       1.0  0.90830  0.36000  0.21070  1.0000 0.101052215
H   H80       1.0  0.09170  0.86000  0.28930  1.0000 0.101052215
H   H81       1.0  0.02950  0.54230  0.73510  1.0000 0.120232172
H   H82       1.0  0.97050  0.04230  0.76490  1.0000 0.120232172
H   H83       1.0  0.97050  0.45770  0.26490  1.0000 0.120232172
H   H84       1.0  0.02950  0.95770  0.23510  1.0000 0.120232172
H   H85       1.0  0.87060  0.27410  0.67110  1.0000 0.101052215
H   H86       1.0  0.12940  0.77410  0.82890  1.0000 0.101052215
H   H87       1.0  0.12940  0.72590  0.32890  1.0000 0.101052215
H   H88       1.0  0.87060  0.22590  0.17110  1.0000 0.101052215
H   H89       1.0  0.00630  0.24520  0.58990  1.0000 0.120232172
H   H90       1.0  0.99370  0.74520  0.91010  1.0000 0.120232172
H   H91       1.0  0.99370  0.75480  0.41010  1.0000 0.120232172
H   H92       1.0  0.00630  0.25480  0.08990  1.0000 0.120232172
H   H93       1.0  0.05310  0.32060  0.68180  1.0000 0.1282436004
H   H94       1.0  0.94690  0.82060  0.81820  1.0000 0.1282436004
H   H95       1.0  0.94690  0.67940  0.31820  1.0000 0.1282436004
H   H96       1.0  0.05310  0.17940  0.18180  1.0000 0.1282436004
H   H97       1.0  0.64090  0.20110  0.16380  1.0000 0.1383180528
H   H98       1.0  0.35910  0.70110  0.33620  1.0000 0.1383180528
H   H99       1.0  0.35910  0.79890  0.83620  1.0000 0.1383180528
H   H100      1.0  0.64090  0.29890  0.66380  1.0000 0.1383180528
H   H101      1.0  0.58180  0.32640  0.28010  1.0000 0.1383180528
H   H102      1.0  0.41820  0.82640  0.21990  1.0000 0.1383180528
H   H103      1.0  0.41820  0.67360  0.71990  1.0000 0.1383180528
H   H104      1.0  0.58180  0.17360  0.78010  1.0000 0.1383180528
H   H105      1.0  0.69370  0.39730  0.17770  1.0000 0.120232172
H   H106      1.0  0.30630  0.89730  0.32230  1.0000 0.120232172
H   H107      1.0  0.30630  0.60270  0.82230  1.0000 0.120232172
H   H108      1.0  0.69370  0.10270  0.67770  1.0000 0.120232172
H   H109      1.0  0.77920  0.35740  0.14720  1.0000 0.101052215
H   H110      1.0  0.22080  0.85740  0.35280  1.0000 0.101052215
H   H111      1.0  0.22080  0.64260  0.85280  1.0000 0.101052215
H   H112      1.0  0.77920  0.14260  0.64720  1.0000 0.101052215
H   H113      1.0  0.74260  0.22180  0.00950  1.0000 0.1282436004
H   H114      1.0  0.25740  0.72180  0.49050  1.0000 0.1282436004
H   H115      1.0  0.25740  0.77820  0.99050  1.0000 0.1282436004
H   H116      1.0  0.74260  0.27820  0.50950  1.0000 0.1282436004
H   H117      1.0  0.65940  0.20790  0.06150  1.0000 0.1383180528
H   H118      1.0  0.34060  0.70790  0.43850  1.0000 0.1383180528
H   H119      1.0  0.34060  0.79210  0.93850  1.0000 0.1383180528
H   H120      1.0  0.65940  0.29210  0.56150  1.0000 0.1383180528
H   H121      1.0  0.48650  0.25290  0.23950  1.0000 0.1105067424
H   H122      1.0  0.51350  0.75290  0.26050  1.0000 0.1105067424
H   H123      1.0  0.51350  0.74710  0.76050  1.0000 0.1105067424
H   H124      1.0  0.48650  0.24710  0.73950  1.0000 0.1105067424
H   H125      1.0  0.53400  0.06100  0.27040  1.0000 0.120232172
H   H126      1.0  0.46600  0.56100  0.22960  1.0000 0.120232172
H   H127      1.0  0.46600  0.93900  0.72960  1.0000 0.120232172
H   H128      1.0  0.53400  0.43900  0.77040  1.0000 0.120232172
H   H129      1.0  0.62650  0.11780  0.25090  1.0000 0.1282436004
H   H130      1.0  0.37350  0.61780  0.24910  1.0000 0.1282436004
H   H131      1.0  0.37350  0.88220  0.74910  1.0000 0.1282436004
H   H132      1.0  0.62650  0.38220  0.75090  1.0000 0.1282436004
H   H133      1.0  0.62340  0.49590  0.18130  1.0000 0.101052215
H   H134      1.0  0.37660  0.99590  0.31870  1.0000 0.101052215
H   H135      1.0  0.37660  0.50410  0.81870  1.0000 0.101052215
H   H136      1.0  0.62340  0.00410  0.68130  1.0000 0.101052215
H   H137      1.0  0.62140  0.54080  0.35580  1.0000 0.1383180528
H   H138      1.0  0.37860  0.04080  0.14420  1.0000 0.1383180528
H   H139      1.0  0.37860  0.45920  0.64420  1.0000 0.1383180528
H   H140      1.0  0.62140  0.95920  0.85580  1.0000 0.1383180528
H   H141      1.0  0.64100  0.41930  0.35280  1.0000 0.1282436004
H   H142      1.0  0.35900  0.91930  0.14720  1.0000 0.1282436004
H   H143      1.0  0.35900  0.58070  0.64720  1.0000 0.1282436004
H   H144      1.0  0.64100  0.08070  0.85280  1.0000 0.1282436004
C   C1        1.0  0.72195  0.57706  0.97727  1.0000 0.201636726
C   C2        1.0  0.27805  0.07706  0.52273  1.0000 0.201636726
C   C3        1.0  0.27805  0.42294  0.02273  1.0000 0.201636726
C   C4        1.0  0.72195  0.92294  0.47727  1.0000 0.201636726
C   C5        1.0  0.70005  0.59337  0.02669  1.0000 -0.2986537744
C   C6        1.0  0.29995  0.09337  0.47331  1.0000 -0.2986537744
C   C7        1.0  0.29995  0.40663  0.97331  1.0000 -0.2986537744
C   C8        1.0  0.70005  0.90663  0.52669  1.0000 -0.2986537744
C   C9        1.0  0.67867  0.65910  0.02999  1.0000 0.201636726
C   C10       1.0  0.32133  0.15910  0.47001  1.0000 0.201636726
C   C11       1.0  0.32133  0.34090  0.97001  1.0000 0.201636726
C   C12       1.0  0.67867  0.84090  0.52999  1.0000 0.201636726
C   C13       1.0  0.67781  0.70589  0.98326  1.0000 -0.2536059823
C   C14       1.0  0.32219  0.20589  0.51674  1.0000 -0.2536059823
C   C15       1.0  0.32219  0.29411  0.01674  1.0000 -0.2536059823
C   C16       1.0  0.67781  0.79411  0.48326  1.0000 -0.2536059823
C   C17       1.0  0.70097  0.68682  0.93455  1.0000 0.2118782034
C   C18       1.0  0.29903  0.18682  0.56545  1.0000 0.2118782034
C   C19       1.0  0.29903  0.31318  0.06545  1.0000 0.2118782034
C   C20       1.0  0.70097  0.81318  0.43455  1.0000 0.2118782034
C   C21       1.0  0.72348  0.62268  0.93019  1.0000 -0.2418976557
C   C22       1.0  0.27652  0.12268  0.56981  1.0000 -0.2418976557
C   C23       1.0  0.27652  0.37732  0.06981  1.0000 -0.2418976557
C   C24       1.0  0.72348  0.87732  0.43019  1.0000 -0.2418976557
C   C25       1.0  0.78513  0.47490  0.02032  1.0000 0.0708988004
C   C26       1.0  0.21487  0.97490  0.47968  1.0000 0.0708988004
C   C27       1.0  0.21487  0.52510  0.97968  1.0000 0.0708988004
C   C28       1.0  0.78513  0.02510  0.52032  1.0000 0.0708988004
C   C29       1.0  0.76487  0.41623  0.93438  1.0000 -0.0516590458
C   C30       1.0  0.23513  0.91623  0.56562  1.0000 -0.0516590458
C   C31       1.0  0.23513  0.58377  0.06562  1.0000 -0.0516590458
C   C32       1.0  0.76487  0.08377  0.43438  1.0000 -0.0516590458
C   C33       1.0  0.73139  0.47364  0.91707  1.0000 -0.07886629
C   C34       1.0  0.26861  0.97364  0.58293  1.0000 -0.07886629
C   C35       1.0  0.26861  0.52636  0.08293  1.0000 -0.07886629
C   C36       1.0  0.73139  0.02636  0.41707  1.0000 -0.07886629
C   C37       1.0  0.63148  0.63740  0.11660  1.0000 0.0708988004
C   C38       1.0  0.36852  0.13740  0.38340  1.0000 0.0708988004
C   C39       1.0  0.36852  0.36260  0.88340  1.0000 0.0708988004
C   C40       1.0  0.63148  0.86260  0.61660  1.0000 0.0708988004
C   C41       1.0  0.63509  0.73719  0.15576  1.0000 -0.0288043509
C   C42       1.0  0.36491  0.23719  0.34424  1.0000 -0.0288043509
C   C43       1.0  0.36491  0.26281  0.84424  1.0000 -0.0288043509
C   C44       1.0  0.63509  0.76281  0.65576  1.0000 -0.0288043509
C   C45       1.0  0.65737  0.74208  0.10568  1.0000 -0.0703251679
C   C46       1.0  0.34263  0.24208  0.39432  1.0000 -0.0703251679
C   C47       1.0  0.34263  0.25792  0.89432  1.0000 -0.0703251679
C   C48       1.0  0.65737  0.75792  0.60568  1.0000 -0.0703251679
C   C49       1.0  0.65001  0.77364  0.85500  1.0000 0.1282436004
C   C50       1.0  0.34999  0.27364  0.64500  1.0000 0.1282436004
C   C51       1.0  0.34999  0.22636  0.14500  1.0000 0.1282436004
C   C52       1.0  0.65001  0.72636  0.35500  1.0000 0.1282436004
C   C53       1.0  0.72482  0.78744  0.81042  1.0000 -0.0430399869
C   C54       1.0  0.27518  0.28744  0.68958  1.0000 -0.0430399869
C   C55       1.0  0.27518  0.21256  0.18958  1.0000 -0.0430399869
C   C56       1.0  0.72482  0.71256  0.31042  1.0000 -0.0430399869
C   C57       1.0  0.74894  0.74183  0.85726  1.0000 -0.1014995333
C   C58       1.0  0.25106  0.24183  0.64274  1.0000 -0.1014995333
C   C59       1.0  0.25106  0.25817  0.14274  1.0000 -0.1014995333
C   C60       1.0  0.74894  0.75817  0.35726  1.0000 -0.1014995333
C   C61       1.0  0.95444  0.35632  0.85508  1.0000 0.2118782034
C   C62       1.0  0.04556  0.85632  0.64492  1.0000 0.2118782034
C   C63       1.0  0.04556  0.64368  0.14492  1.0000 0.2118782034
C   C64       1.0  0.95444  0.14368  0.35508  1.0000 0.2118782034
C   C65       1.0  0.98445  0.41846  0.86515  1.0000 -0.2648055126
C   C66       1.0  0.01555  0.91846  0.63485  1.0000 -0.2648055126
C   C67       1.0  0.01555  0.58154  0.13485  1.0000 -0.2717200156
C   C68       1.0  0.98445  0.08154  0.36515  1.0000 -0.2648055126
C   C69       1.0  0.00648  0.44509  0.81784  1.0000 0.2118782034
C   C70       1.0  0.99352  0.94509  0.68216  1.0000 0.2118782034
C   C71       1.0  0.99352  0.55491  0.18216  1.0000 0.2118782034
C   C72       1.0  0.00648  0.05491  0.31784  1.0000 0.2118782034
C   C73       1.0  0.99988  0.41029  0.76177  1.0000 -0.2917971992
C   C74       1.0  0.00012  0.91029  0.73823  1.0000 -0.2917971992
C   C75       1.0  0.00012  0.58971  0.23823  1.0000 -0.2917971992
C   C76       1.0  0.99988  0.08971  0.26177  1.0000 -0.2917971992
C   C77       1.0  0.96931  0.34951  0.75305  1.0000 0.201636726
C   C78       1.0  0.03069  0.84951  0.74695  1.0000 0.201636726
C   C79       1.0  0.03069  0.65049  0.24695  1.0000 0.201636726
C   C80       1.0  0.96931  0.15049  0.25305  1.0000 0.201636726
C   C81       1.0  0.94650  0.32059  0.79944  1.0000 -0.2917971992
C   C82       1.0  0.05350  0.82059  0.70056  1.0000 -0.2917971992
C   C83       1.0  0.05350  0.67941  0.20056  1.0000 -0.2917971992
C   C84       1.0  0.94650  0.17941  0.29944  1.0000 -0.2917971992
C   C85       1.0  0.90895  0.35824  0.94466  1.0000 0.101052215
C   C86       1.0  0.09105  0.85824  0.55534  1.0000 0.101052215
C   C87       1.0  0.09105  0.64176  0.05534  1.0000 0.101052215
C   C88       1.0  0.90895  0.14176  0.44466  1.0000 0.101052215
C   C89       1.0  0.91087  0.25239  0.96536  1.0000 -0.0516590458
C   C90       1.0  0.08913  0.75239  0.53464  1.0000 -0.0516590458
C   C91       1.0  0.08913  0.74761  0.03464  1.0000 -0.0516590458
C   C92       1.0  0.91087  0.24761  0.46536  1.0000 -0.0516590458
C   C93       1.0  0.93570  0.25944  0.91728  1.0000 -0.1175889094
C   C94       1.0  0.06430  0.75944  0.58272  1.0000 -0.1175889094
C   C95       1.0  0.06430  0.74056  0.08272  1.0000 -0.1175889094
C   C96       1.0  0.93570  0.24056  0.41728  1.0000 -0.1175889094
C   C97       1.0  0.06775  0.53908  0.88398  1.0000 0.09226338
C   C98       1.0  0.93225  0.03908  0.61602  1.0000 0.09226338
C   C99       1.0  0.93225  0.46092  0.11602  1.0000 0.09226338
C   C100      1.0  0.06775  0.96092  0.38398  1.0000 0.09226338
C   C101      1.0  0.07911  0.60325  0.80979  1.0000 -0.0703251679
C   C102      1.0  0.92089  0.10325  0.69021  1.0000 -0.0703251679
C   C103      1.0  0.92089  0.39675  0.19021  1.0000 -0.0703251679
C   C104      1.0  0.07911  0.89675  0.30979  1.0000 -0.0703251679
C   C105      1.0  0.04519  0.55004  0.77981  1.0000 -0.114220379
C   C106      1.0  0.95481  0.05004  0.72019  1.0000 -0.114220379
C   C107      1.0  0.95481  0.44996  0.22019  1.0000 -0.114220379
C   C108      1.0  0.04519  0.94996  0.27981  1.0000 -0.114220379
C   C109      1.0  0.91052  0.27621  0.66203  1.0000 0.0482041941
C   C110      1.0  0.08948  0.77621  0.83797  1.0000 0.0482041941
C   C111      1.0  0.08948  0.72379  0.33797  1.0000 0.0482041941
C   C112      1.0  0.91052  0.22379  0.16203  1.0000 0.0482041941
C   C113      1.0  0.98448  0.26052  0.61822  1.0000 -0.0288043509
C   C114      1.0  0.01552  0.76052  0.88178  1.0000 -0.0288043509
C   C115      1.0  0.01552  0.73948  0.38178  1.0000 -0.0288043509
C   C116      1.0  0.98448  0.23948  0.11822  1.0000 -0.0288043509
C   C117      1.0  0.01049  0.30219  0.66835  1.0000 -0.1382426043
C   C118      1.0  0.98951  0.80219  0.83165  1.0000 -0.1382426043
C   C119      1.0  0.98951  0.69781  0.33165  1.0000 -0.1382426043
C   C120      1.0  0.01049  0.19781  0.16835  1.0000 -0.1382426043
C   C121      1.0  0.67214  0.29784  0.16483  1.0000 0.201636726
C   C122      1.0  0.32786  0.79784  0.33517  1.0000 0.201636726
C   C123      1.0  0.32786  0.70216  0.83517  1.0000 0.201636726
C   C124      1.0  0.67214  0.20216  0.66483  1.0000 0.201636726
C   C125      1.0  0.63970  0.24429  0.18095  1.0000 -0.2536059823
C   C126      1.0  0.36030  0.74429  0.31905  1.0000 -0.2536059823
C   C127      1.0  0.36030  0.75571  0.81905  1.0000 -0.2536059823
C   C128      1.0  0.63970  0.25571  0.68095  1.0000 -0.2536059823
C   C129      1.0  0.60532  0.25663  0.22346  1.0000 0.2291721682
C   C130      1.0  0.39468  0.75663  0.27654  1.0000 0.2291721682
C   C131      1.0  0.39468  0.74337  0.77654  1.0000 0.2291721682
C   C132      1.0  0.60532  0.24337  0.72346  1.0000 0.2291721682
C   C133      1.0  0.60439  0.31914  0.25029  1.0000 -0.2536059823
C   C134      1.0  0.39561  0.81914  0.24971  1.0000 -0.2536059823
C   C135      1.0  0.39561  0.68086  0.74971  1.0000 -0.2536059823
C   C136      1.0  0.60439  0.18086  0.75029  1.0000 -0.2536059823
C   C137      1.0  0.63759  0.37082  0.23213  1.0000 0.201636726
C   C138      1.0  0.36241  0.87082  0.26787  1.0000 0.201636726
C   C139      1.0  0.36241  0.62918  0.76787  1.0000 0.201636726
C   C140      1.0  0.63759  0.12918  0.73213  1.0000 0.201636726
C   C141      1.0  0.67151  0.36145  0.18965  1.0000 -0.3103881647
C   C142      1.0  0.32849  0.86145  0.31035  1.0000 -0.3103881647
C   C143      1.0  0.32849  0.63855  0.81035  1.0000 -0.3103881647
C   C144      1.0  0.67151  0.13855  0.68965  1.0000 -0.3103881647
C   C145      1.0  0.76003  0.32173  0.11928  1.0000 0.0482041941
C   C146      1.0  0.23997  0.82173  0.38072  1.0000 0.0445322673
C   C147      1.0  0.23997  0.67827  0.88072  1.0000 0.0445322673
C   C148      1.0  0.76003  0.17827  0.61928  1.0000 0.0482041941
C   C149      1.0  0.73938  0.24748  0.04443  1.0000 -0.0616311376
C   C150      1.0  0.26062  0.74748  0.45557  1.0000 -0.0616311376
C   C151      1.0  0.26062  0.75252  0.95557  1.0000 -0.0616311376
C   C152      1.0  0.73938  0.25252  0.54443  1.0000 -0.0616311376
C   C153      1.0  0.69370  0.23963  0.07237  1.0000 -0.1014995333
C   C154      1.0  0.30630  0.73963  0.42763  1.0000 -0.1014995333
C   C155      1.0  0.30630  0.76037  0.92763  1.0000 -0.1014995333
C   C156      1.0  0.69370  0.26037  0.57237  1.0000 -0.1014995333
C   C157      1.0  0.50958  0.21190  0.24493  1.0000 0.1105067424
C   C158      1.0  0.49042  0.71190  0.25507  1.0000 0.1105067424
C   C159      1.0  0.49042  0.78810  0.75507  1.0000 0.1105067424
C   C160      1.0  0.50958  0.28810  0.74493  1.0000 0.1105067424
C   C161      1.0  0.53624  0.10718  0.26179  1.0000 -0.0167740351
C   C162      1.0  0.46376  0.60718  0.23821  1.0000 -0.0167740351
C   C163      1.0  0.46376  0.89282  0.73821  1.0000 -0.0167740351
C   C164      1.0  0.53624  0.39282  0.76179  1.0000 -0.0167740351
C   C165      1.0  0.58688  0.13785  0.25102  1.0000 -0.0907663946
C   C166      1.0  0.41312  0.63785  0.24898  1.0000 -0.0907663946
C   C167      1.0  0.41312  0.86215  0.74898  1.0000 -0.0907663946
C   C168      1.0  0.58688  0.36215  0.75102  1.0000 -0.0907663946
C   C169      1.0  0.62558  0.49235  0.22482  1.0000 0.0708988004
C   C170      1.0  0.37442  0.99235  0.27518  1.0000 0.0708988004
C   C171      1.0  0.37442  0.50765  0.77518  1.0000 0.0708988004
C   C172      1.0  0.62558  0.00765  0.72482  1.0000 0.0708988004
C   C173      1.0  0.62463  0.51654  0.32008  1.0000 -0.0059645408
C   C174      1.0  0.37537  0.01654  0.17992  1.0000 -0.0059645408
C   C175      1.0  0.37537  0.48346  0.67992  1.0000 -0.0059645408
C   C176      1.0  0.62463  0.98346  0.82008  1.0000 -0.0059645408
C   C177      1.0  0.63500  0.44991  0.31862  1.0000 -0.0703251679
C   C178      1.0  0.36500  0.94991  0.18138  1.0000 -0.0703251679
C   C179      1.0  0.36500  0.55009  0.68138  1.0000 -0.0703251679
C   C180      1.0  0.63500  0.05009  0.81862  1.0000 -0.0703251679
N   N1        1.0  0.79943  0.41698  0.99899  1.0000 -0.2986537744
N   N2        1.0  0.20057  0.91698  0.50101  1.0000 -0.2986537744
N   N3        1.0  0.20057  0.58302  0.00101  1.0000 -0.2986537744
N   N4        1.0  0.79943  0.08302  0.49899  1.0000 -0.2986537744
N   N5        1.0  0.74422  0.51096  0.97201  1.0000 0.0085532055
N   N6        1.0  0.25578  0.01096  0.52799  1.0000 0.0085532055
N   N7        1.0  0.25578  0.48904  0.02799  1.0000 0.0085532055
N   N8        1.0  0.74422  0.98904  0.47201  1.0000 0.0085532055
N   N9        1.0  0.61879  0.67060  0.16263  1.0000 -0.2796677407
N   N10       1.0  0.38121  0.17060  0.33737  1.0000 -0.2796677407
N   N11       1.0  0.38121  0.32940  0.83737  1.0000 -0.2796677407
N   N12       1.0  0.61879  0.82940  0.66263  1.0000 -0.2796677407
N   N13       1.0  0.65551  0.67832  0.08112  1.0000 0.0085532055
N   N14       1.0  0.34449  0.17832  0.41888  1.0000 0.0085532055
N   N15       1.0  0.34449  0.32168  0.91888  1.0000 0.0085532055
N   N16       1.0  0.65551  0.82168  0.58112  1.0000 0.0085532055
N   N17       1.0  0.66327  0.80720  0.80935  1.0000 -0.2917971992
N   N18       1.0  0.33673  0.30720  0.69065  1.0000 -0.2917971992
N   N19       1.0  0.33673  0.19280  0.19065  1.0000 -0.2917971992
N   N20       1.0  0.66327  0.69280  0.30935  1.0000 -0.2917971992
N   N21       1.0  0.70039  0.73323  0.88585  1.0000 0.0085532055
N   N22       1.0  0.29961  0.23323  0.61415  1.0000 0.0085532055
N   N23       1.0  0.29961  0.26677  0.11415  1.0000 0.0085532055
N   N24       1.0  0.70039  0.76677  0.38585  1.0000 0.0085532055
N   N25       1.0  0.89325  0.31461  0.98258  1.0000 -0.2796677407
N   N26       1.0  0.10675  0.81461  0.51742  1.0000 -0.2796677407
N   N27       1.0  0.10675  0.68539  0.01742  1.0000 -0.2796677407
N   N28       1.0  0.89325  0.18539  0.48258  1.0000 -0.2796677407
N   N29       1.0  0.93397  0.32628  0.90372  1.0000 0.0085532055
N   N30       1.0  0.06603  0.82628  0.59628  1.0000 0.0085532055
N   N31       1.0  0.06603  0.67372  0.09628  1.0000 0.0085532055
N   N32       1.0  0.93397  0.17372  0.40372  1.0000 0.0085532055
N   N33       1.0  0.09299  0.59614  0.87536  1.0000 -0.2796677407
N   N34       1.0  0.90701  0.09614  0.62464  1.0000 -0.2796677407
N   N35       1.0  0.90701  0.40386  0.12464  1.0000 -0.2796677407
N   N36       1.0  0.09299  0.90386  0.37536  1.0000 -0.2796677407
N   N37       1.0  0.03766  0.50892  0.82685  1.0000 0.0085532055
N   N38       1.0  0.96234  0.00892  0.67315  1.0000 0.0085532055
N   N39       1.0  0.96234  0.49108  0.17315  1.0000 0.0085532055
N   N40       1.0  0.03766  0.99108  0.32685  1.0000 0.0085532055
N   N41       1.0  0.92239  0.24387  0.61439  1.0000 -0.2717200156
N   N42       1.0  0.07761  0.74387  0.88561  1.0000 -0.2717200156
N   N43       1.0  0.07761  0.75613  0.38561  1.0000 -0.2717200156
N   N44       1.0  0.92239  0.25613  0.11439  1.0000 -0.2717200156
N   N45       1.0  0.96266  0.31226  0.69574  1.0000 0.0031578363
N   N46       1.0  0.03734  0.81226  0.80426  1.0000 0.0031578363
N   N47       1.0  0.03734  0.68774  0.30426  1.0000 0.0031578363
N   N48       1.0  0.96266  0.18774  0.19574  1.0000 0.0031578363
N   N49       1.0  0.78142  0.29873  0.07384  1.0000 -0.2717200156
N   N50       1.0  0.21858  0.79873  0.42616  1.0000 -0.2717200156
N   N51       1.0  0.21858  0.70127  0.92616  1.0000 -0.2717200156
N   N52       1.0  0.78142  0.20127  0.57384  1.0000 -0.2717200156
N   N53       1.0  0.70640  0.28699  0.12049  1.0000 0.0085532055
N   N54       1.0  0.29360  0.78699  0.37951  1.0000 0.0085532055
N   N55       1.0  0.29360  0.71301  0.87951  1.0000 0.0085532055
N   N56       1.0  0.70640  0.21301  0.62049  1.0000 0.0085532055
N   N57       1.0  0.48757  0.15390  0.25827  1.0000 -0.2917971992
N   N58       1.0  0.51243  0.65390  0.24173  1.0000 -0.2917971992
N   N59       1.0  0.51243  0.84610  0.74173  1.0000 -0.2986537744
N   N60       1.0  0.48757  0.34610  0.75827  1.0000 -0.2986537744
N   N61       1.0  0.56988  0.20395  0.24026  1.0000 0.0085532055
N   N62       1.0  0.43012  0.70395  0.25974  1.0000 0.0085532055
N   N63       1.0  0.43012  0.79605  0.75974  1.0000 0.0085532055
N   N64       1.0  0.56988  0.29605  0.74026  1.0000 0.0085532055
N   N65       1.0  0.61958  0.54314  0.26137  1.0000 -0.2796677407
N   N66       1.0  0.38042  0.04314  0.23863  1.0000 -0.2796677407
N   N67       1.0  0.38042  0.45686  0.73863  1.0000 -0.2796677407
N   N68       1.0  0.61958  0.95686  0.76137  1.0000 -0.2796677407
N   N69       1.0  0.63517  0.43570  0.25828  1.0000 0.0085532055
N   N70       1.0  0.36483  0.93570  0.24172  1.0000 0.0085532055
N   N71       1.0  0.36483  0.56430  0.74172  1.0000 0.0085532055
N   N72       1.0  0.63517  0.06430  0.75828  1.0000 0.0085532055
Cl  Cl1       1.0  0.90984  0.90651  0.44311  1.0000 1.1244452428
Cl  Cl2       1.0  0.09016  0.40651  0.05689  1.0000 1.1244452428
Cl  Cl3       1.0  0.09016  0.09349  0.55689  1.0000 1.1252071093
Cl  Cl4       1.0  0.90984  0.59349  0.94311  1.0000 1.1252071093
Cl  Cl5       1.0  0.47817  0.33437  0.56599  1.0000 1.2537775468
Cl  Cl6       1.0  0.52183  0.83437  0.93401  1.0000 1.2537775468
Cl  Cl7       1.0  0.52183  0.66563  0.43401  1.0000 1.2537775468
Cl  Cl8       1.0  0.47817  0.16563  0.06599  1.0000 1.2537775468
Cl  Cl9       1.0  0.42721  0.10276  0.71839  1.0000 1.2585632931
Cl  Cl10      1.0  0.57279  0.60276  0.78161  1.0000 1.2585632931
Cl  Cl11      1.0  0.57279  0.89724  0.28161  1.0000 1.2585632931
Cl  Cl12      1.0  0.42721  0.39724  0.21839  1.0000 1.2585632931
O   O1        1.0  0.85797  0.88160  0.39187  1.0000 -0.4917064567
O   O2        1.0  0.94710  0.85590  0.47530  1.0000 -0.4228984882
O   O3        1.0  0.89030  0.94560  0.47850  1.0000 -0.3992137779
O   O4        1.0  0.95390  0.93800  0.42780  1.0000 -0.3740720023
O   O5        1.0  0.14203  0.38160  0.10813  1.0000 -0.4917064567
O   O6        1.0  0.05290  0.35590  0.02470  1.0000 -0.4228984882
O   O7        1.0  0.10970  0.44560  0.02150  1.0000 -0.3992137779
O   O8        1.0  0.04610  0.43800  0.07220  1.0000 -0.3740720023
O   O9        1.0  0.14203  0.11840  0.60813  1.0000 -0.4917064567
O   O10       1.0  0.05290  0.14410  0.52470  1.0000 -0.4228984882
O   O11       1.0  0.10970  0.05440  0.52150  1.0000 -0.3992137779
O   O12       1.0  0.04610  0.06200  0.57220  1.0000 -0.3740720023
O   O13       1.0  0.85797  0.61840  0.89187  1.0000 -0.4917064567
O   O14       1.0  0.94710  0.64410  0.97530  1.0000 -0.4228984882
O   O15       1.0  0.89030  0.55440  0.97850  1.0000 -0.3992137779
O   O16       1.0  0.95390  0.56200  0.92780  1.0000 -0.3740720023
O   O17       1.0  0.43670  0.32950  0.50162  1.0000 -0.4996200372
O   O18       1.0  0.45380  0.38138  0.59990  1.0000 -0.4917064567
O   O19       1.0  0.47954  0.27091  0.59728  1.0000 -0.5344168712
O   O20       1.0  0.54243  0.35316  0.56825  1.0000 -0.5136003662
O   O21       1.0  0.56330  0.82950  0.99838  1.0000 -0.4996200372
O   O22       1.0  0.54620  0.88138  0.90010  1.0000 -0.4917064567
O   O23       1.0  0.52046  0.77091  0.90272  1.0000 -0.5344168712
O   O24       1.0  0.45757  0.85316  0.93175  1.0000 -0.5136003662
O   O25       1.0  0.56330  0.67050  0.49838  1.0000 -0.4996200372
O   O26       1.0  0.54620  0.61862  0.40010  1.0000 -0.4917064567
O   O27       1.0  0.52046  0.72909  0.40272  1.0000 -0.5344168712
O   O28       1.0  0.45757  0.64684  0.43175  1.0000 -0.5136003662
O   O29       1.0  0.43670  0.17050  0.00162  1.0000 -0.4996200372
O   O30       1.0  0.45380  0.11862  0.09990  1.0000 -0.4917064567
O   O31       1.0  0.47954  0.22909  0.09728  1.0000 -0.5344168712
O   O32       1.0  0.54243  0.14684  0.06825  1.0000 -0.5136003662
O   O33       1.0  0.43721  0.14713  0.67141  1.0000 -0.5160216261
O   O34       1.0  0.39990  0.14189  0.75730  1.0000 -0.4917064567
O   O35       1.0  0.48751  0.07555  0.75725  1.0000 -0.4917064567
O   O36       1.0  0.38478  0.04974  0.68956  1.0000 -0.4917064567
O   O37       1.0  0.56279  0.64713  0.82859  1.0000 -0.5160216261
O   O38       1.0  0.60010  0.64189  0.74270  1.0000 -0.4917064567
O   O39       1.0  0.51249  0.57555  0.74275  1.0000 -0.4917064567
O   O40       1.0  0.61522  0.54974  0.81044  1.0000 -0.4917064567
O   O41       1.0  0.56279  0.85287  0.32859  1.0000 -0.5160216261
O   O42       1.0  0.60010  0.85811  0.24270  1.0000 -0.4917064567
O   O43       1.0  0.51249  0.92445  0.24275  1.0000 -0.4917064567
O   O44       1.0  0.61522  0.95026  0.31044  1.0000 -0.4917064567
O   O45       1.0  0.43721  0.35287  0.17141  1.0000 -0.5160216261
O   O46       1.0  0.39990  0.35811  0.25730  1.0000 -0.4917064567
O   O47       1.0  0.48751  0.42445  0.25725  1.0000 -0.4917064567
O   O48       1.0  0.38478  0.45026  0.18956  1.0000 -0.4917064567
