# DDEC6 charges by PACMAN v1.1 (https://github.com/mtap-research/PACMAN-charge/)
data_2013[Zn][nan]3[ION]1
_chemical_formula_sum              "Zn4 H52 C44 N14 O16"
_cell_length_a       13.2517
_cell_length_b       13.2517
_cell_length_c       13.139
_cell_angle_alpha    65.9791
_cell_angle_beta     114.021
_cell_angle_gamma    83.9407

_symmetry_space_group_name_H-M    "P 1"
_symmetry_Int_Tables_number       1

loop_
  _symmetry_equiv_pos_as_xyz
  'x, y, z'

loop_
  _atom_site_type_symbol
  _atom_site_label
  _atom_site_symmetry_multiplicity
  _atom_site_fract_x
  _atom_site_fract_y
  _atom_site_fract_z
  _atom_site_occupancy
  _atom_site_charge
Zn  Zn1       1.0  0.09563  0.90437  0.63138  1.0000 0.8697181395
Zn  Zn2       1.0  0.90437  0.09563  0.36862  1.0000 0.8697181395
Zn  Zn3       1.0  0.59148  0.59148  0.00000  1.0000 0.7839080743
Zn  Zn4       1.0  0.40852  0.40852  0.00000  1.0000 0.7839080743
H   H1        1.0  0.45680  0.84740  0.84690  1.0000 0.3100170644
H   H2        1.0  0.84740  0.45680  0.15310  1.0000 0.3049491099
H   H3        1.0  0.54320  0.15260  0.15310  1.0000 0.3049491099
H   H4        1.0  0.15260  0.54320  0.84690  1.0000 0.3100170644
H   H5        1.0  0.33280  0.92460  0.75790  1.0000 0.3100170644
H   H6        1.0  0.92460  0.33280  0.24210  1.0000 0.3100170644
H   H7        1.0  0.66720  0.07540  0.24210  1.0000 0.3100170644
H   H8        1.0  0.07540  0.66720  0.75790  1.0000 0.3100170644
H   H9        1.0  0.95310  0.35930  0.45470  1.0000 0.1124325781
H   H10       1.0  0.35930  0.95310  0.54530  1.0000 0.1124325781
H   H11       1.0  0.04690  0.64070  0.54530  1.0000 0.1124325781
H   H12       1.0  0.64070  0.04690  0.45470  1.0000 0.1124325781
H   H13       1.0  0.15220  0.47300  0.67750  1.0000 0.1124325781
H   H14       1.0  0.47300  0.15220  0.32250  1.0000 0.1124325781
H   H15       1.0  0.84780  0.52700  0.32250  1.0000 0.1124325781
H   H16       1.0  0.52700  0.84780  0.67750  1.0000 0.1124325781
H   H17       1.0  0.23130  0.13010  0.79780  1.0000 0.1124325781
H   H18       1.0  0.13010  0.23130  0.20220  1.0000 0.1124325781
H   H19       1.0  0.76870  0.86990  0.20220  1.0000 0.1124325781
H   H20       1.0  0.86990  0.76870  0.79780  1.0000 0.1124325781
H   H21       1.0  0.26790  0.48710  0.28210  1.0000 0.2403974733
H   H22       1.0  0.17800  0.59320  0.25990  1.0000 0.2403974733
H   H23       1.0  0.17950  0.64910  0.05880  1.0000 0.1277477494
H   H24       1.0  0.05650  0.63870  0.03710  1.0000 0.1390978919
H   H25       1.0  0.15010  0.53730  0.05970  1.0000 0.1390978919
H   H26       1.0  0.12310  0.43170  0.32990  1.0000 0.1234876863
H   H27       1.0  0.12500  0.40860  0.22270  1.0000 0.1277477494
H   H28       1.0  0.03010  0.51790  0.18550  1.0000 0.1390978919
H   H29       1.0  0.48710  0.26790  0.71790  1.0000 0.2403974733
H   H30       1.0  0.59320  0.17800  0.74010  1.0000 0.2403974733
H   H31       1.0  0.64910  0.17950  0.94120  1.0000 0.1277477494
H   H32       1.0  0.63870  0.05650  0.96290  1.0000 0.1390978919
H   H33       1.0  0.53730  0.15010  0.94030  1.0000 0.1390978919
H   H34       1.0  0.43170  0.12310  0.67010  1.0000 0.1234876863
H   H35       1.0  0.40860  0.12500  0.77730  1.0000 0.1277477494
H   H36       1.0  0.51790  0.03010  0.81450  1.0000 0.1390978919
H   H37       1.0  0.73210  0.51290  0.71790  1.0000 0.2403974733
H   H38       1.0  0.82200  0.40680  0.74010  1.0000 0.2403974733
H   H39       1.0  0.82050  0.35090  0.94120  1.0000 0.1277477494
H   H40       1.0  0.94350  0.36130  0.96290  1.0000 0.1390978919
H   H41       1.0  0.84990  0.46270  0.94030  1.0000 0.1390978919
H   H42       1.0  0.87690  0.56830  0.67010  1.0000 0.1234876863
H   H43       1.0  0.87500  0.59140  0.77730  1.0000 0.1277477494
H   H44       1.0  0.96990  0.48210  0.81450  1.0000 0.1390978919
H   H45       1.0  0.51290  0.73210  0.28210  1.0000 0.2403974733
H   H46       1.0  0.40680  0.82200  0.25990  1.0000 0.2403974733
H   H47       1.0  0.35090  0.82050  0.05880  1.0000 0.1277477494
H   H48       1.0  0.36130  0.94350  0.03710  1.0000 0.1390978919
H   H49       1.0  0.46270  0.84990  0.05970  1.0000 0.1390978919
H   H50       1.0  0.56830  0.87690  0.32990  1.0000 0.1234876863
H   H51       1.0  0.59140  0.87500  0.22270  1.0000 0.1277477494
H   H52       1.0  0.48210  0.96990  0.18550  1.0000 0.1390978919
C   C1        1.0  0.05987  0.13467  0.59360  1.0000 0.5729229502
C   C2        1.0  0.13467  0.05987  0.40640  1.0000 0.5729229502
C   C3        1.0  0.94013  0.86533  0.40640  1.0000 0.5729229502
C   C4        1.0  0.86533  0.94013  0.59360  1.0000 0.5729229502
C   C5        1.0  0.08859  0.23039  0.62220  1.0000 -0.0144582312
C   C6        1.0  0.23039  0.08859  0.37780  1.0000 -0.0144582312
C   C7        1.0  0.91141  0.76961  0.37780  1.0000 -0.0144582312
C   C8        1.0  0.76961  0.91141  0.62220  1.0000 -0.0144582312
C   C9        1.0  0.01677  0.34497  0.53030  1.0000 -0.1702044034
C   C10       1.0  0.34497  0.01677  0.46970  1.0000 -0.1702044034
C   C11       1.0  0.98323  0.65503  0.46970  1.0000 -0.1702044034
C   C12       1.0  0.65503  0.98323  0.53030  1.0000 -0.1702044034
C   C13       1.0  0.03810  0.43870  0.54890  1.0000 0.0590016595
C   C14       1.0  0.43870  0.03810  0.45110  1.0000 0.0590016595
C   C15       1.0  0.96190  0.56130  0.45110  1.0000 0.0590016595
C   C16       1.0  0.56130  0.96190  0.54890  1.0000 0.0590016595
C   C17       1.0  0.13540  0.41220  0.66280  1.0000 -0.1702044034
C   C18       1.0  0.41220  0.13540  0.33720  1.0000 -0.1702044034
C   C19       1.0  0.86460  0.58780  0.33720  1.0000 -0.1702044034
C   C20       1.0  0.58780  0.86460  0.66280  1.0000 -0.1702044034
C   C21       1.0  0.20860  0.29920  0.75500  1.0000 -0.0231353571
C   C22       1.0  0.29920  0.20860  0.24500  1.0000 -0.0231353571
C   C23       1.0  0.79140  0.70080  0.24500  1.0000 -0.0231353571
C   C24       1.0  0.70080  0.79140  0.75500  1.0000 -0.0231353571
C   C25       1.0  0.18410  0.20670  0.73550  1.0000 -0.1539788269
C   C26       1.0  0.20670  0.18410  0.26450  1.0000 -0.1539788269
C   C27       1.0  0.81590  0.79330  0.26450  1.0000 -0.1539788269
C   C28       1.0  0.79330  0.81590  0.73550  1.0000 -0.1539788269
C   C29       1.0  0.31240  0.28080  0.87380  1.0000 0.5474173031
C   C30       1.0  0.28080  0.31240  0.12620  1.0000 0.5474173031
C   C31       1.0  0.68760  0.71920  0.12620  1.0000 0.5474173031
C   C32       1.0  0.71920  0.68760  0.87380  1.0000 0.5474173031
C   C33       1.0  0.34764  0.76004  0.83670  1.0000 0.5078885011
C   C34       1.0  0.76004  0.34764  0.16330  1.0000 0.5078885011
C   C35       1.0  0.65236  0.23996  0.16330  1.0000 0.5078885011
C   C36       1.0  0.23996  0.65236  0.83670  1.0000 0.5078885011
C   C37       1.0  0.13840  0.59640  0.08200  1.0000 -0.3467499414
C   C38       1.0  0.10980  0.46780  0.24400  1.0000 -0.3137684115
C   C39       1.0  0.59640  0.13840  0.91800  1.0000 -0.3467499414
C   C40       1.0  0.46780  0.10980  0.75600  1.0000 -0.3137684115
C   C41       1.0  0.86160  0.40360  0.91800  1.0000 -0.3467499414
C   C42       1.0  0.89020  0.53220  0.75600  1.0000 -0.3137684115
C   C43       1.0  0.40360  0.86160  0.08200  1.0000 -0.3467499414
C   C44       1.0  0.53220  0.89020  0.24400  1.0000 -0.3137684115
N   N1        1.0  0.23440  0.76560  0.78270  1.0000 -0.5252558538
N   N2        1.0  0.76560  0.23440  0.21730  1.0000 -0.5252558538
N   N3        1.0  0.41953  0.65171  0.91620  1.0000 -0.3648878285
N   N4        1.0  0.65171  0.41953  0.08380  1.0000 -0.3648878285
N   N5        1.0  0.58047  0.34829  0.08380  1.0000 -0.3648878285
N   N6        1.0  0.34829  0.58047  0.91620  1.0000 -0.3648878285
N   N7        1.0  0.38348  0.85588  0.81060  1.0000 -0.6202897378
N   N8        1.0  0.85588  0.38348  0.18940  1.0000 -0.6202897378
N   N9        1.0  0.61652  0.14412  0.18940  1.0000 -0.6202897378
N   N10       1.0  0.14412  0.61652  0.81060  1.0000 -0.6202897378
N   N11       1.0  0.18640  0.53640  0.23300  1.0000 -0.1034613238
N   N12       1.0  0.53640  0.18640  0.76700  1.0000 -0.1034613238
N   N13       1.0  0.81360  0.46360  0.76700  1.0000 -0.1034613238
N   N14       1.0  0.46360  0.81360  0.23300  1.0000 -0.1034613238
O   O1        1.0  0.12192  0.03102  0.67880  1.0000 -0.5415529707
O   O2        1.0  0.03102  0.12192  0.32120  1.0000 -0.5415529707
O   O3        1.0  0.87808  0.96898  0.32120  1.0000 -0.5415529707
O   O4        1.0  0.96898  0.87808  0.67880  1.0000 -0.5415529707
O   O5        1.0  0.97733  0.16571  0.48520  1.0000 -0.5518825897
O   O6        1.0  0.16571  0.97733  0.51480  1.0000 -0.5518825897
O   O7        1.0  0.02267  0.83429  0.51480  1.0000 -0.5518825897
O   O8        1.0  0.83429  0.02267  0.48520  1.0000 -0.5518825897
O   O9        1.0  0.37304  0.18284  0.96650  1.0000 -0.5518825897
O   O10       1.0  0.18284  0.37304  0.03350  1.0000 -0.5518825897
O   O11       1.0  0.62696  0.81716  0.03350  1.0000 -0.5518825897
O   O12       1.0  0.81716  0.62696  0.96650  1.0000 -0.5518825897
O   O13       1.0  0.33210  0.37450  0.86440  1.0000 -0.5568286725
O   O14       1.0  0.37450  0.33210  0.13560  1.0000 -0.5568286725
O   O15       1.0  0.66790  0.62550  0.13560  1.0000 -0.5568286725
O   O16       1.0  0.62550  0.66790  0.86440  1.0000 -0.5568286725
