# DDEC6 charges by PACMAN v1.1 (https://github.com/mtap-research/PACMAN-charge/)
data_2013[Cu][dmc]3[ION]1
_chemical_formula_sum              "Cu8 H208 C220 N64 O128"
_cell_length_a       12.3299
_cell_length_b       22.7467
_cell_length_c       27.2258
_cell_angle_alpha    90
_cell_angle_beta     105.22
_cell_angle_gamma    90

_symmetry_space_group_name_H-M    "P 1"
_symmetry_Int_Tables_number       1

loop_
  _symmetry_equiv_pos_as_xyz
  'x, y, z'

loop_
  _atom_site_type_symbol
  _atom_site_label
  _atom_site_symmetry_multiplicity
  _atom_site_fract_x
  _atom_site_fract_y
  _atom_site_fract_z
  _atom_site_occupancy
  _atom_site_charge
Cu  Cu1       1.0  0.32539  0.85464  0.29368  1.0000 0.6303330555
Cu  Cu2       1.0  0.67461  0.35464  0.20632  1.0000 0.6303330555
Cu  Cu3       1.0  0.67461  0.14536  0.70632  1.0000 0.6303330555
Cu  Cu4       1.0  0.32539  0.64536  0.79368  1.0000 0.6303330555
Cu  Cu5       1.0  0.42833  0.83389  0.57838  1.0000 0.560277839
Cu  Cu6       1.0  0.57167  0.33389  0.92162  1.0000 0.560277839
Cu  Cu7       1.0  0.57167  0.16611  0.42162  1.0000 0.560277839
Cu  Cu8       1.0  0.42833  0.66611  0.07838  1.0000 0.560277839
H   H1        1.0  0.52340  0.92820  0.28640  1.0000 0.1023485352
H   H2        1.0  0.47660  0.42820  0.21360  1.0000 0.1023485352
H   H3        1.0  0.47660  0.07180  0.71360  1.0000 0.1023485352
H   H4        1.0  0.52340  0.57180  0.78640  1.0000 0.1023485352
H   H5        1.0  0.19630  0.95460  0.23600  1.0000 0.1095574893
H   H6        1.0  0.80370  0.45460  0.26400  1.0000 0.1095574893
H   H7        1.0  0.80370  0.04540  0.76400  1.0000 0.1023485352
H   H8        1.0  0.19630  0.54540  0.73600  1.0000 0.1023485352
H   H9        1.0  0.34540  0.94050  0.37660  1.0000 0.1023485352
H   H10       1.0  0.65460  0.44050  0.12340  1.0000 0.1023485352
H   H11       1.0  0.65460  0.05950  0.62340  1.0000 0.1023485352
H   H12       1.0  0.34540  0.55950  0.87660  1.0000 0.1023485352
H   H13       1.0  0.55080  0.81520  0.35730  1.0000 0.1095574893
H   H14       1.0  0.44920  0.31520  0.14270  1.0000 0.1095574893
H   H15       1.0  0.44920  0.18480  0.64270  1.0000 0.1095574893
H   H16       1.0  0.55080  0.68480  0.85730  1.0000 0.1095574893
H   H17       1.0  0.56140  0.01940  0.25880  1.0000 0.140154234
H   H18       1.0  0.43860  0.51940  0.24120  1.0000 0.140154234
H   H19       1.0  0.43860  0.98060  0.74120  1.0000 0.140154234
H   H20       1.0  0.56140  0.48060  0.75880  1.0000 0.140154234
H   H21       1.0  0.22650  0.04900  0.21050  1.0000 0.140154234
H   H22       1.0  0.77350  0.54900  0.28950  1.0000 0.140154234
H   H23       1.0  0.77350  0.95100  0.78950  1.0000 0.140154234
H   H24       1.0  0.22650  0.45100  0.71050  1.0000 0.140154234
H   H25       1.0  0.46950  0.96900  0.45180  1.0000 0.1325709927
H   H26       1.0  0.53050  0.46900  0.04820  1.0000 0.1325709927
H   H27       1.0  0.53050  0.03100  0.54820  1.0000 0.1325709927
H   H28       1.0  0.46950  0.53100  0.95180  1.0000 0.1325709927
H   H29       1.0  0.68660  0.84360  0.43080  1.0000 0.140154234
H   H30       1.0  0.31340  0.34360  0.06920  1.0000 0.1454060271
H   H31       1.0  0.31340  0.15640  0.56920  1.0000 0.140154234
H   H32       1.0  0.68660  0.65640  0.93080  1.0000 0.140154234
H   H33       1.0  0.37490  0.22080  0.21340  1.0000 0.1023485352
H   H34       1.0  0.62510  0.72080  0.28660  1.0000 0.1023485352
H   H35       1.0  0.62510  0.77920  0.78660  1.0000 0.1023485352
H   H36       1.0  0.37490  0.27920  0.71340  1.0000 0.1023485352
H   H37       1.0  0.39520  0.19570  0.16130  1.0000 0.1023485352
H   H38       1.0  0.60480  0.69570  0.33870  1.0000 0.1023485352
H   H39       1.0  0.60480  0.80430  0.83870  1.0000 0.1023485352
H   H40       1.0  0.39520  0.30430  0.66130  1.0000 0.1023485352
H   H41       1.0  0.84500  0.97690  0.55140  1.0000 0.1023485352
H   H42       1.0  0.15500  0.47690  0.94860  1.0000 0.1023485352
H   H43       1.0  0.15500  0.02310  0.44860  1.0000 0.1023485352
H   H44       1.0  0.84500  0.52310  0.05140  1.0000 0.1023485352
H   H45       1.0  0.82780  0.91820  0.58140  1.0000 0.092408859
H   H46       1.0  0.17220  0.41820  0.91860  1.0000 0.092408859
H   H47       1.0  0.17220  0.08180  0.41860  1.0000 0.092408859
H   H48       1.0  0.82780  0.58180  0.08140  1.0000 0.092408859
H   H49       1.0  0.23390  0.25860  0.14710  1.0000 0.1095574893
H   H50       1.0  0.76610  0.75860  0.35290  1.0000 0.1095574893
H   H51       1.0  0.76610  0.74140  0.85290  1.0000 0.1095574893
H   H52       1.0  0.23390  0.24140  0.64710  1.0000 0.1095574893
H   H53       1.0  0.17740  0.21230  0.17710  1.0000 0.1181632448
H   H54       1.0  0.82260  0.71230  0.32290  1.0000 0.1181632448
H   H55       1.0  0.82260  0.78770  0.82290  1.0000 0.1181632448
H   H56       1.0  0.17740  0.28770  0.67710  1.0000 0.1181632448
H   H57       1.0  0.99030  0.93170  0.52360  1.0000 0.1181632448
H   H58       1.0  0.00970  0.43170  0.97640  1.0000 0.1181632448
H   H59       1.0  0.00970  0.06830  0.47640  1.0000 0.1181632448
H   H60       1.0  0.99030  0.56830  0.02360  1.0000 0.1181632448
H   H61       1.0  0.96980  0.87070  0.54970  1.0000 0.1095574893
H   H62       1.0  0.03020  0.37070  0.95030  1.0000 0.1095574893
H   H63       1.0  0.03020  0.12930  0.45030  1.0000 0.1095574893
H   H64       1.0  0.96980  0.62930  0.04970  1.0000 0.1095574893
H   H65       1.0  0.98620  0.03690  0.03600  1.0000 0.1181632448
H   H66       1.0  0.01380  0.53690  0.46400  1.0000 0.1181632448
H   H67       1.0  0.01380  0.96310  0.96400  1.0000 0.1181632448
H   H68       1.0  0.98620  0.46310  0.53600  1.0000 0.1181632448
H   H69       1.0  0.96580  0.05970  0.08850  1.0000 0.1181632448
H   H70       1.0  0.03420  0.55970  0.41150  1.0000 0.1181632448
H   H71       1.0  0.03420  0.94030  0.91150  1.0000 0.1181632448
H   H72       1.0  0.96580  0.44030  0.58850  1.0000 0.1181632448
H   H73       1.0  0.33273  0.17470  0.99940  1.0000 0.1181632448
H   H74       1.0  0.66727  0.67470  0.50060  1.0000 0.1181632448
H   H75       1.0  0.66727  0.82530  0.00060  1.0000 0.1181632448
H   H76       1.0  0.33273  0.32530  0.49940  1.0000 0.1181632448
H   H77       1.0  0.23260  0.14140  0.95990  1.0000 0.1181632448
H   H78       1.0  0.76740  0.64140  0.54010  1.0000 0.1181632448
H   H79       1.0  0.76740  0.85860  0.04010  1.0000 0.1181632448
H   H80       1.0  0.23260  0.35860  0.45990  1.0000 0.1181632448
H   H81       1.0  0.13290  0.83950  0.72300  1.0000 0.1023485352
H   H82       1.0  0.86710  0.33950  0.77700  1.0000 0.1023485352
H   H83       1.0  0.86710  0.16050  0.27700  1.0000 0.1023485352
H   H84       1.0  0.13290  0.66050  0.22300  1.0000 0.1023485352
H   H85       1.0  0.22250  0.88650  0.75320  1.0000 0.1095574893
H   H86       1.0  0.77750  0.38650  0.74680  1.0000 0.1095574893
H   H87       1.0  0.77750  0.11350  0.24680  1.0000 0.1095574893
H   H88       1.0  0.22250  0.61350  0.25320  1.0000 0.1095574893
H   H89       1.0  0.27180  0.06590  0.67970  1.0000 0.1095574893
H   H90       1.0  0.72820  0.56590  0.82030  1.0000 0.1095574893
H   H91       1.0  0.72820  0.93410  0.32030  1.0000 0.1095574893
H   H92       1.0  0.27180  0.43410  0.17970  1.0000 0.1095574893
H   H93       1.0  0.21010  0.07760  0.62110  1.0000 0.1095574893
H   H94       1.0  0.78990  0.57760  0.87890  1.0000 0.1095574893
H   H95       1.0  0.78990  0.92240  0.37890  1.0000 0.1095574893
H   H96       1.0  0.21010  0.42240  0.12110  1.0000 0.1095574893
H   H97       1.0  0.79890  0.06660  0.01970  1.0000 0.1095574893
H   H98       1.0  0.20110  0.56660  0.48030  1.0000 0.1095574893
H   H99       1.0  0.20110  0.93340  0.98030  1.0000 0.1095574893
H   H100      1.0  0.79890  0.43340  0.51970  1.0000 0.1095574893
H   H101      1.0  0.86200  0.11200  0.99160  1.0000 0.1095574893
H   H102      1.0  0.13800  0.61200  0.50840  1.0000 0.1095574893
H   H103      1.0  0.13800  0.88800  0.00840  1.0000 0.1095574893
H   H104      1.0  0.86200  0.38800  0.49160  1.0000 0.1095574893
H   H105      1.0  0.27680  0.25710  0.94500  1.0000 0.1095574893
H   H106      1.0  0.72320  0.75710  0.55500  1.0000 0.1095574893
H   H107      1.0  0.72320  0.74290  0.05500  1.0000 0.1095574893
H   H108      1.0  0.27680  0.24290  0.44500  1.0000 0.1095574893
H   H109      1.0  0.17970  0.26530  0.97400  1.0000 0.1095574893
H   H110      1.0  0.82030  0.76530  0.52600  1.0000 0.1095574893
H   H111      1.0  0.82030  0.73470  0.02600  1.0000 0.1095574893
H   H112      1.0  0.17970  0.23470  0.47400  1.0000 0.1095574893
H   H113      1.0  0.08050  0.93700  0.77960  1.0000 0.1181632448
H   H114      1.0  0.91950  0.43700  0.72040  1.0000 0.1181632448
H   H115      1.0  0.91950  0.06300  0.22040  1.0000 0.1181632448
H   H116      1.0  0.08050  0.56300  0.27960  1.0000 0.1181632448
H   H117      1.0  0.08150  0.86950  0.79660  1.0000 0.1095574893
H   H118      1.0  0.91850  0.36950  0.70340  1.0000 0.1095574893
H   H119      1.0  0.91850  0.13050  0.20340  1.0000 0.1095574893
H   H120      1.0  0.08150  0.63050  0.29660  1.0000 0.1095574893
H   H121      1.0  0.17020  0.15170  0.67510  1.0000 0.1095574893
H   H122      1.0  0.82980  0.65170  0.82490  1.0000 0.1095574893
H   H123      1.0  0.82980  0.84830  0.32490  1.0000 0.1095574893
H   H124      1.0  0.17020  0.34830  0.17510  1.0000 0.1095574893
H   H125      1.0  0.11120  0.10330  0.70220  1.0000 0.1095574893
H   H126      1.0  0.88880  0.60330  0.79780  1.0000 0.1095574893
H   H127      1.0  0.88880  0.89670  0.29780  1.0000 0.1095574893
H   H128      1.0  0.11120  0.39670  0.20220  1.0000 0.1095574893
H   H129      1.0  0.84810  0.24110  0.09230  1.0000 0.1325709927
H   H130      1.0  0.15190  0.74110  0.40770  1.0000 0.1325709927
H   H131      1.0  0.15190  0.75890  0.90770  1.0000 0.1325709927
H   H132      1.0  0.84810  0.25890  0.59230  1.0000 0.1325709927
H   H133      1.0  0.64270  0.14360  0.15200  1.0000 0.140154234
H   H134      1.0  0.35730  0.64360  0.34800  1.0000 0.140154234
H   H135      1.0  0.35730  0.85640  0.84800  1.0000 0.140154234
H   H136      1.0  0.64270  0.35640  0.65200  1.0000 0.140154234
H   H137      1.0  0.81770  0.17580  0.89280  1.0000 0.140154234
H   H138      1.0  0.18230  0.67580  0.60720  1.0000 0.140154234
H   H139      1.0  0.18230  0.82420  0.10720  1.0000 0.140154234
H   H140      1.0  0.81770  0.32420  0.39280  1.0000 0.140154234
H   H141      1.0  0.04650  0.21150  0.81390  1.0000 0.1325709927
H   H142      1.0  0.95350  0.71150  0.68610  1.0000 0.1325709927
H   H143      1.0  0.95350  0.78850  0.18610  1.0000 0.1325709927
H   H144      1.0  0.04650  0.28850  0.31390  1.0000 0.140154234
H   H145      1.0  0.79210  0.92110  0.67330  1.0000 0.1325709927
H   H146      1.0  0.20790  0.42110  0.82670  1.0000 0.1325709927
H   H147      1.0  0.20790  0.07890  0.32670  1.0000 0.1325709927
H   H148      1.0  0.79210  0.57890  0.17330  1.0000 0.1325709927
H   H149      1.0  0.75790  0.75000  0.70540  1.0000 0.140154234
H   H150      1.0  0.24210  0.25000  0.79460  1.0000 0.140154234
H   H151      1.0  0.24210  0.25000  0.29460  1.0000 0.140154234
H   H152      1.0  0.75790  0.75000  0.20540  1.0000 0.140154234
H   H153      1.0  0.96260  0.22200  0.51100  1.0000 0.140154234
H   H154      1.0  0.03740  0.72200  0.98900  1.0000 0.140154234
H   H155      1.0  0.03740  0.77800  0.48900  1.0000 0.140154234
H   H156      1.0  0.96260  0.27800  0.01100  1.0000 0.140154234
H   H157      1.0  0.83860  0.08500  0.57450  1.0000 0.1325709927
H   H158      1.0  0.16140  0.58500  0.92550  1.0000 0.1325709927
H   H159      1.0  0.16140  0.91500  0.42550  1.0000 0.1325709927
H   H160      1.0  0.83860  0.41500  0.07450  1.0000 0.1325709927
H   H161      1.0  0.81270  0.32020  0.13790  1.0000 0.1023485352
H   H162      1.0  0.18730  0.82020  0.36210  1.0000 0.1023485352
H   H163      1.0  0.18730  0.67980  0.86210  1.0000 0.1023485352
H   H164      1.0  0.81270  0.17980  0.63790  1.0000 0.1023485352
H   H165      1.0  0.61440  0.22470  0.19800  1.0000 0.1095574893
H   H166      1.0  0.38560  0.72470  0.30200  1.0000 0.1095574893
H   H167      1.0  0.38560  0.77530  0.80200  1.0000 0.1095574893
H   H168      1.0  0.61440  0.27530  0.69800  1.0000 0.1095574893
H   H169      1.0  0.69310  0.14790  0.81640  1.0000 0.1095574893
H   H170      1.0  0.30690  0.64790  0.68360  1.0000 0.1095574893
H   H171      1.0  0.30690  0.85210  0.18360  1.0000 0.1095574893
H   H172      1.0  0.69310  0.35210  0.31640  1.0000 0.1095574893
H   H173      1.0  0.91370  0.18770  0.74080  1.0000 0.1095574893
H   H174      1.0  0.08630  0.68770  0.75920  1.0000 0.1095574893
H   H175      1.0  0.08630  0.81230  0.25920  1.0000 0.1095574893
H   H176      1.0  0.91370  0.31230  0.24080  1.0000 0.1095574893
H   H177      1.0  0.61750  0.91780  0.61620  1.0000 0.1095574893
H   H178      1.0  0.38250  0.41780  0.88380  1.0000 0.1095574893
H   H179      1.0  0.38250  0.08220  0.38380  1.0000 0.1095574893
H   H180      1.0  0.61750  0.58220  0.11620  1.0000 0.1095574893
H   H181      1.0  0.58620  0.75040  0.64520  1.0000 0.1095574893
H   H182      1.0  0.41380  0.25040  0.85480  1.0000 0.1095574893
H   H183      1.0  0.41380  0.24960  0.35480  1.0000 0.1095574893
H   H184      1.0  0.58620  0.74960  0.14520  1.0000 0.1095574893
H   H185      1.0  0.79210  0.22710  0.44960  1.0000 0.1023485352
H   H186      1.0  0.20790  0.72710  0.05040  1.0000 0.1023485352
H   H187      1.0  0.20790  0.77290  0.55040  1.0000 0.1023485352
H   H188      1.0  0.79210  0.27290  0.94960  1.0000 0.1023485352
H   H189      1.0  0.67510  0.09320  0.51110  1.0000 0.1095574893
H   H190      1.0  0.32490  0.59320  0.98890  1.0000 0.1095574893
H   H191      1.0  0.32490  0.90680  0.48890  1.0000 0.1095574893
H   H192      1.0  0.67510  0.40680  0.01110  1.0000 0.1095574893
H   H193      1.0  0.30610  0.76790  0.69500  1.0000 0.1181632448
H   H194      1.0  0.69390  0.26790  0.80500  1.0000 0.1181632448
H   H195      1.0  0.69390  0.23210  0.30500  1.0000 0.1181632448
H   H196      1.0  0.30610  0.73210  0.19500  1.0000 0.1181632448
H   H197      1.0  0.26900  0.82800  0.66480  1.0000 0.1023485352
H   H198      1.0  0.73100  0.32800  0.83520  1.0000 0.1023485352
H   H199      1.0  0.73100  0.17200  0.33520  1.0000 0.1023485352
H   H200      1.0  0.26900  0.67200  0.16480  1.0000 0.1023485352
H   H201      1.0  0.39480  0.82020  0.69950  1.0000 0.1095574893
H   H202      1.0  0.60520  0.32020  0.80050  1.0000 0.1095574893
H   H203      1.0  0.60520  0.17980  0.30050  1.0000 0.1095574893
H   H204      1.0  0.39480  0.67980  0.19950  1.0000 0.1095574893
H   H205      1.0  0.34880  0.80270  0.61200  1.0000 0.24330137
H   H206      1.0  0.65120  0.30270  0.88800  1.0000 0.24330137
H   H207      1.0  0.65120  0.19730  0.38800  1.0000 0.24330137
H   H208      1.0  0.34880  0.69730  0.11200  1.0000 0.24330137
C   C1        1.0  0.46240  0.95310  0.27040  1.0000 0.0595522847
C   C2        1.0  0.53760  0.45310  0.22960  1.0000 0.0595522847
C   C3        1.0  0.53760  0.04690  0.72960  1.0000 0.0595522847
C   C4        1.0  0.46240  0.54690  0.77040  1.0000 0.0595522847
C   C5        1.0  0.27130  0.96850  0.24160  1.0000 0.0714017983
C   C6        1.0  0.72870  0.46850  0.25840  1.0000 0.0714017983
C   C7        1.0  0.72870  0.03150  0.75840  1.0000 0.0714017983
C   C8        1.0  0.27130  0.53150  0.74160  1.0000 0.0714017983
C   C9        1.0  0.41490  0.92030  0.38800  1.0000 0.0714017983
C   C10       1.0  0.58510  0.42030  0.11200  1.0000 0.0714017983
C   C11       1.0  0.58510  0.07970  0.61200  1.0000 0.0714017983
C   C12       1.0  0.41490  0.57970  0.88800  1.0000 0.0714017983
C   C13       1.0  0.53560  0.84750  0.37650  1.0000 0.092408859
C   C14       1.0  0.46440  0.34750  0.12350  1.0000 0.092408859
C   C15       1.0  0.46440  0.15250  0.62350  1.0000 0.092408859
C   C16       1.0  0.53560  0.65250  0.87650  1.0000 0.092408859
C   C17       1.0  0.48590  0.00730  0.25490  1.0000 -0.1397729875
C   C18       1.0  0.51410  0.50730  0.24510  1.0000 -0.1397729875
C   C19       1.0  0.51410  0.99270  0.74510  1.0000 -0.1397729875
C   C20       1.0  0.48590  0.49270  0.75490  1.0000 -0.1397729875
C   C21       1.0  0.28850  0.02450  0.22600  1.0000 -0.1480426223
C   C22       1.0  0.71150  0.52450  0.27400  1.0000 -0.1480426223
C   C23       1.0  0.71150  0.97550  0.77400  1.0000 -0.1480426223
C   C24       1.0  0.28850  0.47550  0.72600  1.0000 -0.1480426223
C   C25       1.0  0.48880  0.93790  0.43240  1.0000 -0.1330292255
C   C26       1.0  0.51120  0.43790  0.06760  1.0000 -0.1330292255
C   C27       1.0  0.51120  0.06210  0.56760  1.0000 -0.1330292255
C   C28       1.0  0.48880  0.56210  0.93240  1.0000 -0.1330292255
C   C29       1.0  0.61670  0.86370  0.42060  1.0000 -0.1197068349
C   C30       1.0  0.38330  0.36370  0.07940  1.0000 -0.1197068349
C   C31       1.0  0.38330  0.13630  0.57940  1.0000 -0.1197068349
C   C32       1.0  0.61670  0.63630  0.92060  1.0000 -0.1197068349
C   C33       1.0  0.39740  0.04450  0.23320  1.0000 0.0162265564
C   C34       1.0  0.60260  0.54450  0.26680  1.0000 0.0162265564
C   C35       1.0  0.60260  0.95550  0.76680  1.0000 0.0162265564
C   C36       1.0  0.39740  0.45550  0.73320  1.0000 0.0162265564
C   C37       1.0  0.59210  0.91000  0.44900  1.0000 0.0162265564
C   C38       1.0  0.40790  0.41000  0.05100  1.0000 0.0162265564
C   C39       1.0  0.40790  0.09000  0.55100  1.0000 0.0162265564
C   C40       1.0  0.59210  0.59000  0.94900  1.0000 0.0162265564
C   C41       1.0  0.42260  0.10520  0.21750  1.0000 0.5040801957
C   C42       1.0  0.57740  0.60520  0.28250  1.0000 0.5040801957
C   C43       1.0  0.57740  0.89480  0.78250  1.0000 0.5040801957
C   C44       1.0  0.42260  0.39480  0.71750  1.0000 0.5040801957
C   C45       1.0  0.67130  0.93110  0.49650  1.0000 0.5103378266
C   C46       1.0  0.32870  0.43110  0.00350  1.0000 0.5103378266
C   C47       1.0  0.32870  0.06890  0.50350  1.0000 0.5103378266
C   C48       1.0  0.67130  0.56890  0.99650  1.0000 0.5103378266
C   C49       1.0  0.34340  0.19530  0.18360  1.0000 -0.0386677135
C   C50       1.0  0.65660  0.69530  0.31640  1.0000 -0.0386677135
C   C51       1.0  0.65660  0.80470  0.81640  1.0000 -0.0386677135
C   C52       1.0  0.34340  0.30470  0.68360  1.0000 -0.0386677135
C   C53       1.0  0.84920  0.93340  0.55110  1.0000 -0.0281742047
C   C54       1.0  0.15080  0.43340  0.94890  1.0000 -0.0281742047
C   C55       1.0  0.15080  0.06660  0.44890  1.0000 -0.0281742047
C   C56       1.0  0.84920  0.56660  0.05110  1.0000 -0.0281742047
C   C57       1.0  0.22950  0.21640  0.15520  1.0000 -0.1087899915
C   C58       1.0  0.77050  0.71640  0.34480  1.0000 -0.1087899915
C   C59       1.0  0.77050  0.78360  0.84480  1.0000 -0.1087899915
C   C60       1.0  0.22950  0.28360  0.65520  1.0000 -0.1087899915
C   C61       1.0  0.96650  0.91410  0.55240  1.0000 -0.1008318353
C   C62       1.0  0.03350  0.41410  0.94760  1.0000 -0.1008318353
C   C63       1.0  0.03350  0.08590  0.44760  1.0000 -0.1008318353
C   C64       1.0  0.96650  0.58590  0.05240  1.0000 -0.1008318353
C   C65       1.0  0.09790  0.14300  0.10490  1.0000 0.5377909884
C   C66       1.0  0.90210  0.64300  0.39510  1.0000 0.5377909884
C   C67       1.0  0.90210  0.85700  0.89510  1.0000 0.5377909884
C   C68       1.0  0.09790  0.35700  0.60490  1.0000 0.5377909884
C   C69       1.0  0.23300  0.19540  0.06900  1.0000 0.5377909884
C   C70       1.0  0.76700  0.69540  0.43100  1.0000 0.5377909884
C   C71       1.0  0.76700  0.80460  0.93100  1.0000 0.5377909884
C   C72       1.0  0.23300  0.30460  0.56900  1.0000 0.5377909884
C   C73       1.0  0.05390  0.89610  0.64200  1.0000 0.5315363005
C   C74       1.0  0.94610  0.39610  0.85800  1.0000 0.5315363005
C   C75       1.0  0.94610  0.10390  0.35800  1.0000 0.5315363005
C   C76       1.0  0.05390  0.60390  0.14200  1.0000 0.5315363005
C   C77       1.0  0.08160  0.99030  0.60360  1.0000 0.5377909884
C   C78       1.0  0.91840  0.49030  0.89640  1.0000 0.5377909884
C   C79       1.0  0.91840  0.00970  0.39640  1.0000 0.5377909884
C   C80       1.0  0.08160  0.50970  0.10360  1.0000 0.5377909884
C   C81       1.0  0.96990  0.07210  0.05420  1.0000 -0.1087899915
C   C82       1.0  0.03010  0.57210  0.44580  1.0000 -0.1087899915
C   C83       1.0  0.03010  0.92790  0.94580  1.0000 -0.1087899915
C   C84       1.0  0.96990  0.42790  0.55420  1.0000 -0.1087899915
C   C85       1.0  0.10940  0.12170  0.01880  1.0000 0.5377909884
C   C86       1.0  0.89060  0.62170  0.48120  1.0000 0.5377909884
C   C87       1.0  0.89060  0.87830  0.98120  1.0000 0.5377909884
C   C88       1.0  0.10940  0.37830  0.51880  1.0000 0.5377909884
C   C89       1.0  0.25040  0.17430  0.98440  1.0000 -0.1197068349
C   C90       1.0  0.74960  0.67430  0.51560  1.0000 -0.1197068349
C   C91       1.0  0.74960  0.82570  0.01560  1.0000 -0.1197068349
C   C92       1.0  0.25040  0.32570  0.48440  1.0000 -0.1197068349
C   C93       1.0  0.14340  0.88130  0.73340  1.0000 -0.1087899915
C   C94       1.0  0.85660  0.38130  0.76660  1.0000 -0.1008318353
C   C95       1.0  0.85660  0.11870  0.26660  1.0000 -0.1087899915
C   C96       1.0  0.14340  0.61870  0.23340  1.0000 -0.1087899915
C   C97       1.0  0.16990  0.97390  0.69340  1.0000 0.5315363005
C   C98       1.0  0.83010  0.47390  0.80660  1.0000 0.5315363005
C   C99       1.0  0.83010  0.02610  0.30660  1.0000 0.5315363005
C   C100      1.0  0.16990  0.52610  0.19340  1.0000 0.5315363005
C   C101      1.0  0.19760  0.06730  0.65450  1.0000 -0.1008318353
C   C102      1.0  0.80240  0.56730  0.84550  1.0000 -0.1008318353
C   C103      1.0  0.80240  0.93270  0.34550  1.0000 -0.1008318353
C   C104      1.0  0.19760  0.43270  0.15450  1.0000 -0.1008318353
C   C105      1.0  0.85700  0.09770  0.02530  1.0000 -0.0281742047
C   C106      1.0  0.14300  0.59770  0.47470  1.0000 -0.0281742047
C   C107      1.0  0.14300  0.90230  0.97470  1.0000 -0.0281742047
C   C108      1.0  0.85700  0.40230  0.52530  1.0000 -0.0281742047
C   C109      1.0  0.21150  0.23800  0.95310  1.0000 -0.0452522516
C   C110      1.0  0.78850  0.73800  0.54690  1.0000 -0.0452522516
C   C111      1.0  0.78850  0.76200  0.04690  1.0000 -0.0452522516
C   C112      1.0  0.21150  0.26200  0.45310  1.0000 -0.0452522516
C   C113      1.0  0.06610  0.89630  0.76690  1.0000 -0.0217582008
C   C114      1.0  0.93390  0.39630  0.73310  1.0000 -0.0217582008
C   C115      1.0  0.93390  0.10370  0.23310  1.0000 -0.0217582008
C   C116      1.0  0.06610  0.60370  0.26690  1.0000 -0.0217582008
C   C117      1.0  0.12770  0.11430  0.66970  1.0000 -0.0281742047
C   C118      1.0  0.87230  0.61430  0.83030  1.0000 -0.0281742047
C   C119      1.0  0.87230  0.88570  0.33030  1.0000 -0.0281742047
C   C120      1.0  0.12770  0.38570  0.16970  1.0000 -0.0281742047
C   C121      1.0  0.76800  0.13110  0.08700  1.0000 0.5103378266
C   C122      1.0  0.23200  0.63110  0.41300  1.0000 0.5103378266
C   C123      1.0  0.23200  0.86890  0.91300  1.0000 0.5103378266
C   C124      1.0  0.76800  0.36890  0.58700  1.0000 0.5103378266
C   C125      1.0  0.02380  0.21530  0.91150  1.0000 0.5040801957
C   C126      1.0  0.97620  0.71530  0.58850  1.0000 0.5040801957
C   C127      1.0  0.97620  0.78470  0.08850  1.0000 0.5040801957
C   C128      1.0  0.02380  0.28470  0.41150  1.0000 0.5040801957
C   C129      1.0  0.90690  0.83600  0.73320  1.0000 0.5103378266
C   C130      1.0  0.09310  0.33600  0.76680  1.0000 0.5103378266
C   C131      1.0  0.09310  0.16400  0.26680  1.0000 0.5103378266
C   C132      1.0  0.90690  0.66400  0.23320  1.0000 0.5103378266
C   C133      1.0  0.02870  0.15100  0.58960  1.0000 0.5103378266
C   C134      1.0  0.97130  0.65100  0.91040  1.0000 0.5103378266
C   C135      1.0  0.97130  0.84900  0.41040  1.0000 0.5103378266
C   C136      1.0  0.02870  0.34900  0.08960  1.0000 0.5103378266
C   C137      1.0  0.74800  0.18390  0.11650  1.0000 0.0366145631
C   C138      1.0  0.25200  0.68390  0.38350  1.0000 0.0366145631
C   C139      1.0  0.25200  0.81610  0.88350  1.0000 0.0366145631
C   C140      1.0  0.74800  0.31610  0.61650  1.0000 0.0366145631
C   C141      1.0  0.94550  0.19750  0.86170  1.0000 0.0276947169
C   C142      1.0  0.05450  0.69750  0.63830  1.0000 0.0276947169
C   C143      1.0  0.05450  0.80250  0.13830  1.0000 0.0276947169
C   C144      1.0  0.94550  0.30250  0.36170  1.0000 0.0276947169
C   C145      1.0  0.79210  0.83560  0.69540  1.0000 0.0276947169
C   C146      1.0  0.20790  0.33560  0.80460  1.0000 0.0276947169
C   C147      1.0  0.20790  0.16440  0.30460  1.0000 0.0276947169
C   C148      1.0  0.79210  0.66440  0.19540  1.0000 0.0276947169
C   C149      1.0  0.91970  0.15300  0.55000  1.0000 0.0093892554
C   C150      1.0  0.08030  0.65300  0.95000  1.0000 0.0093892554
C   C151      1.0  0.08030  0.84700  0.45000  1.0000 0.0093892554
C   C152      1.0  0.91970  0.34700  0.05000  1.0000 0.0093892554
C   C153      1.0  0.79840  0.23690  0.11350  1.0000 -0.1480426223
C   C154      1.0  0.20160  0.73690  0.38650  1.0000 -0.1480426223
C   C155      1.0  0.20160  0.76310  0.88650  1.0000 -0.1480426223
C   C156      1.0  0.79840  0.26310  0.61350  1.0000 -0.1480426223
C   C157      1.0  0.67850  0.17980  0.14860  1.0000 -0.1397729875
C   C158      1.0  0.32150  0.67980  0.35140  1.0000 -0.1397729875
C   C159      1.0  0.32150  0.82020  0.85140  1.0000 -0.1397729875
C   C160      1.0  0.67850  0.32020  0.64860  1.0000 -0.1397729875
C   C161      1.0  0.83940  0.17820  0.86180  1.0000 -0.1397729875
C   C162      1.0  0.16060  0.67820  0.63820  1.0000 -0.1397729875
C   C163      1.0  0.16060  0.82180  0.13820  1.0000 -0.1397729875
C   C164      1.0  0.83940  0.32180  0.36180  1.0000 -0.1397729875
C   C165      1.0  0.97340  0.19970  0.81530  1.0000 -0.1330292255
C   C166      1.0  0.02660  0.69970  0.68470  1.0000 -0.1330292255
C   C167      1.0  0.02660  0.80030  0.18470  1.0000 -0.1330292255
C   C168      1.0  0.97340  0.30030  0.31530  1.0000 -0.1330292255
C   C169      1.0  0.75000  0.88560  0.66840  1.0000 -0.1563974276
C   C170      1.0  0.25000  0.38560  0.83160  1.0000 -0.1563974276
C   C171      1.0  0.25000  0.11440  0.33160  1.0000 -0.1563974276
C   C172      1.0  0.75000  0.61440  0.16840  1.0000 -0.1563974276
C   C173      1.0  0.73070  0.78490  0.68720  1.0000 -0.1397729875
C   C174      1.0  0.26930  0.28490  0.81280  1.0000 -0.1397729875
C   C175      1.0  0.26930  0.21510  0.31280  1.0000 -0.1397729875
C   C176      1.0  0.73070  0.71510  0.18720  1.0000 -0.1397729875
C   C177      1.0  0.90400  0.19520  0.51190  1.0000 -0.1397729875
C   C178      1.0  0.09600  0.69520  0.98810  1.0000 -0.1397729875
C   C179      1.0  0.09600  0.80480  0.48810  1.0000 -0.1397729875
C   C180      1.0  0.90400  0.30480  0.01190  1.0000 -0.1397729875
C   C181      1.0  0.83150  0.11450  0.54920  1.0000 -0.1397729875
C   C182      1.0  0.16850  0.61450  0.95080  1.0000 -0.1397729875
C   C183      1.0  0.16850  0.88550  0.45080  1.0000 -0.1397729875
C   C184      1.0  0.83150  0.38550  0.04920  1.0000 -0.1397729875
C   C185      1.0  0.77750  0.28370  0.14090  1.0000 0.0595522847
C   C186      1.0  0.22250  0.78370  0.35910  1.0000 0.0595522847
C   C187      1.0  0.22250  0.71630  0.85910  1.0000 0.0595522847
C   C188      1.0  0.77750  0.21630  0.64090  1.0000 0.0595522847
C   C189      1.0  0.66170  0.22820  0.17570  1.0000 0.0714017983
C   C190      1.0  0.33830  0.72820  0.32430  1.0000 0.0714017983
C   C191      1.0  0.33830  0.77180  0.82430  1.0000 0.0714017983
C   C192      1.0  0.66170  0.27180  0.67570  1.0000 0.0714017983
C   C193      1.0  0.76530  0.16230  0.81600  1.0000 0.0799796477
C   C194      1.0  0.23470  0.66230  0.68400  1.0000 0.0799796477
C   C195      1.0  0.23470  0.83770  0.18400  1.0000 0.0799796477
C   C196      1.0  0.76530  0.33770  0.31600  1.0000 0.0799796477
C   C197      1.0  0.89450  0.18490  0.77230  1.0000 0.0714017983
C   C198      1.0  0.10550  0.68490  0.72770  1.0000 0.0714017983
C   C199      1.0  0.10550  0.81510  0.22770  1.0000 0.0714017983
C   C200      1.0  0.89450  0.31510  0.27230  1.0000 0.0714017983
C   C201      1.0  0.64660  0.88310  0.63440  1.0000 0.0595522847
C   C202      1.0  0.35340  0.38310  0.86560  1.0000 0.0595522847
C   C203      1.0  0.35340  0.11690  0.36560  1.0000 0.0595522847
C   C204      1.0  0.64660  0.61690  0.13440  1.0000 0.0595522847
C   C205      1.0  0.62830  0.78590  0.65170  1.0000 0.0714017983
C   C206      1.0  0.37170  0.28590  0.84830  1.0000 0.0714017983
C   C207      1.0  0.37170  0.21410  0.34830  1.0000 0.0714017983
C   C208      1.0  0.62830  0.71410  0.15170  1.0000 0.0714017983
C   C209      1.0  0.80260  0.19790  0.47530  1.0000 0.0595522847
C   C210      1.0  0.19740  0.69790  0.02470  1.0000 0.0595522847
C   C211      1.0  0.19740  0.80210  0.52470  1.0000 0.0595522847
C   C212      1.0  0.80260  0.30210  0.97530  1.0000 0.0595522847
C   C213      1.0  0.73470  0.11980  0.51150  1.0000 0.0714017983
C   C214      1.0  0.26530  0.61980  0.98850  1.0000 0.0714017983
C   C215      1.0  0.26530  0.88020  0.48850  1.0000 0.0714017983
C   C216      1.0  0.73470  0.38020  0.01150  1.0000 0.0714017983
C   C217      1.0  0.33090  0.80010  0.67670  1.0000 -0.2280951563
C   C218      1.0  0.66910  0.30010  0.82330  1.0000 -0.2280951563
C   C219      1.0  0.66910  0.19990  0.32330  1.0000 -0.2280951563
C   C220      1.0  0.33090  0.69990  0.17670  1.0000 -0.2280951563
N   N1        1.0  0.35607  0.93270  0.26427  1.0000 -0.2280951563
N   N2        1.0  0.64393  0.43270  0.23573  1.0000 -0.2280951563
N   N3        1.0  0.64393  0.06730  0.73573  1.0000 -0.2280951563
N   N4        1.0  0.35607  0.56730  0.76427  1.0000 -0.2280951563
N   N5        1.0  0.43753  0.87570  0.36023  1.0000 -0.2221084174
N   N6        1.0  0.56247  0.37570  0.13977  1.0000 -0.2221084174
N   N7        1.0  0.56247  0.12430  0.63977  1.0000 -0.2221084174
N   N8        1.0  0.43753  0.62430  0.86023  1.0000 -0.2221084174
N   N9        1.0  0.70913  0.28040  0.17183  1.0000 -0.210643785
N   N10       1.0  0.29087  0.78040  0.32817  1.0000 -0.210643785
N   N11       1.0  0.29087  0.71960  0.82817  1.0000 -0.210643785
N   N12       1.0  0.70913  0.21960  0.67183  1.0000 -0.210643785
N   N13       1.0  0.79022  0.16620  0.77162  1.0000 -0.2221084174
N   N14       1.0  0.20978  0.66620  0.72838  1.0000 -0.2221084174
N   N15       1.0  0.20978  0.83380  0.22838  1.0000 -0.2221084174
N   N16       1.0  0.79022  0.33380  0.27162  1.0000 -0.2221084174
N   N17       1.0  0.53640  0.82060  0.24180  1.0000 0.6791554436
N   N18       1.0  0.46360  0.32060  0.25820  1.0000 0.6791554436
N   N19       1.0  0.46360  0.17940  0.75820  1.0000 0.6791554436
N   N20       1.0  0.53640  0.67940  0.74180  1.0000 0.6791554436
N   N21       1.0  0.18420  0.18330  0.10730  1.0000 -0.2379966731
N   N22       1.0  0.81580  0.68330  0.39270  1.0000 -0.2379966731
N   N23       1.0  0.81580  0.81670  0.89270  1.0000 -0.2379966731
N   N24       1.0  0.18420  0.31670  0.60730  1.0000 -0.2379966731
N   N25       1.0  0.04051  0.93410  0.60131  1.0000 -0.2583483301
N   N26       1.0  0.95949  0.43410  0.89869  1.0000 -0.2583483301
N   N27       1.0  0.95949  0.06590  0.39869  1.0000 -0.2583483301
N   N28       1.0  0.04051  0.56590  0.10131  1.0000 -0.2583483301
N   N29       1.0  0.06100  0.11450  0.05920  1.0000 -0.2379966731
N   N30       1.0  0.93900  0.61450  0.44080  1.0000 -0.2379966731
N   N31       1.0  0.93900  0.88550  0.94080  1.0000 -0.2379966731
N   N32       1.0  0.06100  0.38550  0.55920  1.0000 -0.2379966731
N   N33       1.0  0.19370  0.16430  0.02550  1.0000 -0.2379966731
N   N34       1.0  0.80630  0.66430  0.47450  1.0000 -0.2379966731
N   N35       1.0  0.80630  0.83570  0.97450  1.0000 -0.2379966731
N   N36       1.0  0.19370  0.33570  0.52550  1.0000 -0.2379966731
N   N37       1.0  0.12129  0.91850  0.68789  1.0000 -0.2758166224
N   N38       1.0  0.87871  0.41850  0.81211  1.0000 -0.2758166224
N   N39       1.0  0.87871  0.08150  0.31211  1.0000 -0.2758166224
N   N40       1.0  0.12129  0.58150  0.18789  1.0000 -0.2758166224
N   N41       1.0  0.14570  0.00870  0.65090  1.0000 -0.2514076263
N   N42       1.0  0.85430  0.50870  0.84910  1.0000 -0.2514076263
N   N43       1.0  0.85430  0.99130  0.34910  1.0000 -0.2514076263
N   N44       1.0  0.14570  0.49130  0.15090  1.0000 -0.2514076263
N   N45       1.0  0.58450  0.83410  0.62570  1.0000 -0.2280951563
N   N46       1.0  0.41550  0.33410  0.87430  1.0000 -0.2280951563
N   N47       1.0  0.41550  0.16590  0.37430  1.0000 -0.2280951563
N   N48       1.0  0.58450  0.66590  0.12570  1.0000 -0.2280951563
N   N49       1.0  0.71890  0.16050  0.47490  1.0000 -0.2583483301
N   N50       1.0  0.28110  0.66050  0.02510  1.0000 -0.2583483301
N   N51       1.0  0.28110  0.83950  0.52510  1.0000 -0.2583483301
N   N52       1.0  0.71890  0.33950  0.97490  1.0000 -0.2583483301
N   N53       1.0  0.36090  0.93970  0.60960  1.0000 0.5708377555
N   N54       1.0  0.63910  0.43970  0.89040  1.0000 0.5708377555
N   N55       1.0  0.63910  0.06030  0.39040  1.0000 0.5708377555
N   N56       1.0  0.36090  0.56030  0.10960  1.0000 0.5708377555
N   N57       1.0  0.46740  0.75200  0.50860  1.0000 0.6901668057
N   N58       1.0  0.53260  0.25200  0.99140  1.0000 0.6901668057
N   N59       1.0  0.53260  0.24800  0.49140  1.0000 0.6901668057
N   N60       1.0  0.46740  0.74800  0.00860  1.0000 0.6901668057
N   N61       1.0  0.11380  0.54650  0.81720  1.0000 0.6901668057
N   N62       1.0  0.88620  0.04650  0.68280  1.0000 0.6901668057
N   N63       1.0  0.88620  0.45350  0.18280  1.0000 0.6901668057
N   N64       1.0  0.11380  0.95350  0.31720  1.0000 0.6901668057
O   O1        1.0  0.46372  0.80470  0.26372  1.0000 -0.4791968669
O   O2        1.0  0.53628  0.30470  0.23628  1.0000 -0.4791968669
O   O3        1.0  0.53628  0.19530  0.73628  1.0000 -0.4791968669
O   O4        1.0  0.46372  0.69530  0.76372  1.0000 -0.4791968669
O   O5        1.0  0.50880  0.82520  0.19470  1.0000 -0.4004576509
O   O6        1.0  0.49120  0.32520  0.30530  1.0000 -0.4004576509
O   O7        1.0  0.49120  0.17480  0.80530  1.0000 -0.4004576509
O   O8        1.0  0.50880  0.67480  0.69470  1.0000 -0.4004576509
O   O9        1.0  0.63250  0.82990  0.26610  1.0000 -0.3906613295
O   O10       1.0  0.36750  0.32990  0.23390  1.0000 -0.3906613295
O   O11       1.0  0.36750  0.17010  0.73390  1.0000 -0.3906613295
O   O12       1.0  0.63250  0.67010  0.76610  1.0000 -0.3906613295
O   O13       1.0  0.51620  0.12350  0.22150  1.0000 -0.4690623537
O   O14       1.0  0.48380  0.62350  0.27850  1.0000 -0.4690623537
O   O15       1.0  0.48380  0.87650  0.77850  1.0000 -0.4690623537
O   O16       1.0  0.51620  0.37650  0.72150  1.0000 -0.4690623537
O   O17       1.0  0.32931  0.13545  0.20011  1.0000 -0.210643785
O   O18       1.0  0.67069  0.63545  0.29989  1.0000 -0.210643785
O   O19       1.0  0.67069  0.86455  0.79989  1.0000 -0.210643785
O   O20       1.0  0.32931  0.36455  0.70011  1.0000 -0.210643785
O   O21       1.0  0.64330  0.96400  0.52510  1.0000 -0.4623328862
O   O22       1.0  0.35670  0.46400  0.97490  1.0000 -0.4623328862
O   O23       1.0  0.35670  0.03600  0.47490  1.0000 -0.4623328862
O   O24       1.0  0.64330  0.53600  0.02510  1.0000 -0.4623328862
O   O25       1.0  0.77358  0.91030  0.50478  1.0000 -0.1912107572
O   O26       1.0  0.22642  0.41030  0.99522  1.0000 -0.1912107572
O   O27       1.0  0.22642  0.08970  0.49522  1.0000 -0.1912107572
O   O28       1.0  0.77358  0.58970  0.00478  1.0000 -0.1912107572
O   O29       1.0  0.05760  0.13470  0.14000  1.0000 -0.4623328862
O   O30       1.0  0.94240  0.63470  0.36000  1.0000 -0.4623328862
O   O31       1.0  0.94240  0.86530  0.86000  1.0000 -0.4623328862
O   O32       1.0  0.05760  0.36530  0.64000  1.0000 -0.4623328862
O   O33       1.0  0.30800  0.23100  0.07310  1.0000 -0.4623328862
O   O34       1.0  0.69200  0.73100  0.42690  1.0000 -0.4623328862
O   O35       1.0  0.69200  0.76900  0.92690  1.0000 -0.4623328862
O   O36       1.0  0.30800  0.26900  0.57310  1.0000 -0.4623328862
O   O37       1.0  0.01189  0.84820  0.63909  1.0000 -0.4690623537
O   O38       1.0  0.98811  0.34820  0.86091  1.0000 -0.4690623537
O   O39       1.0  0.98811  0.15180  0.36091  1.0000 -0.4690623537
O   O40       1.0  0.01189  0.65180  0.13909  1.0000 -0.4690623537
O   O41       1.0  0.06225  0.02220  0.56625  1.0000 -0.4623328862
O   O42       1.0  0.93775  0.52220  0.93375  1.0000 -0.4623328862
O   O43       1.0  0.93775  0.97780  0.43375  1.0000 -0.4623328862
O   O44       1.0  0.06225  0.47780  0.06625  1.0000 -0.4623328862
O   O45       1.0  0.07640  0.09290  0.98010  1.0000 -0.4791968669
O   O46       1.0  0.92360  0.59290  0.51990  1.0000 -0.4791968669
O   O47       1.0  0.92360  0.90710  0.01990  1.0000 -0.4791968669
O   O48       1.0  0.07640  0.40710  0.48010  1.0000 -0.4791968669
O   O49       1.0  0.22913  0.99010  0.73363  1.0000 -0.4623328862
O   O50       1.0  0.77087  0.49010  0.76637  1.0000 -0.4623328862
O   O51       1.0  0.77087  0.00990  0.26637  1.0000 -0.4623328862
O   O52       1.0  0.22913  0.50990  0.23363  1.0000 -0.4623328862
O   O53       1.0  0.82490  0.14530  0.05310  1.0000 -0.2280951563
O   O54       1.0  0.17510  0.64530  0.44690  1.0000 -0.2280951563
O   O55       1.0  0.17510  0.85470  0.94690  1.0000 -0.2280951563
O   O56       1.0  0.82490  0.35470  0.55310  1.0000 -0.2280951563
O   O57       1.0  0.12690  0.22270  0.90650  1.0000 -0.2018216804
O   O58       1.0  0.87310  0.72270  0.59350  1.0000 -0.2018216804
O   O59       1.0  0.87310  0.77730  0.09350  1.0000 -0.2018216804
O   O60       1.0  0.12690  0.27730  0.40650  1.0000 -0.2018216804
O   O61       1.0  0.94941  0.89050  0.73821  1.0000 -0.2018216804
O   O62       1.0  0.05059  0.39050  0.76179  1.0000 -0.2018216804
O   O63       1.0  0.05059  0.10950  0.26179  1.0000 -0.2018216804
O   O64       1.0  0.94941  0.60950  0.23821  1.0000 -0.2018216804
O   O65       1.0  0.02208  0.12230  0.63018  1.0000 -0.210643785
O   O66       1.0  0.97792  0.62230  0.86982  1.0000 -0.210643785
O   O67       1.0  0.97792  0.87770  0.36982  1.0000 -0.210643785
O   O68       1.0  0.02208  0.37770  0.13018  1.0000 -0.210643785
O   O69       1.0  0.73940  0.08310  0.09490  1.0000 -0.4291350648
O   O70       1.0  0.26060  0.58310  0.40510  1.0000 -0.4291350648
O   O71       1.0  0.26060  0.91690  0.90510  1.0000 -0.4291350648
O   O72       1.0  0.73940  0.41690  0.59490  1.0000 -0.4291350648
O   O73       1.0  0.99750  0.21990  0.94930  1.0000 -0.4454851181
O   O74       1.0  0.00250  0.71990  0.55070  1.0000 -0.4454851181
O   O75       1.0  0.00250  0.78010  0.05070  1.0000 -0.4454851181
O   O76       1.0  0.99750  0.28010  0.44930  1.0000 -0.4454851181
O   O77       1.0  0.95242  0.79260  0.75442  1.0000 -0.4623328862
O   O78       1.0  0.04758  0.29260  0.74558  1.0000 -0.4623328862
O   O79       1.0  0.04758  0.20740  0.24558  1.0000 -0.4623328862
O   O80       1.0  0.95242  0.70740  0.25442  1.0000 -0.4623328862
O   O81       1.0  0.11330  0.17520  0.58360  1.0000 -0.4791968669
O   O82       1.0  0.88670  0.67520  0.91640  1.0000 -0.4791968669
O   O83       1.0  0.88670  0.82480  0.41640  1.0000 -0.4791968669
O   O84       1.0  0.11330  0.32480  0.08360  1.0000 -0.4791968669
O   O85       1.0  0.36270  0.77790  0.63570  1.0000 -0.3629353673
O   O86       1.0  0.63730  0.27790  0.86430  1.0000 -0.3629353673
O   O87       1.0  0.63730  0.22210  0.36430  1.0000 -0.3629353673
O   O88       1.0  0.36270  0.72210  0.13570  1.0000 -0.3629353673
O   O89       1.0  0.42810  0.92220  0.58510  1.0000 -0.3159125254
O   O90       1.0  0.57190  0.42220  0.91490  1.0000 -0.3159125254
O   O91       1.0  0.57190  0.07780  0.41490  1.0000 -0.3159125254
O   O92       1.0  0.42810  0.57780  0.08510  1.0000 -0.3159125254
O   O93       1.0  0.36030  0.99290  0.62140  1.0000 -0.3906613295
O   O94       1.0  0.63970  0.49290  0.87860  1.0000 -0.3906613295
O   O95       1.0  0.63970  0.00710  0.37860  1.0000 -0.3906613295
O   O96       1.0  0.36030  0.50710  0.12140  1.0000 -0.3906613295
O   O97       1.0  0.28420  0.90810  0.61800  1.0000 -0.0693179455
O   O98       1.0  0.71580  0.40810  0.88200  1.0000 -0.0693179455
O   O99       1.0  0.71580  0.09190  0.38200  1.0000 -0.0693179455
O   O100      1.0  0.28420  0.59190  0.11800  1.0000 -0.0693179455
O   O101      1.0  0.45240  0.75410  0.55290  1.0000 -0.4004576509
O   O102      1.0  0.54760  0.25410  0.94710  1.0000 -0.4004576509
O   O103      1.0  0.54760  0.24590  0.44710  1.0000 -0.4004576509
O   O104      1.0  0.45240  0.74590  0.05290  1.0000 -0.4004576509
O   O105      1.0  0.48690  0.80170  0.49270  1.0000 -0.4291350648
O   O106      1.0  0.51310  0.30170  0.00730  1.0000 -0.4291350648
O   O107      1.0  0.51310  0.19830  0.50730  1.0000 -0.4291350648
O   O108      1.0  0.48690  0.69830  0.99270  1.0000 -0.4291350648
O   O109      1.0  0.46290  0.70330  0.48630  1.0000 -0.3906613295
O   O110      1.0  0.53710  0.20330  0.01370  1.0000 -0.3906613295
O   O111      1.0  0.53710  0.29670  0.51370  1.0000 -0.3906613295
O   O112      1.0  0.46290  0.79670  0.98630  1.0000 -0.3906613295
O   O113      1.0  0.63470  0.10950  0.36870  1.0000 0.140154234
O   O114      1.0  0.36530  0.60950  0.13130  1.0000 0.140154234
O   O115      1.0  0.36530  0.89050  0.63130  1.0000 0.140154234
O   O116      1.0  0.63470  0.39050  0.86870  1.0000 0.140154234
O   O117      1.0  0.16763  0.59406  0.81833  1.0000 -0.496018815
O   O118      1.0  0.14140  0.51340  0.85430  1.0000 -0.4189532206
O   O119      1.0  0.03600  0.53440  0.77990  1.0000 -0.4004576509
O   O120      1.0  0.83237  0.09406  0.68167  1.0000 -0.496018815
O   O121      1.0  0.85860  0.01340  0.64570  1.0000 -0.4189532206
O   O122      1.0  0.96400  0.03440  0.72010  1.0000 -0.4004576509
O   O123      1.0  0.83237  0.40594  0.18167  1.0000 -0.496018815
O   O124      1.0  0.85860  0.48660  0.14570  1.0000 -0.4189532206
O   O125      1.0  0.96400  0.46560  0.22010  1.0000 -0.4004576509
O   O126      1.0  0.16763  0.90594  0.31833  1.0000 -0.496018815
O   O127      1.0  0.14140  0.98660  0.35430  1.0000 -0.4189532206
O   O128      1.0  0.03600  0.96560  0.27990  1.0000 -0.4004576509
