# DDEC6 charges by PACMAN v1.1 (https://github.com/mtap-research/PACMAN-charge/)
data_2013[ZnGa][nan]3[ION]2
_chemical_formula_sum              "Zn92 Ga16 P136 H248 C64 N16 O456 F16"
_cell_length_a       48.561
_cell_length_b       66.34
_cell_length_c       10.0376
_cell_angle_alpha    90
_cell_angle_beta     90
_cell_angle_gamma    90

_symmetry_space_group_name_H-M    "P 1"
_symmetry_Int_Tables_number       1

loop_
  _symmetry_equiv_pos_as_xyz
  'x, y, z'

loop_
  _atom_site_type_symbol
  _atom_site_label
  _atom_site_symmetry_multiplicity
  _atom_site_fract_x
  _atom_site_fract_y
  _atom_site_fract_z
  _atom_site_occupancy
  _atom_site_charge
Zn  Zn1       1.0  0.23525  0.09093  0.43139  1.0000 1.1019266685
Zn  Zn2       1.0  0.76475  0.40907  0.93139  1.0000 1.1019266685
Zn  Zn3       1.0  0.76475  0.59093  0.06861  1.0000 1.1019266685
Zn  Zn4       1.0  0.23525  0.90907  0.56861  1.0000 1.1019266685
Zn  Zn5       1.0  0.76475  0.90907  0.56861  1.0000 1.1019266685
Zn  Zn6       1.0  0.23525  0.59093  0.06861  1.0000 1.1019266685
Zn  Zn7       1.0  0.23525  0.40907  0.93139  1.0000 1.1019266685
Zn  Zn8       1.0  0.76475  0.09093  0.43139  1.0000 1.1019266685
Zn  Zn9       1.0  0.73525  0.59093  0.43139  1.0000 1.1019266685
Zn  Zn10      1.0  0.26475  0.90907  0.93139  1.0000 1.1019266685
Zn  Zn11      1.0  0.26475  0.09093  0.06861  1.0000 1.1019266685
Zn  Zn12      1.0  0.73525  0.40907  0.56861  1.0000 1.1019266685
Zn  Zn13      1.0  0.26475  0.40907  0.56861  1.0000 1.1019266685
Zn  Zn14      1.0  0.73525  0.09093  0.06861  1.0000 1.1019266685
Zn  Zn15      1.0  0.73525  0.90907  0.93139  1.0000 1.1019266685
Zn  Zn16      1.0  0.26475  0.59093  0.43139  1.0000 1.1113936223
Zn  Zn17      1.0  0.06307  0.01404  0.32851  1.0000 1.1712815071
Zn  Zn18      1.0  0.93693  0.48596  0.82851  1.0000 1.1712815071
Zn  Zn19      1.0  0.93693  0.51404  0.17149  1.0000 1.1712815071
Zn  Zn20      1.0  0.06307  0.98596  0.67149  1.0000 1.1712815071
Zn  Zn21      1.0  0.93693  0.98596  0.67149  1.0000 1.1712815071
Zn  Zn22      1.0  0.06307  0.51404  0.17149  1.0000 1.1712815071
Zn  Zn23      1.0  0.06307  0.48596  0.82851  1.0000 1.1759678044
Zn  Zn24      1.0  0.93693  0.01404  0.32851  1.0000 1.1712815071
Zn  Zn25      1.0  0.56307  0.51404  0.32851  1.0000 1.1712815071
Zn  Zn26      1.0  0.43693  0.98596  0.82851  1.0000 1.1712815071
Zn  Zn27      1.0  0.43693  0.01404  0.17149  1.0000 1.1712815071
Zn  Zn28      1.0  0.56307  0.48596  0.67149  1.0000 1.1712815071
Zn  Zn29      1.0  0.43693  0.48596  0.67149  1.0000 1.1712815071
Zn  Zn30      1.0  0.56307  0.01404  0.17149  1.0000 1.1712815071
Zn  Zn31      1.0  0.56307  0.98596  0.82851  1.0000 1.1712815071
Zn  Zn32      1.0  0.43693  0.51404  0.32851  1.0000 1.1712815071
Zn  Zn33      1.0  0.23064  0.13721  0.92292  1.0000 1.1712815071
Zn  Zn34      1.0  0.76936  0.36279  0.42292  1.0000 1.1712815071
Zn  Zn35      1.0  0.76936  0.63721  0.57708  1.0000 1.1712815071
Zn  Zn36      1.0  0.23064  0.86279  0.07708  1.0000 1.1712815071
Zn  Zn37      1.0  0.76936  0.86279  0.07708  1.0000 1.1712815071
Zn  Zn38      1.0  0.23064  0.63721  0.57708  1.0000 1.1712815071
Zn  Zn39      1.0  0.23064  0.36279  0.42292  1.0000 1.1759678044
Zn  Zn40      1.0  0.76936  0.13721  0.92292  1.0000 1.1712815071
Zn  Zn41      1.0  0.73064  0.63721  0.92292  1.0000 1.1712815071
Zn  Zn42      1.0  0.26936  0.86279  0.42292  1.0000 1.1712815071
Zn  Zn43      1.0  0.26936  0.13721  0.57708  1.0000 1.1712815071
Zn  Zn44      1.0  0.73064  0.36279  0.07708  1.0000 1.1712815071
Zn  Zn45      1.0  0.26936  0.36279  0.07708  1.0000 1.1712815071
Zn  Zn46      1.0  0.73064  0.13721  0.57708  1.0000 1.1712815071
Zn  Zn47      1.0  0.73064  0.86279  0.42292  1.0000 1.1712815071
Zn  Zn48      1.0  0.26936  0.63721  0.92292  1.0000 1.1712815071
Zn  Zn49      1.0  0.12618  0.99042  0.18091  1.0000 1.1019266685
Zn  Zn50      1.0  0.87382  0.50958  0.68091  1.0000 1.1019266685
Zn  Zn51      1.0  0.87382  0.49042  0.31909  1.0000 1.1019266685
Zn  Zn52      1.0  0.12618  0.00958  0.81909  1.0000 1.1019266685
Zn  Zn53      1.0  0.87382  0.00958  0.81909  1.0000 1.1019266685
Zn  Zn54      1.0  0.12618  0.49042  0.31909  1.0000 1.1019266685
Zn  Zn55      1.0  0.12618  0.50958  0.68091  1.0000 1.1019266685
Zn  Zn56      1.0  0.87382  0.99042  0.18091  1.0000 1.1019266685
Zn  Zn57      1.0  0.62618  0.49042  0.18091  1.0000 1.1019266685
Zn  Zn58      1.0  0.37382  0.00958  0.68091  1.0000 1.1019266685
Zn  Zn59      1.0  0.37382  0.99042  0.31909  1.0000 1.1019266685
Zn  Zn60      1.0  0.62618  0.50958  0.81909  1.0000 1.1019266685
Zn  Zn61      1.0  0.37382  0.50958  0.81909  1.0000 1.1019266685
Zn  Zn62      1.0  0.62618  0.99042  0.31909  1.0000 1.1019266685
Zn  Zn63      1.0  0.62618  0.00958  0.68091  1.0000 1.1019266685
Zn  Zn64      1.0  0.37382  0.49042  0.18091  1.0000 1.1019266685
Zn  Zn65      1.0  0.23246  0.22742  0.92074  1.0000 1.1712815071
Zn  Zn66      1.0  0.76754  0.27258  0.42074  1.0000 1.1712815071
Zn  Zn67      1.0  0.76754  0.72742  0.57926  1.0000 1.1712815071
Zn  Zn68      1.0  0.23246  0.77258  0.07926  1.0000 1.1712815071
Zn  Zn69      1.0  0.76754  0.77258  0.07926  1.0000 1.1712815071
Zn  Zn70      1.0  0.23246  0.72742  0.57926  1.0000 1.1712815071
Zn  Zn71      1.0  0.23246  0.27258  0.42074  1.0000 1.1712815071
Zn  Zn72      1.0  0.76754  0.22742  0.92074  1.0000 1.1712815071
Zn  Zn73      1.0  0.73246  0.72742  0.92074  1.0000 1.1712815071
Zn  Zn74      1.0  0.26754  0.77258  0.42074  1.0000 1.1712815071
Zn  Zn75      1.0  0.26754  0.22742  0.57926  1.0000 1.1712815071
Zn  Zn76      1.0  0.73246  0.27258  0.07926  1.0000 1.1712815071
Zn  Zn77      1.0  0.26754  0.27258  0.07926  1.0000 1.1712815071
Zn  Zn78      1.0  0.73246  0.22742  0.57926  1.0000 1.1712815071
Zn  Zn79      1.0  0.73246  0.77258  0.42074  1.0000 1.1712815071
Zn  Zn80      1.0  0.26754  0.72742  0.92074  1.0000 1.1712815071
Zn  Zn81      1.0  0.25000  0.18124  0.25000  1.0000 1.1162515797
Zn  Zn82      1.0  0.75000  0.31876  0.75000  1.0000 1.1289232888
Zn  Zn83      1.0  0.75000  0.68124  0.25000  1.0000 1.1113936223
Zn  Zn84      1.0  0.25000  0.81876  0.75000  1.0000 1.1289232888
Zn  Zn85      1.0  0.75000  0.81876  0.75000  1.0000 1.1289232888
Zn  Zn86      1.0  0.25000  0.68124  0.25000  1.0000 1.1113936223
Zn  Zn87      1.0  0.25000  0.31876  0.75000  1.0000 1.1289232888
Zn  Zn88      1.0  0.75000  0.18124  0.25000  1.0000 1.1113936223
Zn  Zn89      1.0  0.00000  0.00000  0.00000  1.0000 1.0866231836
Zn  Zn90      1.0  0.00000  0.50000  0.50000  1.0000 1.0866231836
Zn  Zn91      1.0  0.50000  0.50000  0.00000  1.0000 1.0832245268
Zn  Zn92      1.0  0.50000  0.00000  0.50000  1.0000 1.0866231836
Ga  Ga1       1.0  0.25000  0.97618  0.25000  1.0000 1.5028382458
Ga  Ga2       1.0  0.75000  0.52382  0.75000  1.0000 1.5028382458
Ga  Ga3       1.0  0.75000  0.47618  0.25000  1.0000 1.5028382458
Ga  Ga4       1.0  0.25000  0.02382  0.75000  1.0000 1.5028382458
Ga  Ga5       1.0  0.75000  0.02382  0.75000  1.0000 1.5028382458
Ga  Ga6       1.0  0.25000  0.47618  0.25000  1.0000 1.5028382458
Ga  Ga7       1.0  0.25000  0.52382  0.75000  1.0000 1.5028382458
Ga  Ga8       1.0  0.75000  0.97618  0.25000  1.0000 1.5028382458
Ga  Ga9       1.0  0.21631  0.00000  0.50000  1.0000 1.5363275923
Ga  Ga10      1.0  0.78369  0.50000  0.00000  1.0000 1.5363275923
Ga  Ga11      1.0  0.78369  0.00000  0.50000  1.0000 1.5292259648
Ga  Ga12      1.0  0.21631  0.50000  0.00000  1.0000 1.5363275923
Ga  Ga13      1.0  0.71631  0.50000  0.50000  1.0000 1.5363275923
Ga  Ga14      1.0  0.28369  0.00000  0.00000  1.0000 1.5363275923
Ga  Ga15      1.0  0.28369  0.50000  0.50000  1.0000 1.5363275923
Ga  Ga16      1.0  0.71631  0.00000  0.00000  1.0000 1.5363275923
P   P1        1.0  0.19080  0.99634  0.22110  1.0000 1.2516730585
P   P2        1.0  0.80920  0.50366  0.72110  1.0000 1.2550258555
P   P3        1.0  0.80920  0.49634  0.27890  1.0000 1.240647129
P   P4        1.0  0.19080  0.00366  0.77890  1.0000 1.2516730585
P   P5        1.0  0.80920  0.00366  0.77890  1.0000 1.2516730585
P   P6        1.0  0.19080  0.49634  0.27890  1.0000 1.240647129
P   P7        1.0  0.19080  0.50366  0.72110  1.0000 1.2516730585
P   P8        1.0  0.80920  0.99634  0.22110  1.0000 1.2516730585
P   P9        1.0  0.69080  0.49634  0.22110  1.0000 1.240647129
P   P10       1.0  0.30920  0.00366  0.72110  1.0000 1.2516730585
P   P11       1.0  0.30920  0.99634  0.27890  1.0000 1.2516730585
P   P12       1.0  0.69080  0.50366  0.77890  1.0000 1.2550258555
P   P13       1.0  0.30920  0.50366  0.77890  1.0000 1.2516730585
P   P14       1.0  0.69080  0.99634  0.27890  1.0000 1.2516730585
P   P15       1.0  0.69080  0.00366  0.72110  1.0000 1.2516730585
P   P16       1.0  0.30920  0.49634  0.22110  1.0000 1.240647129
P   P17       1.0  0.24243  0.04361  0.47449  1.0000 1.1616656188
P   P18       1.0  0.75757  0.45639  0.97449  1.0000 1.1497239836
P   P19       1.0  0.75757  0.54361  0.02551  1.0000 1.1497239836
P   P20       1.0  0.24243  0.95639  0.52551  1.0000 1.1616656188
P   P21       1.0  0.75757  0.95639  0.52551  1.0000 1.1616656188
P   P22       1.0  0.24243  0.54361  0.02551  1.0000 1.1497239836
P   P23       1.0  0.24243  0.45639  0.97449  1.0000 1.1497239836
P   P24       1.0  0.75757  0.04361  0.47449  1.0000 1.1712815071
P   P25       1.0  0.74243  0.54361  0.47449  1.0000 1.1497239836
P   P26       1.0  0.25757  0.95639  0.97449  1.0000 1.1616656188
P   P27       1.0  0.25757  0.04361  0.02551  1.0000 1.1616656188
P   P28       1.0  0.74243  0.45639  0.52551  1.0000 1.1497239836
P   P29       1.0  0.25757  0.45639  0.52551  1.0000 1.1497239836
P   P30       1.0  0.74243  0.04361  0.02551  1.0000 1.1616656188
P   P31       1.0  0.74243  0.95639  0.97449  1.0000 1.1616656188
P   P32       1.0  0.25757  0.54361  0.47449  1.0000 1.1497239836
P   P33       1.0  0.10206  0.03054  0.09549  1.0000 1.5770512196
P   P34       1.0  0.89794  0.46946  0.59549  1.0000 1.5770512196
P   P35       1.0  0.89794  0.53054  0.40451  1.0000 1.5717322245
P   P36       1.0  0.10206  0.96946  0.90451  1.0000 1.5717322245
P   P37       1.0  0.89794  0.96946  0.90451  1.0000 1.5717322245
P   P38       1.0  0.10206  0.53054  0.40451  1.0000 1.5717322245
P   P39       1.0  0.10206  0.46946  0.59549  1.0000 1.5717322245
P   P40       1.0  0.89794  0.03054  0.09549  1.0000 1.5770512196
P   P41       1.0  0.60206  0.53054  0.09549  1.0000 1.5717322245
P   P42       1.0  0.39794  0.96946  0.59549  1.0000 1.5717322245
P   P43       1.0  0.39794  0.03054  0.40451  1.0000 1.5770512196
P   P44       1.0  0.60206  0.46946  0.90451  1.0000 1.5717322245
P   P45       1.0  0.39794  0.46946  0.90451  1.0000 1.5717322245
P   P46       1.0  0.60206  0.03054  0.40451  1.0000 1.5770512196
P   P47       1.0  0.60206  0.96946  0.59549  1.0000 1.5717322245
P   P48       1.0  0.39794  0.53054  0.09549  1.0000 1.5717322245
P   P49       1.0  0.20855  0.10735  0.15093  1.0000 1.5638797599
P   P50       1.0  0.79145  0.39265  0.65093  1.0000 1.5717322245
P   P51       1.0  0.79145  0.60735  0.34907  1.0000 1.5717322245
P   P52       1.0  0.20855  0.89265  0.84907  1.0000 1.5638797599
P   P53       1.0  0.79145  0.89265  0.84907  1.0000 1.5717322245
P   P54       1.0  0.20855  0.60735  0.34907  1.0000 1.5717322245
P   P55       1.0  0.20855  0.39265  0.65093  1.0000 1.5638797599
P   P56       1.0  0.79145  0.10735  0.15093  1.0000 1.5717322245
P   P57       1.0  0.70855  0.60735  0.15093  1.0000 1.5717322245
P   P58       1.0  0.29145  0.89265  0.65093  1.0000 1.5638797599
P   P59       1.0  0.29145  0.10735  0.34907  1.0000 1.5638797599
P   P60       1.0  0.70855  0.39265  0.84907  1.0000 1.5717322245
P   P61       1.0  0.29145  0.39265  0.84907  1.0000 1.5638797599
P   P62       1.0  0.70855  0.10735  0.34907  1.0000 1.5717322245
P   P63       1.0  0.70855  0.89265  0.65093  1.0000 1.5717322245
P   P64       1.0  0.29145  0.60735  0.15093  1.0000 1.5717322245
P   P65       1.0  0.21190  0.12136  0.63686  1.0000 1.5292259648
P   P66       1.0  0.78810  0.37864  0.13686  1.0000 1.5292259648
P   P67       1.0  0.78810  0.62136  0.86314  1.0000 1.5363275923
P   P68       1.0  0.21190  0.87864  0.36314  1.0000 1.5292259648
P   P69       1.0  0.78810  0.87864  0.36314  1.0000 1.5292259648
P   P70       1.0  0.21190  0.62136  0.86314  1.0000 1.5363275923
P   P71       1.0  0.21190  0.37864  0.13686  1.0000 1.5292259648
P   P72       1.0  0.78810  0.12136  0.63686  1.0000 1.5292259648
P   P73       1.0  0.71190  0.62136  0.63686  1.0000 1.5363275923
P   P74       1.0  0.28810  0.87864  0.13686  1.0000 1.5292259648
P   P75       1.0  0.28810  0.12136  0.86314  1.0000 1.5292259648
P   P76       1.0  0.71190  0.37864  0.36314  1.0000 1.5292259648
P   P77       1.0  0.28810  0.37864  0.36314  1.0000 1.5292259648
P   P78       1.0  0.71190  0.12136  0.86314  1.0000 1.5292259648
P   P79       1.0  0.71190  0.87864  0.13686  1.0000 1.5292259648
P   P80       1.0  0.28810  0.62136  0.63686  1.0000 1.5363275923
P   P81       1.0  0.21155  0.18254  0.00918  1.0000 1.5770512196
P   P82       1.0  0.78845  0.31746  0.50918  1.0000 1.5717322245
P   P83       1.0  0.78845  0.68254  0.49082  1.0000 1.5717322245
P   P84       1.0  0.21155  0.81746  0.99082  1.0000 1.5770512196
P   P85       1.0  0.78845  0.81746  0.99082  1.0000 1.5717322245
P   P86       1.0  0.21155  0.68254  0.49082  1.0000 1.5770512196
P   P87       1.0  0.21155  0.31746  0.50918  1.0000 1.5717322245
P   P88       1.0  0.78845  0.18254  0.00918  1.0000 1.5770512196
P   P89       1.0  0.71155  0.68254  0.00918  1.0000 1.5717322245
P   P90       1.0  0.28845  0.81746  0.50918  1.0000 1.5717322245
P   P91       1.0  0.28845  0.18254  0.49082  1.0000 1.5770512196
P   P92       1.0  0.71155  0.31746  0.99082  1.0000 1.5717322245
P   P93       1.0  0.28845  0.31746  0.99082  1.0000 1.5717322245
P   P94       1.0  0.71155  0.18254  0.49082  1.0000 1.5770512196
P   P95       1.0  0.71155  0.81746  0.50918  1.0000 1.5717322245
P   P96       1.0  0.28845  0.68254  0.00918  1.0000 1.5717322245
P   P97       1.0  0.08587  0.97201  0.38873  1.0000 1.6013367989
P   P98       1.0  0.91413  0.52799  0.88873  1.0000 1.6013367989
P   P99       1.0  0.91413  0.47201  0.11127  1.0000 1.6013367989
P   P100      1.0  0.08587  0.02799  0.61127  1.0000 1.6013367989
P   P101      1.0  0.91413  0.02799  0.61127  1.0000 1.6013367989
P   P102      1.0  0.08587  0.47201  0.11127  1.0000 1.6013367989
P   P103      1.0  0.08587  0.52799  0.88873  1.0000 1.6013367989
P   P104      1.0  0.91413  0.97201  0.38873  1.0000 1.6013367989
P   P105      1.0  0.58587  0.47201  0.38873  1.0000 1.6013367989
P   P106      1.0  0.41413  0.02799  0.88873  1.0000 1.6013367989
P   P107      1.0  0.41413  0.97201  0.11127  1.0000 1.6013367989
P   P108      1.0  0.58587  0.52799  0.61127  1.0000 1.6013367989
P   P109      1.0  0.41413  0.52799  0.61127  1.0000 1.6013367989
P   P110      1.0  0.58587  0.97201  0.11127  1.0000 1.6013367989
P   P111      1.0  0.58587  0.02799  0.88873  1.0000 1.6013367989
P   P112      1.0  0.41413  0.47201  0.38873  1.0000 1.6013367989
P   P113      1.0  0.79024  0.74376  0.85668  1.0000 1.6169576364
P   P114      1.0  0.20976  0.75624  0.35668  1.0000 1.6144656457
P   P115      1.0  0.20976  0.24376  0.64332  1.0000 1.6169576364
P   P116      1.0  0.79024  0.25624  0.14332  1.0000 1.6169576364
P   P117      1.0  0.20976  0.25624  0.14332  1.0000 1.6169576364
P   P118      1.0  0.79024  0.24376  0.64332  1.0000 1.6169576364
P   P119      1.0  0.79024  0.75624  0.35668  1.0000 1.6144656457
P   P120      1.0  0.20976  0.74376  0.85668  1.0000 1.6169576364
P   P121      1.0  0.29024  0.24376  0.85668  1.0000 1.6169576364
P   P122      1.0  0.70976  0.25624  0.35668  1.0000 1.6169576364
P   P123      1.0  0.70976  0.74376  0.64332  1.0000 1.6169576364
P   P124      1.0  0.29024  0.75624  0.14332  1.0000 1.6144656457
P   P125      1.0  0.70976  0.75624  0.14332  1.0000 1.6144656457
P   P126      1.0  0.29024  0.74376  0.64332  1.0000 1.6169576364
P   P127      1.0  0.29024  0.25624  0.35668  1.0000 1.6169576364
P   P128      1.0  0.70976  0.24376  0.85668  1.0000 1.6169576364
P   P129      1.0  0.00000  0.02689  0.24903  1.0000 1.4120552756
P   P130      1.0  0.00000  0.47311  0.74903  1.0000 1.4120552756
P   P131      1.0  0.00000  0.52689  0.25097  1.0000 1.4120552756
P   P132      1.0  0.00000  0.97311  0.75097  1.0000 1.4120552756
P   P133      1.0  0.50000  0.52689  0.24903  1.0000 1.4120552756
P   P134      1.0  0.50000  0.97311  0.74903  1.0000 1.4120552756
P   P135      1.0  0.50000  0.02689  0.25097  1.0000 1.4120552756
P   P136      1.0  0.50000  0.47311  0.75097  1.0000 1.4120552756
H   H1        1.0  0.02669  0.97568  0.11513  1.0000 0.4422009394
H   H2        1.0  0.97331  0.52432  0.61513  1.0000 0.4422009394
H   H3        1.0  0.97331  0.47568  0.38487  1.0000 0.4422009394
H   H4        1.0  0.02669  0.02432  0.88487  1.0000 0.4422009394
H   H5        1.0  0.97331  0.02432  0.88487  1.0000 0.4422009394
H   H6        1.0  0.02669  0.47568  0.38487  1.0000 0.4422009394
H   H7        1.0  0.02669  0.52432  0.61513  1.0000 0.4422009394
H   H8        1.0  0.97331  0.97568  0.11513  1.0000 0.4422009394
H   H9        1.0  0.52669  0.47568  0.11513  1.0000 0.4422009394
H   H10       1.0  0.47331  0.02432  0.61513  1.0000 0.4422009394
H   H11       1.0  0.47331  0.97568  0.38487  1.0000 0.4422009394
H   H12       1.0  0.52669  0.52432  0.88487  1.0000 0.4422009394
H   H13       1.0  0.47331  0.52432  0.88487  1.0000 0.4422009394
H   H14       1.0  0.52669  0.97568  0.38487  1.0000 0.4422009394
H   H15       1.0  0.52669  0.02432  0.61513  1.0000 0.4422009394
H   H16       1.0  0.47331  0.47568  0.11513  1.0000 0.4422009394
H   H17       1.0  0.20562  0.16639  0.27395  1.0000 0.4555589952
H   H18       1.0  0.79438  0.33361  0.77395  1.0000 0.4555589952
H   H19       1.0  0.79438  0.66639  0.22605  1.0000 0.4537196575
H   H20       1.0  0.20562  0.83361  0.72605  1.0000 0.4537196575
H   H21       1.0  0.79438  0.83361  0.72605  1.0000 0.4555589952
H   H22       1.0  0.20562  0.66639  0.22605  1.0000 0.4537196575
H   H23       1.0  0.20562  0.33361  0.77395  1.0000 0.4555589952
H   H24       1.0  0.79438  0.16639  0.27395  1.0000 0.4555589952
H   H25       1.0  0.70562  0.66639  0.27395  1.0000 0.4537196575
H   H26       1.0  0.29438  0.83361  0.77395  1.0000 0.4537196575
H   H27       1.0  0.29438  0.16639  0.22605  1.0000 0.4555589952
H   H28       1.0  0.70562  0.33361  0.72605  1.0000 0.4555589952
H   H29       1.0  0.29438  0.33361  0.72605  1.0000 0.4555589952
H   H30       1.0  0.70562  0.16639  0.22605  1.0000 0.4555589952
H   H31       1.0  0.70562  0.83361  0.77395  1.0000 0.4555589952
H   H32       1.0  0.29438  0.66639  0.27395  1.0000 0.4537196575
H   H33       1.0  0.21425  0.19873  0.35768  1.0000 0.474385915
H   H34       1.0  0.78575  0.30127  0.85768  1.0000 0.474385915
H   H35       1.0  0.78575  0.69873  0.14232  1.0000 0.4784322101
H   H36       1.0  0.21425  0.80127  0.64232  1.0000 0.474385915
H   H37       1.0  0.78575  0.80127  0.64232  1.0000 0.474385915
H   H38       1.0  0.21425  0.69873  0.14232  1.0000 0.4784322101
H   H39       1.0  0.21425  0.30127  0.85768  1.0000 0.474385915
H   H40       1.0  0.78575  0.19873  0.35768  1.0000 0.4784322101
H   H41       1.0  0.71425  0.69873  0.35768  1.0000 0.4784322101
H   H42       1.0  0.28575  0.80127  0.85768  1.0000 0.474385915
H   H43       1.0  0.28575  0.19873  0.14232  1.0000 0.474385915
H   H44       1.0  0.71425  0.30127  0.64232  1.0000 0.474385915
H   H45       1.0  0.28575  0.30127  0.64232  1.0000 0.474385915
H   H46       1.0  0.71425  0.19873  0.14232  1.0000 0.4784322101
H   H47       1.0  0.71425  0.80127  0.85768  1.0000 0.474385915
H   H48       1.0  0.28575  0.69873  0.35768  1.0000 0.4784322101
H   H49       1.0  0.28469  0.93821  0.34507  1.0000 0.3088101672
H   H50       1.0  0.71531  0.56179  0.84507  1.0000 0.3088101672
H   H51       1.0  0.71531  0.43821  0.15493  1.0000 0.3088101672
H   H52       1.0  0.28469  0.06179  0.65493  1.0000 0.3088101672
H   H53       1.0  0.71531  0.06179  0.65493  1.0000 0.3088101672
H   H54       1.0  0.28469  0.43821  0.15493  1.0000 0.3088101672
H   H55       1.0  0.28469  0.56179  0.84507  1.0000 0.3088101672
H   H56       1.0  0.71531  0.93821  0.34507  1.0000 0.3088101672
H   H57       1.0  0.78469  0.43821  0.34507  1.0000 0.3088101672
H   H58       1.0  0.21531  0.06179  0.84507  1.0000 0.3088101672
H   H59       1.0  0.21531  0.93821  0.15493  1.0000 0.3088101672
H   H60       1.0  0.78469  0.56179  0.65493  1.0000 0.3088101672
H   H61       1.0  0.21531  0.56179  0.65493  1.0000 0.3088101672
H   H62       1.0  0.78469  0.93821  0.15493  1.0000 0.3088101672
H   H63       1.0  0.78469  0.06179  0.84507  1.0000 0.3088101672
H   H64       1.0  0.21531  0.43821  0.34507  1.0000 0.3088101672
H   H65       1.0  0.29318  0.91435  0.38609  1.0000 0.2966790117
H   H66       1.0  0.70682  0.58565  0.88609  1.0000 0.2966790117
H   H67       1.0  0.70682  0.41435  0.11391  1.0000 0.2966790117
H   H68       1.0  0.29318  0.08565  0.61391  1.0000 0.2966790117
H   H69       1.0  0.70682  0.08565  0.61391  1.0000 0.2966790117
H   H70       1.0  0.29318  0.41435  0.11391  1.0000 0.2966790117
H   H71       1.0  0.29318  0.58565  0.88609  1.0000 0.2966790117
H   H72       1.0  0.70682  0.91435  0.38609  1.0000 0.2966790117
H   H73       1.0  0.79318  0.41435  0.38609  1.0000 0.2966790117
H   H74       1.0  0.20682  0.08565  0.88609  1.0000 0.2966790117
H   H75       1.0  0.20682  0.91435  0.11391  1.0000 0.2966790117
H   H76       1.0  0.79318  0.58565  0.61391  1.0000 0.2966790117
H   H77       1.0  0.20682  0.58565  0.61391  1.0000 0.2966790117
H   H78       1.0  0.79318  0.91435  0.11391  1.0000 0.2966790117
H   H79       1.0  0.79318  0.08565  0.88609  1.0000 0.2966790117
H   H80       1.0  0.20682  0.41435  0.38609  1.0000 0.2966790117
H   H81       1.0  0.32630  0.94000  0.46038  1.0000 0.0711541616
H   H82       1.0  0.67370  0.56000  0.96038  1.0000 0.0711541616
H   H83       1.0  0.67370  0.44000  0.03962  1.0000 0.0711541616
H   H84       1.0  0.32630  0.06000  0.53962  1.0000 0.0711541616
H   H85       1.0  0.67370  0.06000  0.53962  1.0000 0.0711541616
H   H86       1.0  0.32630  0.44000  0.03962  1.0000 0.0711541616
H   H87       1.0  0.32630  0.56000  0.96038  1.0000 0.0711541616
H   H88       1.0  0.67370  0.94000  0.46038  1.0000 0.0711541616
H   H89       1.0  0.82630  0.44000  0.46038  1.0000 0.0711541616
H   H90       1.0  0.17370  0.06000  0.96038  1.0000 0.0711541616
H   H91       1.0  0.17370  0.94000  0.03962  1.0000 0.0711541616
H   H92       1.0  0.82630  0.56000  0.53962  1.0000 0.0711541616
H   H93       1.0  0.17370  0.56000  0.53962  1.0000 0.0711541616
H   H94       1.0  0.82630  0.94000  0.03962  1.0000 0.0711541616
H   H95       1.0  0.82630  0.06000  0.96038  1.0000 0.0711541616
H   H96       1.0  0.17370  0.44000  0.46038  1.0000 0.0711541616
H   H97       1.0  0.33200  0.94545  0.28621  1.0000 0.0963073197
H   H98       1.0  0.66800  0.55455  0.78621  1.0000 0.0963073197
H   H99       1.0  0.66800  0.44545  0.21379  1.0000 0.0963073197
H   H100      1.0  0.33200  0.05455  0.71379  1.0000 0.0963073197
H   H101      1.0  0.66800  0.05455  0.71379  1.0000 0.0963073197
H   H102      1.0  0.33200  0.44545  0.21379  1.0000 0.0963073197
H   H103      1.0  0.33200  0.55455  0.78621  1.0000 0.0963073197
H   H104      1.0  0.66800  0.94545  0.28621  1.0000 0.0963073197
H   H105      1.0  0.83200  0.44545  0.28621  1.0000 0.0963073197
H   H106      1.0  0.16800  0.05455  0.78621  1.0000 0.0963073197
H   H107      1.0  0.16800  0.94545  0.21379  1.0000 0.0963073197
H   H108      1.0  0.83200  0.55455  0.71379  1.0000 0.0963073197
H   H109      1.0  0.16800  0.55455  0.71379  1.0000 0.0963073197
H   H110      1.0  0.83200  0.94545  0.21379  1.0000 0.0963073197
H   H111      1.0  0.83200  0.05455  0.78621  1.0000 0.0963073197
H   H112      1.0  0.16800  0.44545  0.28621  1.0000 0.0963073197
H   H113      1.0  0.34739  0.91028  0.24580  1.0000 0.0640123852
H   H114      1.0  0.65261  0.58972  0.74580  1.0000 0.0711541616
H   H115      1.0  0.65261  0.41028  0.25420  1.0000 0.0640123852
H   H116      1.0  0.34739  0.08972  0.75420  1.0000 0.0640123852
H   H117      1.0  0.65261  0.08972  0.75420  1.0000 0.0640123852
H   H118      1.0  0.34739  0.41028  0.25420  1.0000 0.0640123852
H   H119      1.0  0.34739  0.58972  0.74580  1.0000 0.0711541616
H   H120      1.0  0.65261  0.91028  0.24580  1.0000 0.0640123852
H   H121      1.0  0.84739  0.41028  0.24580  1.0000 0.0640123852
H   H122      1.0  0.15261  0.08972  0.74580  1.0000 0.0640123852
H   H123      1.0  0.15261  0.91028  0.25420  1.0000 0.0640123852
H   H124      1.0  0.84739  0.58972  0.75420  1.0000 0.0711541616
H   H125      1.0  0.15261  0.58972  0.75420  1.0000 0.0711541616
H   H126      1.0  0.84739  0.91028  0.25420  1.0000 0.0640123852
H   H127      1.0  0.84739  0.08972  0.74580  1.0000 0.0640123852
H   H128      1.0  0.15261  0.41028  0.24580  1.0000 0.0640123852
H   H129      1.0  0.34141  0.90403  0.41839  1.0000 0.0518861769
H   H130      1.0  0.65859  0.59597  0.91839  1.0000 0.0518861769
H   H131      1.0  0.65859  0.40403  0.08161  1.0000 0.0518861769
H   H132      1.0  0.34141  0.09597  0.58161  1.0000 0.0518861769
H   H133      1.0  0.65859  0.09597  0.58161  1.0000 0.0518861769
H   H134      1.0  0.34141  0.40403  0.08161  1.0000 0.0518861769
H   H135      1.0  0.34141  0.59597  0.91839  1.0000 0.0518861769
H   H136      1.0  0.65859  0.90403  0.41839  1.0000 0.0518861769
H   H137      1.0  0.84141  0.40403  0.41839  1.0000 0.0518861769
H   H138      1.0  0.15859  0.09597  0.91839  1.0000 0.0518861769
H   H139      1.0  0.15859  0.90403  0.08161  1.0000 0.0518861769
H   H140      1.0  0.84141  0.59597  0.58161  1.0000 0.0518861769
H   H141      1.0  0.15859  0.59597  0.58161  1.0000 0.0518861769
H   H142      1.0  0.84141  0.90403  0.08161  1.0000 0.0518861769
H   H143      1.0  0.84141  0.09597  0.91839  1.0000 0.0518861769
H   H144      1.0  0.15859  0.40403  0.41839  1.0000 0.0518861769
H   H145      1.0  0.37625  0.92864  0.49241  1.0000 0.0409563705
H   H146      1.0  0.62375  0.57136  0.99241  1.0000 0.0409563705
H   H147      1.0  0.62375  0.42864  0.00759  1.0000 0.0409563705
H   H148      1.0  0.37625  0.07136  0.50759  1.0000 0.0409563705
H   H149      1.0  0.62375  0.07136  0.50759  1.0000 0.0409563705
H   H150      1.0  0.37625  0.42864  0.00759  1.0000 0.0409563705
H   H151      1.0  0.37625  0.57136  0.99241  1.0000 0.0409563705
H   H152      1.0  0.62375  0.92864  0.49241  1.0000 0.0409563705
H   H153      1.0  0.87625  0.42864  0.49241  1.0000 0.0409563705
H   H154      1.0  0.12375  0.07136  0.99241  1.0000 0.0409563705
H   H155      1.0  0.12375  0.92864  0.00759  1.0000 0.0409563705
H   H156      1.0  0.87625  0.57136  0.50759  1.0000 0.0409563705
H   H157      1.0  0.12375  0.57136  0.50759  1.0000 0.0409563705
H   H158      1.0  0.87625  0.92864  0.00759  1.0000 0.0409563705
H   H159      1.0  0.87625  0.07136  0.99241  1.0000 0.0409563705
H   H160      1.0  0.12375  0.42864  0.49241  1.0000 0.0409563705
H   H161      1.0  0.38094  0.93779  0.32494  1.0000 0.0518861769
H   H162      1.0  0.61906  0.56221  0.82494  1.0000 0.0518861769
H   H163      1.0  0.61906  0.43779  0.17506  1.0000 0.0518861769
H   H164      1.0  0.38094  0.06221  0.67506  1.0000 0.0518861769
H   H165      1.0  0.61906  0.06221  0.67506  1.0000 0.0518861769
H   H166      1.0  0.38094  0.43779  0.17506  1.0000 0.0518861769
H   H167      1.0  0.38094  0.56221  0.82494  1.0000 0.0518861769
H   H168      1.0  0.61906  0.93779  0.32494  1.0000 0.0518861769
H   H169      1.0  0.88094  0.43779  0.32494  1.0000 0.0518861769
H   H170      1.0  0.11906  0.06221  0.82494  1.0000 0.0518861769
H   H171      1.0  0.11906  0.93779  0.17506  1.0000 0.0518861769
H   H172      1.0  0.88094  0.56221  0.67506  1.0000 0.0518861769
H   H173      1.0  0.11906  0.56221  0.67506  1.0000 0.0518861769
H   H174      1.0  0.88094  0.93779  0.17506  1.0000 0.0518861769
H   H175      1.0  0.88094  0.06221  0.82494  1.0000 0.0518861769
H   H176      1.0  0.11906  0.43779  0.32494  1.0000 0.0518861769
H   H177      1.0  0.41868  0.91501  0.38944  1.0000 0.0900316024
H   H178      1.0  0.58132  0.58499  0.88944  1.0000 0.0900316024
H   H179      1.0  0.58132  0.41501  0.11056  1.0000 0.0900316024
H   H180      1.0  0.41868  0.08499  0.61056  1.0000 0.0900316024
H   H181      1.0  0.58132  0.08499  0.61056  1.0000 0.0900316024
H   H182      1.0  0.41868  0.41501  0.11056  1.0000 0.0900316024
H   H183      1.0  0.41868  0.58499  0.88944  1.0000 0.0900316024
H   H184      1.0  0.58132  0.91501  0.38944  1.0000 0.0900316024
H   H185      1.0  0.91868  0.41501  0.38944  1.0000 0.0900316024
H   H186      1.0  0.08132  0.08499  0.88944  1.0000 0.0900316024
H   H187      1.0  0.08132  0.91501  0.11056  1.0000 0.0900316024
H   H188      1.0  0.91868  0.58499  0.61056  1.0000 0.0900316024
H   H189      1.0  0.08132  0.58499  0.61056  1.0000 0.0900316024
H   H190      1.0  0.91868  0.91501  0.11056  1.0000 0.0900316024
H   H191      1.0  0.91868  0.08499  0.88944  1.0000 0.0900316024
H   H192      1.0  0.08132  0.41501  0.38944  1.0000 0.0900316024
H   H193      1.0  0.39904  0.90422  0.25477  1.0000 0.0963073197
H   H194      1.0  0.60096  0.59578  0.75477  1.0000 0.0900316024
H   H195      1.0  0.60096  0.40422  0.24523  1.0000 0.0900316024
H   H196      1.0  0.39904  0.09578  0.74523  1.0000 0.0900316024
H   H197      1.0  0.60096  0.09578  0.74523  1.0000 0.0900316024
H   H198      1.0  0.39904  0.40422  0.24523  1.0000 0.0900316024
H   H199      1.0  0.39904  0.59578  0.75477  1.0000 0.0900316024
H   H200      1.0  0.60096  0.90422  0.25477  1.0000 0.0963073197
H   H201      1.0  0.89904  0.40422  0.25477  1.0000 0.0900316024
H   H202      1.0  0.10096  0.09578  0.75477  1.0000 0.0900316024
H   H203      1.0  0.10096  0.90422  0.24523  1.0000 0.0900316024
H   H204      1.0  0.89904  0.59578  0.74523  1.0000 0.0900316024
H   H205      1.0  0.10096  0.59578  0.74523  1.0000 0.0900316024
H   H206      1.0  0.89904  0.90422  0.24523  1.0000 0.0963073197
H   H207      1.0  0.89904  0.09578  0.75477  1.0000 0.0900316024
H   H208      1.0  0.10096  0.40422  0.25477  1.0000 0.0900316024
H   H209      1.0  0.39464  0.89491  0.42343  1.0000 0.0900316024
H   H210      1.0  0.60536  0.60509  0.92343  1.0000 0.0900316024
H   H211      1.0  0.60536  0.39491  0.07657  1.0000 0.0900316024
H   H212      1.0  0.39464  0.10509  0.57657  1.0000 0.0900316024
H   H213      1.0  0.60536  0.10509  0.57657  1.0000 0.0900316024
H   H214      1.0  0.39464  0.39491  0.07657  1.0000 0.0900316024
H   H215      1.0  0.39464  0.60509  0.92343  1.0000 0.0900316024
H   H216      1.0  0.60536  0.89491  0.42343  1.0000 0.0900316024
H   H217      1.0  0.89464  0.39491  0.42343  1.0000 0.0900316024
H   H218      1.0  0.10536  0.10509  0.92343  1.0000 0.0900316024
H   H219      1.0  0.10536  0.89491  0.07657  1.0000 0.0900316024
H   H220      1.0  0.89464  0.60509  0.57657  1.0000 0.0900316024
H   H221      1.0  0.10536  0.60509  0.57657  1.0000 0.0900316024
H   H222      1.0  0.89464  0.89491  0.07657  1.0000 0.0900316024
H   H223      1.0  0.89464  0.10509  0.92343  1.0000 0.0900316024
H   H224      1.0  0.10536  0.39491  0.42343  1.0000 0.0900316024
H   H225      1.0  0.79734  0.57739  0.77423  1.0000 0.3088101672
H   H226      1.0  0.20266  0.92261  0.27423  1.0000 0.3088101672
H   H227      1.0  0.20266  0.07739  0.72577  1.0000 0.3088101672
H   H228      1.0  0.79734  0.42261  0.22577  1.0000 0.3088101672
H   H229      1.0  0.20266  0.42261  0.22577  1.0000 0.3088101672
H   H230      1.0  0.79734  0.07739  0.72577  1.0000 0.3088101672
H   H231      1.0  0.79734  0.92261  0.27423  1.0000 0.3088101672
H   H232      1.0  0.20266  0.57739  0.77423  1.0000 0.3088101672
H   H233      1.0  0.29734  0.07739  0.77423  1.0000 0.3088101672
H   H234      1.0  0.70266  0.42261  0.27423  1.0000 0.3088101672
H   H235      1.0  0.70266  0.57739  0.72577  1.0000 0.3088101672
H   H236      1.0  0.29734  0.92261  0.22577  1.0000 0.3088101672
H   H237      1.0  0.70266  0.92261  0.22577  1.0000 0.3088101672
H   H238      1.0  0.29734  0.57739  0.72577  1.0000 0.3088101672
H   H239      1.0  0.29734  0.42261  0.27423  1.0000 0.3088101672
H   H240      1.0  0.70266  0.07739  0.77423  1.0000 0.3088101672
H   H241      1.0  0.00000  0.04395  0.15886  1.0000 -0.2819036476
H   H242      1.0  0.00000  0.45605  0.65886  1.0000 -0.2819036476
H   H243      1.0  0.00000  0.54395  0.34114  1.0000 -0.2819036476
H   H244      1.0  0.00000  0.95605  0.84114  1.0000 -0.2819036476
H   H245      1.0  0.50000  0.54395  0.15886  1.0000 -0.2819036476
H   H246      1.0  0.50000  0.95605  0.65886  1.0000 -0.2819036476
H   H247      1.0  0.50000  0.04395  0.34114  1.0000 -0.2819036476
H   H248      1.0  0.50000  0.45605  0.84114  1.0000 -0.2819036476
C   C1        1.0  0.32625  0.93352  0.35821  1.0000 0.0409563705
C   C2        1.0  0.67375  0.56648  0.85821  1.0000 0.0409563705
C   C3        1.0  0.67375  0.43352  0.14179  1.0000 0.0409563705
C   C4        1.0  0.32625  0.06648  0.64179  1.0000 0.0409563705
C   C5        1.0  0.67375  0.06648  0.64179  1.0000 0.0409563705
C   C6        1.0  0.32625  0.43352  0.14179  1.0000 0.0409563705
C   C7        1.0  0.32625  0.56648  0.85821  1.0000 0.0409563705
C   C8        1.0  0.67375  0.93352  0.35821  1.0000 0.0409563705
C   C9        1.0  0.82625  0.43352  0.35821  1.0000 0.0409563705
C   C10       1.0  0.17375  0.06648  0.85821  1.0000 0.0409563705
C   C11       1.0  0.17375  0.93352  0.14179  1.0000 0.0409563705
C   C12       1.0  0.82625  0.56648  0.64179  1.0000 0.0409563705
C   C13       1.0  0.17375  0.56648  0.64179  1.0000 0.0409563705
C   C14       1.0  0.82625  0.93352  0.14179  1.0000 0.0409563705
C   C15       1.0  0.82625  0.06648  0.85821  1.0000 0.0409563705
C   C16       1.0  0.17375  0.43352  0.35821  1.0000 0.0409563705
C   C17       1.0  0.34732  0.91637  0.34892  1.0000 -0.1740709364
C   C18       1.0  0.65268  0.58363  0.84892  1.0000 -0.1740709364
C   C19       1.0  0.65268  0.41637  0.15108  1.0000 -0.1740709364
C   C20       1.0  0.34732  0.08363  0.65108  1.0000 -0.1740709364
C   C21       1.0  0.65268  0.08363  0.65108  1.0000 -0.1740709364
C   C22       1.0  0.34732  0.41637  0.15108  1.0000 -0.1740709364
C   C23       1.0  0.34732  0.58363  0.84892  1.0000 -0.1740709364
C   C24       1.0  0.65268  0.91637  0.34892  1.0000 -0.1740709364
C   C25       1.0  0.84732  0.41637  0.34892  1.0000 -0.1740709364
C   C26       1.0  0.15268  0.08363  0.84892  1.0000 -0.1740709364
C   C27       1.0  0.15268  0.91637  0.15108  1.0000 -0.1740709364
C   C28       1.0  0.84732  0.58363  0.65108  1.0000 -0.1740709364
C   C29       1.0  0.15268  0.58363  0.65108  1.0000 -0.1740709364
C   C30       1.0  0.84732  0.91637  0.15108  1.0000 -0.1740709364
C   C31       1.0  0.84732  0.08363  0.84892  1.0000 -0.1740709364
C   C32       1.0  0.15268  0.41637  0.34892  1.0000 -0.1740709364
C   C33       1.0  0.37604  0.92424  0.38553  1.0000 -0.0712429283
C   C34       1.0  0.62396  0.57576  0.88553  1.0000 -0.0712429283
C   C35       1.0  0.62396  0.42424  0.11447  1.0000 -0.0712429283
C   C36       1.0  0.37604  0.07576  0.61447  1.0000 -0.0712429283
C   C37       1.0  0.62396  0.07576  0.61447  1.0000 -0.0712429283
C   C38       1.0  0.37604  0.42424  0.11447  1.0000 -0.0712429283
C   C39       1.0  0.37604  0.57576  0.88553  1.0000 -0.0712429283
C   C40       1.0  0.62396  0.92424  0.38553  1.0000 -0.0712429283
C   C41       1.0  0.87604  0.42424  0.38553  1.0000 -0.0712429283
C   C42       1.0  0.12396  0.07576  0.88553  1.0000 -0.0712429283
C   C43       1.0  0.12396  0.92424  0.11447  1.0000 -0.0712429283
C   C44       1.0  0.87604  0.57576  0.61447  1.0000 -0.0712429283
C   C45       1.0  0.12396  0.57576  0.61447  1.0000 -0.0712429283
C   C46       1.0  0.87604  0.92424  0.11447  1.0000 -0.0712429283
C   C47       1.0  0.87604  0.07576  0.88553  1.0000 -0.0712429283
C   C48       1.0  0.12396  0.42424  0.38553  1.0000 -0.0712429283
C   C49       1.0  0.39840  0.90852  0.36158  1.0000 -0.3288931966
C   C50       1.0  0.60160  0.59148  0.86158  1.0000 -0.3288931966
C   C51       1.0  0.60160  0.40852  0.13842  1.0000 -0.3288931966
C   C52       1.0  0.39840  0.09148  0.63842  1.0000 -0.3288931966
C   C53       1.0  0.60160  0.09148  0.63842  1.0000 -0.3288931966
C   C54       1.0  0.39840  0.40852  0.13842  1.0000 -0.3288931966
C   C55       1.0  0.39840  0.59148  0.86158  1.0000 -0.3288931966
C   C56       1.0  0.60160  0.90852  0.36158  1.0000 -0.3288931966
C   C57       1.0  0.89840  0.40852  0.36158  1.0000 -0.3288931966
C   C58       1.0  0.10160  0.09148  0.86158  1.0000 -0.3288931966
C   C59       1.0  0.10160  0.90852  0.13842  1.0000 -0.3288931966
C   C60       1.0  0.89840  0.59148  0.63842  1.0000 -0.3288931966
C   C61       1.0  0.10160  0.59148  0.63842  1.0000 -0.3288931966
C   C62       1.0  0.89840  0.90852  0.13842  1.0000 -0.3288931966
C   C63       1.0  0.89840  0.09148  0.86158  1.0000 -0.3288931966
C   C64       1.0  0.10160  0.40852  0.36158  1.0000 -0.3288931966
N   N1        1.0  0.29851  0.92655  0.32626  1.0000 -0.4939258851
N   N2        1.0  0.70149  0.57345  0.82626  1.0000 -0.4939258851
N   N3        1.0  0.70149  0.42655  0.17374  1.0000 -0.4939258851
N   N4        1.0  0.29851  0.07345  0.67374  1.0000 -0.4939258851
N   N5        1.0  0.70149  0.07345  0.67374  1.0000 -0.4939258851
N   N6        1.0  0.29851  0.42655  0.17374  1.0000 -0.4939258851
N   N7        1.0  0.29851  0.57345  0.82626  1.0000 -0.4939258851
N   N8        1.0  0.70149  0.92655  0.32626  1.0000 -0.4939258851
N   N9        1.0  0.79851  0.42655  0.32626  1.0000 -0.4939258851
N   N10       1.0  0.20149  0.07345  0.82626  1.0000 -0.4939258851
N   N11       1.0  0.20149  0.92655  0.17374  1.0000 -0.4939258851
N   N12       1.0  0.79851  0.57345  0.67374  1.0000 -0.4939258851
N   N13       1.0  0.20149  0.57345  0.67374  1.0000 -0.4939258851
N   N14       1.0  0.79851  0.92655  0.17374  1.0000 -0.4939258851
N   N15       1.0  0.79851  0.07345  0.82626  1.0000 -0.4939258851
N   N16       1.0  0.20149  0.42655  0.32626  1.0000 -0.4939258851
O   O1        1.0  0.21452  0.97924  0.18666  1.0000 -0.7706901126
O   O2        1.0  0.78548  0.52076  0.68666  1.0000 -0.7706901126
O   O3        1.0  0.78548  0.47924  0.31334  1.0000 -0.7706901126
O   O4        1.0  0.21452  0.02076  0.81334  1.0000 -0.7706901126
O   O5        1.0  0.78548  0.02076  0.81334  1.0000 -0.7706901126
O   O6        1.0  0.21452  0.47924  0.31334  1.0000 -0.7706901126
O   O7        1.0  0.21452  0.52076  0.68666  1.0000 -0.7706901126
O   O8        1.0  0.78548  0.97924  0.18666  1.0000 -0.7706901126
O   O9        1.0  0.71452  0.47924  0.18666  1.0000 -0.7706901126
O   O10       1.0  0.28548  0.02076  0.68666  1.0000 -0.7706901126
O   O11       1.0  0.28548  0.97924  0.31334  1.0000 -0.7706901126
O   O12       1.0  0.71452  0.52076  0.81334  1.0000 -0.7706901126
O   O13       1.0  0.28548  0.52076  0.81334  1.0000 -0.7706901126
O   O14       1.0  0.71452  0.97924  0.31334  1.0000 -0.7706901126
O   O15       1.0  0.71452  0.02076  0.68666  1.0000 -0.7706901126
O   O16       1.0  0.28548  0.47924  0.18666  1.0000 -0.7706901126
O   O17       1.0  0.16379  0.98204  0.18461  1.0000 -0.7706901126
O   O18       1.0  0.83621  0.51796  0.68461  1.0000 -0.7706901126
O   O19       1.0  0.83621  0.48204  0.31539  1.0000 -0.7706901126
O   O20       1.0  0.16379  0.01796  0.81539  1.0000 -0.7706901126
O   O21       1.0  0.83621  0.01796  0.81539  1.0000 -0.7706901126
O   O22       1.0  0.16379  0.48204  0.31539  1.0000 -0.7706901126
O   O23       1.0  0.16379  0.51796  0.68461  1.0000 -0.7706901126
O   O24       1.0  0.83621  0.98204  0.18461  1.0000 -0.7706901126
O   O25       1.0  0.66379  0.48204  0.18461  1.0000 -0.7706901126
O   O26       1.0  0.33621  0.01796  0.68461  1.0000 -0.7706901126
O   O27       1.0  0.33621  0.98204  0.31539  1.0000 -0.7706901126
O   O28       1.0  0.66379  0.51796  0.81539  1.0000 -0.7706901126
O   O29       1.0  0.33621  0.51796  0.81539  1.0000 -0.7706901126
O   O30       1.0  0.66379  0.98204  0.31539  1.0000 -0.7706901126
O   O31       1.0  0.66379  0.01796  0.68461  1.0000 -0.7706901126
O   O32       1.0  0.33621  0.48204  0.18461  1.0000 -0.7706901126
O   O33       1.0  0.18992  0.99232  0.38201  1.0000 -0.6923252128
O   O34       1.0  0.81008  0.50768  0.88201  1.0000 -0.6923252128
O   O35       1.0  0.81008  0.49232  0.11799  1.0000 -0.6923252128
O   O36       1.0  0.18992  0.00768  0.61799  1.0000 -0.6923252128
O   O37       1.0  0.81008  0.00768  0.61799  1.0000 -0.6923252128
O   O38       1.0  0.18992  0.49232  0.11799  1.0000 -0.6923252128
O   O39       1.0  0.18992  0.50768  0.88201  1.0000 -0.6923252128
O   O40       1.0  0.81008  0.99232  0.38201  1.0000 -0.6923252128
O   O41       1.0  0.68992  0.49232  0.38201  1.0000 -0.6923252128
O   O42       1.0  0.31008  0.00768  0.88201  1.0000 -0.6923252128
O   O43       1.0  0.31008  0.99232  0.11799  1.0000 -0.6923252128
O   O44       1.0  0.68992  0.50768  0.61799  1.0000 -0.6923252128
O   O45       1.0  0.31008  0.50768  0.61799  1.0000 -0.6923252128
O   O46       1.0  0.68992  0.99232  0.11799  1.0000 -0.6923252128
O   O47       1.0  0.68992  0.00768  0.88201  1.0000 -0.6923252128
O   O48       1.0  0.31008  0.49232  0.38201  1.0000 -0.6923252128
O   O49       1.0  0.21894  0.02631  0.44156  1.0000 -0.7502916564
O   O50       1.0  0.78106  0.47369  0.94156  1.0000 -0.7502916564
O   O51       1.0  0.78106  0.52631  0.05844  1.0000 -0.7502916564
O   O52       1.0  0.21894  0.97369  0.55844  1.0000 -0.7502916564
O   O53       1.0  0.78106  0.97369  0.55844  1.0000 -0.7502916564
O   O54       1.0  0.21894  0.52631  0.05844  1.0000 -0.7502916564
O   O55       1.0  0.21894  0.47369  0.94156  1.0000 -0.7502916564
O   O56       1.0  0.78106  0.02631  0.44156  1.0000 -0.7502916564
O   O57       1.0  0.71894  0.52631  0.44156  1.0000 -0.7502916564
O   O58       1.0  0.28106  0.97369  0.94156  1.0000 -0.7502916564
O   O59       1.0  0.28106  0.02631  0.05844  1.0000 -0.7502916564
O   O60       1.0  0.71894  0.47369  0.55844  1.0000 -0.7502916564
O   O61       1.0  0.28106  0.47369  0.55844  1.0000 -0.7502916564
O   O62       1.0  0.71894  0.02631  0.05844  1.0000 -0.7502916564
O   O63       1.0  0.71894  0.97369  0.94156  1.0000 -0.7502916564
O   O64       1.0  0.28106  0.52631  0.44156  1.0000 -0.7502916564
O   O65       1.0  0.26176  0.95652  0.13654  1.0000 -0.7296337184
O   O66       1.0  0.73824  0.54348  0.63654  1.0000 -0.7296337184
O   O67       1.0  0.73824  0.45652  0.36346  1.0000 -0.7296337184
O   O68       1.0  0.26176  0.04348  0.86346  1.0000 -0.7296337184
O   O69       1.0  0.73824  0.04348  0.86346  1.0000 -0.7296337184
O   O70       1.0  0.26176  0.45652  0.36346  1.0000 -0.7296337184
O   O71       1.0  0.26176  0.54348  0.63654  1.0000 -0.7296337184
O   O72       1.0  0.73824  0.95652  0.13654  1.0000 -0.7296337184
O   O73       1.0  0.76176  0.45652  0.13654  1.0000 -0.7296337184
O   O74       1.0  0.23824  0.04348  0.63654  1.0000 -0.7296337184
O   O75       1.0  0.23824  0.95652  0.36346  1.0000 -0.7296337184
O   O76       1.0  0.76176  0.54348  0.86346  1.0000 -0.7296337184
O   O77       1.0  0.23824  0.54348  0.86346  1.0000 -0.7296337184
O   O78       1.0  0.76176  0.95652  0.36346  1.0000 -0.7296337184
O   O79       1.0  0.76176  0.04348  0.63654  1.0000 -0.7296337184
O   O80       1.0  0.23824  0.45652  0.13654  1.0000 -0.7296337184
O   O81       1.0  0.22266  0.06356  0.44435  1.0000 -0.7502916564
O   O82       1.0  0.77734  0.43644  0.94435  1.0000 -0.7502916564
O   O83       1.0  0.77734  0.56356  0.05565  1.0000 -0.7502916564
O   O84       1.0  0.22266  0.93644  0.55565  1.0000 -0.7502916564
O   O85       1.0  0.77734  0.93644  0.55565  1.0000 -0.7502916564
O   O86       1.0  0.22266  0.56356  0.05565  1.0000 -0.7502916564
O   O87       1.0  0.22266  0.43644  0.94435  1.0000 -0.7502916564
O   O88       1.0  0.77734  0.06356  0.44435  1.0000 -0.7502916564
O   O89       1.0  0.72266  0.56356  0.44435  1.0000 -0.7502916564
O   O90       1.0  0.27734  0.93644  0.94435  1.0000 -0.7502916564
O   O91       1.0  0.27734  0.06356  0.05565  1.0000 -0.7502916564
O   O92       1.0  0.72266  0.43644  0.55565  1.0000 -0.7502916564
O   O93       1.0  0.27734  0.43644  0.55565  1.0000 -0.7502916564
O   O94       1.0  0.72266  0.06356  0.05565  1.0000 -0.7502916564
O   O95       1.0  0.72266  0.93644  0.94435  1.0000 -0.7502916564
O   O96       1.0  0.27734  0.56356  0.44435  1.0000 -0.7502916564
O   O97       1.0  0.12763  0.01665  0.14236  1.0000 -0.7706901126
O   O98       1.0  0.87237  0.48335  0.64236  1.0000 -0.7706901126
O   O99       1.0  0.87237  0.51665  0.35764  1.0000 -0.7706901126
O   O100      1.0  0.12763  0.98335  0.85764  1.0000 -0.7706901126
O   O101      1.0  0.87237  0.98335  0.85764  1.0000 -0.7706901126
O   O102      1.0  0.12763  0.51665  0.35764  1.0000 -0.7706901126
O   O103      1.0  0.12763  0.48335  0.64236  1.0000 -0.7706901126
O   O104      1.0  0.87237  0.01665  0.14236  1.0000 -0.7706901126
O   O105      1.0  0.62763  0.51665  0.14236  1.0000 -0.7706901126
O   O106      1.0  0.37237  0.98335  0.64236  1.0000 -0.7706901126
O   O107      1.0  0.37237  0.01665  0.35764  1.0000 -0.7706901126
O   O108      1.0  0.62763  0.48335  0.85764  1.0000 -0.7706901126
O   O109      1.0  0.37237  0.48335  0.85764  1.0000 -0.7706901126
O   O110      1.0  0.62763  0.01665  0.35764  1.0000 -0.7706901126
O   O111      1.0  0.62763  0.98335  0.64236  1.0000 -0.7706901126
O   O112      1.0  0.37237  0.51665  0.14236  1.0000 -0.7706901126
O   O113      1.0  0.07761  0.01578  0.15361  1.0000 -0.7608886318
O   O114      1.0  0.92239  0.48422  0.65361  1.0000 -0.7608886318
O   O115      1.0  0.92239  0.51578  0.34639  1.0000 -0.7608886318
O   O116      1.0  0.07761  0.98422  0.84639  1.0000 -0.7608886318
O   O117      1.0  0.92239  0.98422  0.84639  1.0000 -0.7608886318
O   O118      1.0  0.07761  0.51578  0.34639  1.0000 -0.7608886318
O   O119      1.0  0.07761  0.48422  0.65361  1.0000 -0.7608886318
O   O120      1.0  0.92239  0.01578  0.15361  1.0000 -0.7608886318
O   O121      1.0  0.57761  0.51578  0.15361  1.0000 -0.7608886318
O   O122      1.0  0.42239  0.98422  0.65361  1.0000 -0.7608886318
O   O123      1.0  0.42239  0.01578  0.34639  1.0000 -0.7608886318
O   O124      1.0  0.57761  0.48422  0.84639  1.0000 -0.7608886318
O   O125      1.0  0.42239  0.48422  0.84639  1.0000 -0.7608886318
O   O126      1.0  0.57761  0.01578  0.34639  1.0000 -0.7608886318
O   O127      1.0  0.57761  0.98422  0.65361  1.0000 -0.7608886318
O   O128      1.0  0.42239  0.51578  0.15361  1.0000 -0.7608886318
O   O129      1.0  0.10170  0.97811  0.05788  1.0000 -0.7789427872
O   O130      1.0  0.89830  0.52189  0.55788  1.0000 -0.7789427872
O   O131      1.0  0.89830  0.47811  0.44212  1.0000 -0.7789427872
O   O132      1.0  0.10170  0.02189  0.94212  1.0000 -0.7789427872
O   O133      1.0  0.89830  0.02189  0.94212  1.0000 -0.7789427872
O   O134      1.0  0.10170  0.47811  0.44212  1.0000 -0.7789427872
O   O135      1.0  0.10170  0.52189  0.55788  1.0000 -0.7789427872
O   O136      1.0  0.89830  0.97811  0.05788  1.0000 -0.7789427872
O   O137      1.0  0.60170  0.47811  0.05788  1.0000 -0.7789427872
O   O138      1.0  0.39830  0.02189  0.55788  1.0000 -0.7789427872
O   O139      1.0  0.39830  0.97811  0.44212  1.0000 -0.7789427872
O   O140      1.0  0.60170  0.52189  0.94212  1.0000 -0.7789427872
O   O141      1.0  0.39830  0.52189  0.94212  1.0000 -0.7789427872
O   O142      1.0  0.60170  0.97811  0.44212  1.0000 -0.7789427872
O   O143      1.0  0.60170  0.02189  0.55788  1.0000 -0.7789427872
O   O144      1.0  0.39830  0.47811  0.05788  1.0000 -0.7789427872
O   O145      1.0  0.22835  0.12574  0.09645  1.0000 -0.7608886318
O   O146      1.0  0.77165  0.37426  0.59645  1.0000 -0.7608886318
O   O147      1.0  0.77165  0.62574  0.40355  1.0000 -0.7608886318
O   O148      1.0  0.22835  0.87426  0.90355  1.0000 -0.7608886318
O   O149      1.0  0.77165  0.87426  0.90355  1.0000 -0.7608886318
O   O150      1.0  0.22835  0.62574  0.40355  1.0000 -0.7608886318
O   O151      1.0  0.22835  0.37426  0.59645  1.0000 -0.7608886318
O   O152      1.0  0.77165  0.12574  0.09645  1.0000 -0.7608886318
O   O153      1.0  0.72835  0.62574  0.09645  1.0000 -0.7608886318
O   O154      1.0  0.27165  0.87426  0.59645  1.0000 -0.7608886318
O   O155      1.0  0.27165  0.12574  0.40355  1.0000 -0.7608886318
O   O156      1.0  0.72835  0.37426  0.90355  1.0000 -0.7608886318
O   O157      1.0  0.27165  0.37426  0.90355  1.0000 -0.7608886318
O   O158      1.0  0.72835  0.12574  0.40355  1.0000 -0.7608886318
O   O159      1.0  0.72835  0.87426  0.59645  1.0000 -0.7608886318
O   O160      1.0  0.27165  0.62574  0.09645  1.0000 -0.7608886318
O   O161      1.0  0.21805  0.10850  0.30782  1.0000 -0.7706901126
O   O162      1.0  0.78195  0.39150  0.80782  1.0000 -0.7706901126
O   O163      1.0  0.78195  0.60850  0.19218  1.0000 -0.7706901126
O   O164      1.0  0.21805  0.89150  0.69218  1.0000 -0.7706901126
O   O165      1.0  0.78195  0.89150  0.69218  1.0000 -0.7706901126
O   O166      1.0  0.21805  0.60850  0.19218  1.0000 -0.7608886318
O   O167      1.0  0.21805  0.39150  0.80782  1.0000 -0.7706901126
O   O168      1.0  0.78195  0.10850  0.30782  1.0000 -0.7706901126
O   O169      1.0  0.71805  0.60850  0.30782  1.0000 -0.7706901126
O   O170      1.0  0.28195  0.89150  0.80782  1.0000 -0.7706901126
O   O171      1.0  0.28195  0.10850  0.19218  1.0000 -0.7706901126
O   O172      1.0  0.71805  0.39150  0.69218  1.0000 -0.7706901126
O   O173      1.0  0.28195  0.39150  0.69218  1.0000 -0.7706901126
O   O174      1.0  0.71805  0.10850  0.19218  1.0000 -0.7706901126
O   O175      1.0  0.71805  0.89150  0.80782  1.0000 -0.7706901126
O   O176      1.0  0.28195  0.60850  0.30782  1.0000 -0.7608886318
O   O177      1.0  0.27070  0.08907  0.38542  1.0000 -0.8115510401
O   O178      1.0  0.72930  0.41093  0.88542  1.0000 -0.8115510401
O   O179      1.0  0.72930  0.58907  0.11458  1.0000 -0.8115510401
O   O180      1.0  0.27070  0.91093  0.61458  1.0000 -0.8115510401
O   O181      1.0  0.72930  0.91093  0.61458  1.0000 -0.8115510401
O   O182      1.0  0.27070  0.58907  0.11458  1.0000 -0.8115510401
O   O183      1.0  0.27070  0.41093  0.88542  1.0000 -0.8115510401
O   O184      1.0  0.72930  0.08907  0.38542  1.0000 -0.8115510401
O   O185      1.0  0.77070  0.58907  0.38542  1.0000 -0.8115510401
O   O186      1.0  0.22930  0.91093  0.88542  1.0000 -0.8115510401
O   O187      1.0  0.22930  0.08907  0.11458  1.0000 -0.8115510401
O   O188      1.0  0.77070  0.41093  0.61458  1.0000 -0.8115510401
O   O189      1.0  0.22930  0.41093  0.61458  1.0000 -0.8115510401
O   O190      1.0  0.77070  0.08907  0.11458  1.0000 -0.8115510401
O   O191      1.0  0.77070  0.91093  0.88542  1.0000 -0.8115510401
O   O192      1.0  0.22930  0.58907  0.38542  1.0000 -0.8115510401
O   O193      1.0  0.23365  0.10351  0.59700  1.0000 -0.8185593642
O   O194      1.0  0.76635  0.39649  0.09700  1.0000 -0.8185593642
O   O195      1.0  0.76635  0.60351  0.90300  1.0000 -0.8185593642
O   O196      1.0  0.23365  0.89649  0.40300  1.0000 -0.8185593642
O   O197      1.0  0.76635  0.89649  0.40300  1.0000 -0.8185593642
O   O198      1.0  0.23365  0.60351  0.90300  1.0000 -0.8185593642
O   O199      1.0  0.23365  0.39649  0.09700  1.0000 -0.8185593642
O   O200      1.0  0.76635  0.10351  0.59700  1.0000 -0.8185593642
O   O201      1.0  0.73365  0.60351  0.59700  1.0000 -0.8185593642
O   O202      1.0  0.26635  0.89649  0.09700  1.0000 -0.8185593642
O   O203      1.0  0.26635  0.10351  0.90300  1.0000 -0.8185593642
O   O204      1.0  0.73365  0.39649  0.40300  1.0000 -0.8185593642
O   O205      1.0  0.26635  0.39649  0.40300  1.0000 -0.8185593642
O   O206      1.0  0.73365  0.10351  0.90300  1.0000 -0.8185593642
O   O207      1.0  0.73365  0.89649  0.09700  1.0000 -0.8185593642
O   O208      1.0  0.26635  0.60351  0.59700  1.0000 -0.8185593642
O   O209      1.0  0.21635  0.11943  0.79808  1.0000 -0.8115510401
O   O210      1.0  0.78365  0.38057  0.29808  1.0000 -0.8115510401
O   O211      1.0  0.78365  0.61943  0.70192  1.0000 -0.8115510401
O   O212      1.0  0.21635  0.88057  0.20192  1.0000 -0.8115510401
O   O213      1.0  0.78365  0.88057  0.20192  1.0000 -0.8115510401
O   O214      1.0  0.21635  0.61943  0.70192  1.0000 -0.8115510401
O   O215      1.0  0.21635  0.38057  0.29808  1.0000 -0.8115510401
O   O216      1.0  0.78365  0.11943  0.79808  1.0000 -0.8115510401
O   O217      1.0  0.71635  0.61943  0.79808  1.0000 -0.8115510401
O   O218      1.0  0.28365  0.88057  0.29808  1.0000 -0.8115510401
O   O219      1.0  0.28365  0.11943  0.70192  1.0000 -0.8115510401
O   O220      1.0  0.71635  0.38057  0.20192  1.0000 -0.8115510401
O   O221      1.0  0.28365  0.38057  0.20192  1.0000 -0.8115510401
O   O222      1.0  0.71635  0.11943  0.70192  1.0000 -0.8115510401
O   O223      1.0  0.71635  0.88057  0.29808  1.0000 -0.8115510401
O   O224      1.0  0.28365  0.61943  0.79808  1.0000 -0.8115510401
O   O225      1.0  0.26652  0.13981  0.88236  1.0000 -0.7296337184
O   O226      1.0  0.73348  0.36019  0.38236  1.0000 -0.7296337184
O   O227      1.0  0.73348  0.63981  0.61764  1.0000 -0.7296337184
O   O228      1.0  0.26652  0.86019  0.11764  1.0000 -0.7296337184
O   O229      1.0  0.73348  0.86019  0.11764  1.0000 -0.7296337184
O   O230      1.0  0.26652  0.63981  0.61764  1.0000 -0.7296337184
O   O231      1.0  0.26652  0.36019  0.38236  1.0000 -0.7296337184
O   O232      1.0  0.73348  0.13981  0.88236  1.0000 -0.7296337184
O   O233      1.0  0.76652  0.63981  0.88236  1.0000 -0.7296337184
O   O234      1.0  0.23348  0.86019  0.38236  1.0000 -0.7296337184
O   O235      1.0  0.23348  0.13981  0.61764  1.0000 -0.7296337184
O   O236      1.0  0.76652  0.36019  0.11764  1.0000 -0.7296337184
O   O237      1.0  0.23348  0.36019  0.11764  1.0000 -0.7296337184
O   O238      1.0  0.76652  0.13981  0.61764  1.0000 -0.7296337184
O   O239      1.0  0.76652  0.86019  0.38236  1.0000 -0.7296337184
O   O240      1.0  0.23348  0.63981  0.88236  1.0000 -0.7296337184
O   O241      1.0  0.24251  0.18125  0.06935  1.0000 -0.7371445728
O   O242      1.0  0.75749  0.31875  0.56935  1.0000 -0.7296337184
O   O243      1.0  0.75749  0.68125  0.43065  1.0000 -0.7296337184
O   O244      1.0  0.24251  0.81875  0.93065  1.0000 -0.7371445728
O   O245      1.0  0.75749  0.81875  0.93065  1.0000 -0.7371445728
O   O246      1.0  0.24251  0.68125  0.43065  1.0000 -0.7296337184
O   O247      1.0  0.24251  0.31875  0.56935  1.0000 -0.7296337184
O   O248      1.0  0.75749  0.18125  0.06935  1.0000 -0.7371445728
O   O249      1.0  0.74251  0.68125  0.06935  1.0000 -0.7296337184
O   O250      1.0  0.25749  0.81875  0.56935  1.0000 -0.7371445728
O   O251      1.0  0.25749  0.18125  0.43065  1.0000 -0.7371445728
O   O252      1.0  0.74251  0.31875  0.93065  1.0000 -0.7296337184
O   O253      1.0  0.25749  0.31875  0.93065  1.0000 -0.7296337184
O   O254      1.0  0.74251  0.18125  0.43065  1.0000 -0.7371445728
O   O255      1.0  0.74251  0.81875  0.56935  1.0000 -0.7371445728
O   O256      1.0  0.25749  0.68125  0.06935  1.0000 -0.7296337184
O   O257      1.0  0.21525  0.16351  0.90489  1.0000 -0.7964071713
O   O258      1.0  0.78475  0.33649  0.40489  1.0000 -0.7895167552
O   O259      1.0  0.78475  0.66351  0.59511  1.0000 -0.7964071713
O   O260      1.0  0.21525  0.83649  0.09511  1.0000 -0.7895167552
O   O261      1.0  0.78475  0.83649  0.09511  1.0000 -0.7895167552
O   O262      1.0  0.21525  0.66351  0.59511  1.0000 -0.7964071713
O   O263      1.0  0.21525  0.33649  0.40489  1.0000 -0.7895167552
O   O264      1.0  0.78475  0.16351  0.90489  1.0000 -0.7964071713
O   O265      1.0  0.71525  0.66351  0.90489  1.0000 -0.7964071713
O   O266      1.0  0.28475  0.83649  0.40489  1.0000 -0.7895167552
O   O267      1.0  0.28475  0.16351  0.59511  1.0000 -0.7964071713
O   O268      1.0  0.71525  0.33649  0.09511  1.0000 -0.7895167552
O   O269      1.0  0.28475  0.33649  0.09511  1.0000 -0.7895167552
O   O270      1.0  0.71525  0.16351  0.59511  1.0000 -0.7964071713
O   O271      1.0  0.71525  0.83649  0.40489  1.0000 -0.7964071713
O   O272      1.0  0.28475  0.66351  0.90489  1.0000 -0.7964071713
O   O273      1.0  0.11020  0.98802  0.34925  1.0000 -0.7706901126
O   O274      1.0  0.88980  0.51198  0.84925  1.0000 -0.7706901126
O   O275      1.0  0.88980  0.48802  0.15075  1.0000 -0.7706901126
O   O276      1.0  0.11020  0.01198  0.65075  1.0000 -0.7706901126
O   O277      1.0  0.88980  0.01198  0.65075  1.0000 -0.7706901126
O   O278      1.0  0.11020  0.48802  0.15075  1.0000 -0.7706901126
O   O279      1.0  0.11020  0.51198  0.84925  1.0000 -0.7706901126
O   O280      1.0  0.88980  0.98802  0.34925  1.0000 -0.7706901126
O   O281      1.0  0.61020  0.48802  0.34925  1.0000 -0.7706901126
O   O282      1.0  0.38980  0.01198  0.84925  1.0000 -0.7706901126
O   O283      1.0  0.38980  0.98802  0.15075  1.0000 -0.7706901126
O   O284      1.0  0.61020  0.51198  0.65075  1.0000 -0.7706901126
O   O285      1.0  0.38980  0.51198  0.65075  1.0000 -0.7706901126
O   O286      1.0  0.61020  0.98802  0.15075  1.0000 -0.7706901126
O   O287      1.0  0.61020  0.01198  0.84925  1.0000 -0.7706901126
O   O288      1.0  0.38980  0.48802  0.34925  1.0000 -0.7706901126
O   O289      1.0  0.08823  0.02471  0.44977  1.0000 -0.7706901126
O   O290      1.0  0.91177  0.47529  0.94977  1.0000 -0.7706901126
O   O291      1.0  0.91177  0.52471  0.05023  1.0000 -0.7706901126
O   O292      1.0  0.08823  0.97529  0.55023  1.0000 -0.7706901126
O   O293      1.0  0.91177  0.97529  0.55023  1.0000 -0.7706901126
O   O294      1.0  0.08823  0.52471  0.05023  1.0000 -0.7706901126
O   O295      1.0  0.08823  0.47529  0.94977  1.0000 -0.7706901126
O   O296      1.0  0.91177  0.02471  0.44977  1.0000 -0.7706901126
O   O297      1.0  0.58823  0.52471  0.44977  1.0000 -0.7706901126
O   O298      1.0  0.41177  0.97529  0.94977  1.0000 -0.7706901126
O   O299      1.0  0.41177  0.02471  0.05023  1.0000 -0.7706901126
O   O300      1.0  0.58823  0.47529  0.55023  1.0000 -0.7706901126
O   O301      1.0  0.41177  0.47529  0.55023  1.0000 -0.7706901126
O   O302      1.0  0.58823  0.02471  0.05023  1.0000 -0.7706901126
O   O303      1.0  0.58823  0.97529  0.94977  1.0000 -0.7706901126
O   O304      1.0  0.41177  0.52471  0.44977  1.0000 -0.7706901126
O   O305      1.0  0.06039  0.98762  0.36887  1.0000 -0.7371445728
O   O306      1.0  0.93961  0.51238  0.86887  1.0000 -0.7371445728
O   O307      1.0  0.93961  0.48762  0.13113  1.0000 -0.7371445728
O   O308      1.0  0.06039  0.01238  0.63113  1.0000 -0.7371445728
O   O309      1.0  0.93961  0.01238  0.63113  1.0000 -0.7371445728
O   O310      1.0  0.06039  0.48762  0.13113  1.0000 -0.7371445728
O   O311      1.0  0.06039  0.51238  0.86887  1.0000 -0.7371445728
O   O312      1.0  0.93961  0.98762  0.36887  1.0000 -0.7371445728
O   O313      1.0  0.56039  0.48762  0.36887  1.0000 -0.7371445728
O   O314      1.0  0.43961  0.01238  0.86887  1.0000 -0.7371445728
O   O315      1.0  0.43961  0.98762  0.13113  1.0000 -0.7371445728
O   O316      1.0  0.56039  0.51238  0.63113  1.0000 -0.7371445728
O   O317      1.0  0.43961  0.51238  0.63113  1.0000 -0.7371445728
O   O318      1.0  0.56039  0.98762  0.13113  1.0000 -0.7371445728
O   O319      1.0  0.56039  0.01238  0.86887  1.0000 -0.7371445728
O   O320      1.0  0.43961  0.48762  0.36887  1.0000 -0.7371445728
O   O321      1.0  0.02679  0.02507  0.35006  1.0000 -0.7296337184
O   O322      1.0  0.97321  0.47493  0.85006  1.0000 -0.7296337184
O   O323      1.0  0.97321  0.52507  0.14994  1.0000 -0.7296337184
O   O324      1.0  0.02679  0.97493  0.64994  1.0000 -0.7296337184
O   O325      1.0  0.97321  0.97493  0.64994  1.0000 -0.7296337184
O   O326      1.0  0.02679  0.52507  0.14994  1.0000 -0.7296337184
O   O327      1.0  0.02679  0.47493  0.85006  1.0000 -0.7296337184
O   O328      1.0  0.97321  0.02507  0.35006  1.0000 -0.7296337184
O   O329      1.0  0.52679  0.52507  0.35006  1.0000 -0.7296337184
O   O330      1.0  0.47321  0.97493  0.85006  1.0000 -0.7296337184
O   O331      1.0  0.47321  0.02507  0.14994  1.0000 -0.7296337184
O   O332      1.0  0.52679  0.47493  0.64994  1.0000 -0.7296337184
O   O333      1.0  0.47321  0.47493  0.64994  1.0000 -0.7296337184
O   O334      1.0  0.52679  0.02507  0.14994  1.0000 -0.7296337184
O   O335      1.0  0.52679  0.97493  0.85006  1.0000 -0.7296337184
O   O336      1.0  0.47321  0.52507  0.35006  1.0000 -0.7296337184
O   O337      1.0  0.02715  0.98090  0.02281  1.0000 -0.7895167552
O   O338      1.0  0.97285  0.51910  0.52281  1.0000 -0.7895167552
O   O339      1.0  0.97285  0.48090  0.47719  1.0000 -0.7789427872
O   O340      1.0  0.02715  0.01910  0.97719  1.0000 -0.7895167552
O   O341      1.0  0.97285  0.01910  0.97719  1.0000 -0.7895167552
O   O342      1.0  0.02715  0.48090  0.47719  1.0000 -0.7789427872
O   O343      1.0  0.02715  0.51910  0.52281  1.0000 -0.7895167552
O   O344      1.0  0.97285  0.98090  0.02281  1.0000 -0.7895167552
O   O345      1.0  0.52715  0.48090  0.02281  1.0000 -0.7789427872
O   O346      1.0  0.47285  0.01910  0.52281  1.0000 -0.7895167552
O   O347      1.0  0.47285  0.98090  0.47719  1.0000 -0.7895167552
O   O348      1.0  0.52715  0.51910  0.97719  1.0000 -0.7895167552
O   O349      1.0  0.47285  0.51910  0.97719  1.0000 -0.7895167552
O   O350      1.0  0.52715  0.98090  0.47719  1.0000 -0.7895167552
O   O351      1.0  0.52715  0.01910  0.52281  1.0000 -0.7895167552
O   O352      1.0  0.47285  0.48090  0.02281  1.0000 -0.7789427872
O   O353      1.0  0.22464  0.16128  0.28549  1.0000 -0.8115510401
O   O354      1.0  0.77536  0.33872  0.78549  1.0000 -0.8115510401
O   O355      1.0  0.77536  0.66128  0.21451  1.0000 -0.8115510401
O   O356      1.0  0.22464  0.83872  0.71451  1.0000 -0.8115510401
O   O357      1.0  0.77536  0.83872  0.71451  1.0000 -0.8115510401
O   O358      1.0  0.22464  0.66128  0.21451  1.0000 -0.8115510401
O   O359      1.0  0.22464  0.33872  0.78549  1.0000 -0.8115510401
O   O360      1.0  0.77536  0.16128  0.28549  1.0000 -0.8115510401
O   O361      1.0  0.72464  0.66128  0.28549  1.0000 -0.8115510401
O   O362      1.0  0.27536  0.83872  0.78549  1.0000 -0.8115510401
O   O363      1.0  0.27536  0.16128  0.21451  1.0000 -0.8115510401
O   O364      1.0  0.72464  0.33872  0.71451  1.0000 -0.8115510401
O   O365      1.0  0.27536  0.33872  0.71451  1.0000 -0.8115510401
O   O366      1.0  0.72464  0.16128  0.21451  1.0000 -0.8115510401
O   O367      1.0  0.72464  0.83872  0.78549  1.0000 -0.8115510401
O   O368      1.0  0.27536  0.66128  0.28549  1.0000 -0.8115510401
O   O369      1.0  0.22410  0.20115  0.27269  1.0000 -0.8360425315
O   O370      1.0  0.77590  0.29885  0.77269  1.0000 -0.8360425315
O   O371      1.0  0.77590  0.70115  0.22731  1.0000 -0.8339426599
O   O372      1.0  0.22410  0.79885  0.72731  1.0000 -0.8360425315
O   O373      1.0  0.77590  0.79885  0.72731  1.0000 -0.8360425315
O   O374      1.0  0.22410  0.70115  0.22731  1.0000 -0.8339426599
O   O375      1.0  0.22410  0.29885  0.77269  1.0000 -0.8360425315
O   O376      1.0  0.77590  0.20115  0.27269  1.0000 -0.8360425315
O   O377      1.0  0.72410  0.70115  0.27269  1.0000 -0.8339426599
O   O378      1.0  0.27590  0.79885  0.77269  1.0000 -0.8360425315
O   O379      1.0  0.27590  0.20115  0.22731  1.0000 -0.8360425315
O   O380      1.0  0.72410  0.29885  0.72731  1.0000 -0.8360425315
O   O381      1.0  0.27590  0.29885  0.72731  1.0000 -0.8360425315
O   O382      1.0  0.72410  0.20115  0.22731  1.0000 -0.8360425315
O   O383      1.0  0.72410  0.79885  0.77269  1.0000 -0.8360425315
O   O384      1.0  0.27590  0.70115  0.27269  1.0000 -0.8339426599
O   O385      1.0  0.21800  0.20073  0.90128  1.0000 -0.7789427872
O   O386      1.0  0.78200  0.29927  0.40128  1.0000 -0.7789427872
O   O387      1.0  0.78200  0.70073  0.59872  1.0000 -0.7789427872
O   O388      1.0  0.21800  0.79927  0.09872  1.0000 -0.7789427872
O   O389      1.0  0.78200  0.79927  0.09872  1.0000 -0.7789427872
O   O390      1.0  0.21800  0.70073  0.59872  1.0000 -0.7789427872
O   O391      1.0  0.21800  0.29927  0.40128  1.0000 -0.7789427872
O   O392      1.0  0.78200  0.20073  0.90128  1.0000 -0.7789427872
O   O393      1.0  0.71800  0.70073  0.90128  1.0000 -0.7789427872
O   O394      1.0  0.28200  0.79927  0.40128  1.0000 -0.7789427872
O   O395      1.0  0.28200  0.20073  0.59872  1.0000 -0.7789427872
O   O396      1.0  0.71800  0.29927  0.09872  1.0000 -0.7789427872
O   O397      1.0  0.28200  0.29927  0.09872  1.0000 -0.7789427872
O   O398      1.0  0.71800  0.20073  0.59872  1.0000 -0.7789427872
O   O399      1.0  0.71800  0.79927  0.40128  1.0000 -0.7789427872
O   O400      1.0  0.28200  0.70073  0.90128  1.0000 -0.7789427872
O   O401      1.0  0.26866  0.22554  0.88487  1.0000 -0.7502916564
O   O402      1.0  0.73134  0.27446  0.38487  1.0000 -0.7502916564
O   O403      1.0  0.73134  0.72554  0.61513  1.0000 -0.7608886318
O   O404      1.0  0.26866  0.77446  0.11513  1.0000 -0.7502916564
O   O405      1.0  0.73134  0.77446  0.11513  1.0000 -0.7502916564
O   O406      1.0  0.26866  0.72554  0.61513  1.0000 -0.7608886318
O   O407      1.0  0.26866  0.27446  0.38487  1.0000 -0.7502916564
O   O408      1.0  0.73134  0.22554  0.88487  1.0000 -0.7502916564
O   O409      1.0  0.76866  0.72554  0.88487  1.0000 -0.7608886318
O   O410      1.0  0.23134  0.77446  0.38487  1.0000 -0.7502916564
O   O411      1.0  0.23134  0.22554  0.61513  1.0000 -0.7502916564
O   O412      1.0  0.76866  0.27446  0.11513  1.0000 -0.7502916564
O   O413      1.0  0.23134  0.27446  0.11513  1.0000 -0.7502916564
O   O414      1.0  0.76866  0.22554  0.61513  1.0000 -0.7502916564
O   O415      1.0  0.76866  0.77446  0.38487  1.0000 -0.7502916564
O   O416      1.0  0.23134  0.72554  0.88487  1.0000 -0.7608886318
O   O417      1.0  0.21766  0.24596  0.80105  1.0000 -0.7706901126
O   O418      1.0  0.78234  0.25404  0.30105  1.0000 -0.7706901126
O   O419      1.0  0.78234  0.74596  0.69895  1.0000 -0.7706901126
O   O420      1.0  0.21766  0.75404  0.19895  1.0000 -0.7706901126
O   O421      1.0  0.78234  0.75404  0.19895  1.0000 -0.7706901126
O   O422      1.0  0.21766  0.74596  0.69895  1.0000 -0.7706901126
O   O423      1.0  0.21766  0.25404  0.30105  1.0000 -0.7706901126
O   O424      1.0  0.78234  0.24596  0.80105  1.0000 -0.7706901126
O   O425      1.0  0.71766  0.74596  0.80105  1.0000 -0.7706901126
O   O426      1.0  0.28234  0.75404  0.30105  1.0000 -0.7706901126
O   O427      1.0  0.28234  0.24596  0.69895  1.0000 -0.7706901126
O   O428      1.0  0.71766  0.25404  0.19895  1.0000 -0.7706901126
O   O429      1.0  0.28234  0.25404  0.19895  1.0000 -0.7706901126
O   O430      1.0  0.71766  0.24596  0.69895  1.0000 -0.7706901126
O   O431      1.0  0.71766  0.75404  0.30105  1.0000 -0.7706901126
O   O432      1.0  0.28234  0.74596  0.80105  1.0000 -0.7706901126
O   O433      1.0  0.22971  0.23788  0.09280  1.0000 -0.7789427872
O   O434      1.0  0.77029  0.26212  0.59280  1.0000 -0.7789427872
O   O435      1.0  0.77029  0.73788  0.40720  1.0000 -0.7789427872
O   O436      1.0  0.22971  0.76212  0.90720  1.0000 -0.7789427872
O   O437      1.0  0.77029  0.76212  0.90720  1.0000 -0.7789427872
O   O438      1.0  0.22971  0.73788  0.40720  1.0000 -0.7789427872
O   O439      1.0  0.22971  0.26212  0.59280  1.0000 -0.7789427872
O   O440      1.0  0.77029  0.23788  0.09280  1.0000 -0.7789427872
O   O441      1.0  0.72971  0.73788  0.09280  1.0000 -0.7789427872
O   O442      1.0  0.27029  0.76212  0.59280  1.0000 -0.7789427872
O   O443      1.0  0.27029  0.23788  0.40720  1.0000 -0.7789427872
O   O444      1.0  0.72971  0.26212  0.90720  1.0000 -0.7789427872
O   O445      1.0  0.27029  0.26212  0.90720  1.0000 -0.7706901126
O   O446      1.0  0.72971  0.23788  0.40720  1.0000 -0.7789427872
O   O447      1.0  0.72971  0.76212  0.59280  1.0000 -0.7789427872
O   O448      1.0  0.27029  0.73788  0.09280  1.0000 -0.7789427872
O   O449      1.0  0.00000  0.00475  0.18089  1.0000 -0.6993288927
O   O450      1.0  0.00000  0.49525  0.68089  1.0000 -0.6993288927
O   O451      1.0  0.00000  0.50475  0.31911  1.0000 -0.6993288927
O   O452      1.0  0.00000  0.99525  0.81911  1.0000 -0.6993288927
O   O453      1.0  0.50000  0.50475  0.18089  1.0000 -0.6993288927
O   O454      1.0  0.50000  0.99525  0.68089  1.0000 -0.6993288927
O   O455      1.0  0.50000  0.00475  0.31911  1.0000 -0.6993288927
O   O456      1.0  0.50000  0.49525  0.81911  1.0000 -0.6993288927
F   F1        1.0  0.25945  0.99339  0.12365  1.0000 -0.5388451896
F   F2        1.0  0.74055  0.50661  0.62365  1.0000 -0.5388451896
F   F3        1.0  0.74055  0.49339  0.37635  1.0000 -0.5388451896
F   F4        1.0  0.25945  0.00661  0.87635  1.0000 -0.5388451896
F   F5        1.0  0.74055  0.00661  0.87635  1.0000 -0.5388451896
F   F6        1.0  0.25945  0.49339  0.37635  1.0000 -0.5388451896
F   F7        1.0  0.25945  0.50661  0.62365  1.0000 -0.5388451896
F   F8        1.0  0.74055  0.99339  0.12365  1.0000 -0.5388451896
F   F9        1.0  0.75945  0.49339  0.12365  1.0000 -0.5388451896
F   F10       1.0  0.24055  0.00661  0.62365  1.0000 -0.5388451896
F   F11       1.0  0.24055  0.99339  0.37635  1.0000 -0.5388451896
F   F12       1.0  0.75945  0.50661  0.87635  1.0000 -0.5388451896
F   F13       1.0  0.24055  0.50661  0.87635  1.0000 -0.5388451896
F   F14       1.0  0.75945  0.99339  0.37635  1.0000 -0.5388451896
F   F15       1.0  0.75945  0.00661  0.62365  1.0000 -0.5388451896
F   F16       1.0  0.24055  0.49339  0.12365  1.0000 -0.5388451896
