# DDEC6 charges by PACMAN v1.1 (https://github.com/mtap-research/PACMAN-charge/)
data_2013[ZnGa][nan]3[ION]1
_chemical_formula_sum              "Zn56 Ga8 P80 H416 C128 N32 O272 F8"
_cell_length_a       37.232
_cell_length_b       37.232
_cell_length_c       37.232
_cell_angle_alpha    91.0381
_cell_angle_beta     91.0381
_cell_angle_gamma    164.529

_symmetry_space_group_name_H-M    "P 1"
_symmetry_Int_Tables_number       1

loop_
  _symmetry_equiv_pos_as_xyz
  'x, y, z'

loop_
  _atom_site_type_symbol
  _atom_site_label
  _atom_site_symmetry_multiplicity
  _atom_site_fract_x
  _atom_site_fract_y
  _atom_site_fract_z
  _atom_site_occupancy
  _atom_site_charge
Zn  Zn1       1.0  0.45209  0.35673  0.97055  1.0000 1.1230392115
Zn  Zn2       1.0  0.53832  0.28045  0.97509  1.0000 1.1230392115
Zn  Zn3       1.0  0.74832  0.40949  0.01819  1.0000 1.0868829894
Zn  Zn4       1.0  0.38613  0.48143  0.02946  1.0000 1.1230392115
Zn  Zn5       1.0  0.30548  0.56327  0.02493  1.0000 1.126359826
Zn  Zn6       1.0  0.39133  0.73009  0.98182  1.0000 1.0868829894
Zn  Zn7       1.0  0.10677  0.63626  0.40471  1.0000 1.1230392115
Zn  Zn8       1.0  0.03050  0.55539  0.24217  1.0000 1.126359826
Zn  Zn9       1.0  0.15941  0.64122  0.16124  1.0000 1.0868829894
Zn  Zn10      1.0  0.23147  0.70204  0.59531  1.0000 1.126359826
Zn  Zn11      1.0  0.31322  0.78830  0.75782  1.0000 1.1230392115
Zn  Zn12      1.0  0.48012  0.99823  0.83877  1.0000 1.0868829894
Zn  Zn13      1.0  0.86376  0.39325  0.59531  1.0000 1.1230392115
Zn  Zn14      1.0  0.94465  0.46955  0.75784  1.0000 1.1230392115
Zn  Zn15      1.0  0.85874  0.34053  0.83880  1.0000 1.0868829894
Zn  Zn16      1.0  0.79798  0.26856  0.40471  1.0000 1.1230392115
Zn  Zn17      1.0  0.71175  0.18682  0.24218  1.0000 1.1230392115
Zn  Zn18      1.0  0.50177  0.01991  0.16120  1.0000 1.0868829894
Zn  Zn19      1.0  0.01855  0.11382  0.97054  1.0000 1.126359826
Zn  Zn20      1.0  0.93682  0.19460  0.97511  1.0000 1.1230392115
Zn  Zn21      1.0  0.77002  0.10875  0.01816  1.0000 1.0868829894
Zn  Zn22      1.0  0.14328  0.04792  0.02945  1.0000 1.1230392115
Zn  Zn23      1.0  0.21951  0.96166  0.02491  1.0000 1.1230392115
Zn  Zn24      1.0  0.09061  0.75182  0.98184  1.0000 1.0868829894
Zn  Zn25      1.0  0.29794  0.89330  0.52946  1.0000 1.1230392115
Zn  Zn26      1.0  0.21166  0.96952  0.52491  1.0000 1.126359826
Zn  Zn27      1.0  0.00180  0.84061  0.48183  1.0000 1.0868829894
Zn  Zn28      1.0  0.36387  0.76857  0.47056  1.0000 1.1230392115
Zn  Zn29      1.0  0.44447  0.68666  0.47508  1.0000 1.1230392115
Zn  Zn30      1.0  0.35873  0.51999  0.51814  1.0000 1.0868829894
Zn  Zn31      1.0  0.64324  0.61376  0.09529  1.0000 1.1230392115
Zn  Zn32      1.0  0.71950  0.69461  0.25783  1.0000 1.1230392115
Zn  Zn33      1.0  0.59048  0.60869  0.33878  1.0000 1.0868829894
Zn  Zn34      1.0  0.51852  0.54794  0.90469  1.0000 1.1230392115
Zn  Zn35      1.0  0.43680  0.46173  0.74217  1.0000 1.1230392115
Zn  Zn36      1.0  0.26987  0.25174  0.66120  1.0000 1.0868829894
Zn  Zn37      1.0  0.88625  0.85675  0.90470  1.0000 1.1230392115
Zn  Zn38      1.0  0.80534  0.78045  0.74216  1.0000 1.1230392115
Zn  Zn39      1.0  0.89116  0.90936  0.66123  1.0000 1.0868829894
Zn  Zn40      1.0  0.95200  0.98142  0.09527  1.0000 1.1230392115
Zn  Zn41      1.0  0.03827  0.06318  0.25781  1.0000 1.126359826
Zn  Zn42      1.0  0.24821  0.23009  0.33878  1.0000 1.0868829894
Zn  Zn43      1.0  0.73148  0.13621  0.52946  1.0000 1.1230392115
Zn  Zn44      1.0  0.81318  0.05540  0.52489  1.0000 1.1230392115
Zn  Zn45      1.0  0.98003  0.14128  0.48180  1.0000 1.0868829894
Zn  Zn46      1.0  0.60672  0.20210  0.47055  1.0000 1.1230392115
Zn  Zn47      1.0  0.53046  0.28833  0.47508  1.0000 1.1230392115
Zn  Zn48      1.0  0.65944  0.49826  0.51817  1.0000 1.0868829894
Zn  Zn49      1.0  0.83697  0.66294  0.00004  1.0000 1.2825253464
Zn  Zn50      1.0  0.66326  0.83722  0.00010  1.0000 1.2825253464
Zn  Zn51      1.0  0.41293  0.91284  0.32602  1.0000 1.2825253464
Zn  Zn52      1.0  0.58720  0.08712  0.67401  1.0000 1.2825253464
Zn  Zn53      1.0  0.91306  0.58709  0.49994  1.0000 1.2825253464
Zn  Zn54      1.0  0.08681  0.41284  0.49992  1.0000 1.2856942075
Zn  Zn55      1.0  0.33705  0.33711  0.17397  1.0000 1.2825253464
Zn  Zn56      1.0  0.16278  0.16287  0.82599  1.0000 1.2856942075
Ga  Ga1       1.0  0.77157  0.27153  0.04321  1.0000 1.5140189188
Ga  Ga2       1.0  0.22852  0.72849  0.95682  1.0000 1.5140189188
Ga  Ga3       1.0  0.02168  0.47841  0.00000  1.0000 1.5140189188
Ga  Ga4       1.0  0.47831  0.02149  0.99999  1.0000 1.5140189188
Ga  Ga5       1.0  0.97833  0.97838  0.45679  1.0000 1.5140189188
Ga  Ga6       1.0  0.52157  0.52158  0.54321  1.0000 1.5140189188
Ga  Ga7       1.0  0.72840  0.77165  0.49999  1.0000 1.5140189188
Ga  Ga8       1.0  0.27155  0.22836  0.50000  1.0000 1.5140189188
P   P1        1.0  0.74133  0.31895  0.00748  1.0000 1.1230392115
P   P2        1.0  0.57031  0.39328  0.95137  1.0000 1.3120773769
P   P3        1.0  0.15330  0.10293  0.96071  1.0000 1.397480142
P   P4        1.0  0.78045  0.47183  0.94520  1.0000 1.1544748919
P   P5        1.0  0.52887  0.24237  0.05031  1.0000 1.0234303645
P   P6        1.0  0.31149  0.73380  0.99252  1.0000 1.1101112117
P   P7        1.0  0.44198  0.61893  0.04868  1.0000 1.3120773769
P   P8        1.0  0.14228  0.19257  0.03929  1.0000 1.397480142
P   P9        1.0  0.52675  0.83529  0.05481  1.0000 1.1699506234
P   P10       1.0  0.19216  0.47860  0.94970  1.0000 1.0234303645
P   P11       1.0  0.06907  0.56155  0.07768  1.0000 1.1101112117
P   P12       1.0  0.14327  0.69189  0.32300  1.0000 1.3120773769
P   P13       1.0  0.85298  0.39232  0.44973  1.0000 1.397480142
P   P14       1.0  0.22176  0.77656  0.19144  1.0000 1.1699506234
P   P15       1.0  0.99249  0.44214  0.21356  1.0000 1.0234303645
P   P16       1.0  0.48391  0.99135  0.92234  1.0000 1.1101112117
P   P17       1.0  0.36889  0.82022  0.67699  1.0000 1.3259749072
P   P18       1.0  0.94252  0.40326  0.55031  1.0000 1.4179577884
P   P19       1.0  0.58513  0.03028  0.80854  1.0000 1.1699506234
P   P20       1.0  0.22861  0.77891  0.78648  1.0000 1.0234303645
P   P21       1.0  0.93857  0.43105  0.92237  1.0000 1.1101112117
P   P22       1.0  0.80810  0.35671  0.67701  1.0000 1.3120773769
P   P23       1.0  0.10764  0.64699  0.55029  1.0000 1.4179577884
P   P24       1.0  0.72339  0.27816  0.80858  1.0000 1.1699506234
P   P25       1.0  0.05795  0.50762  0.78648  1.0000 1.0234303645
P   P26       1.0  0.50879  0.01620  0.07764  1.0000 1.1230392115
P   P27       1.0  0.67983  0.13118  0.32303  1.0000 1.3120773769
P   P28       1.0  0.09678  0.55752  0.44971  1.0000 1.397480142
P   P29       1.0  0.46964  0.91481  0.19144  1.0000 1.1699506234
P   P30       1.0  0.72118  0.27148  0.21351  1.0000 1.0234303645
P   P31       1.0  0.76621  0.18852  0.00753  1.0000 1.1101112117
P   P32       1.0  0.88121  0.05815  0.95140  1.0000 1.3120773769
P   P33       1.0  0.30756  0.35784  0.96072  1.0000 1.397480142
P   P34       1.0  0.66488  0.97339  0.94519  1.0000 1.1804798501
P   P35       1.0  0.02146  0.30789  0.05034  1.0000 1.0234303645
P   P36       1.0  0.18112  0.75877  0.99251  1.0000 1.1101112117
P   P37       1.0  0.10679  0.92976  0.04868  1.0000 1.3120773769
P   P38       1.0  0.39706  0.34670  0.03927  1.0000 1.397480142
P   P39       1.0  0.02835  0.71975  0.05484  1.0000 1.1544748919
P   P40       1.0  0.25756  0.97107  0.94968  1.0000 1.0234303645
P   P41       1.0  0.00872  0.93106  0.49251  1.0000 1.1230392115
P   P42       1.0  0.17974  0.85676  0.54864  1.0000 1.3120773769
P   P43       1.0  0.59676  0.14712  0.53929  1.0000 1.4179577884
P   P44       1.0  0.96968  0.77828  0.55482  1.0000 1.1544748919
P   P45       1.0  0.22109  0.00757  0.44968  1.0000 1.0291556376
P   P46       1.0  0.43843  0.51614  0.50749  1.0000 1.1101112117
P   P47       1.0  0.30808  0.63113  0.45132  1.0000 1.3120773769
P   P48       1.0  0.60777  0.05747  0.46072  1.0000 1.397480142
P   P49       1.0  0.22329  0.41475  0.44516  1.0000 1.1804798501
P   P50       1.0  0.55780  0.77138  0.55032  1.0000 1.0234303645
P   P51       1.0  0.68099  0.68852  0.42233  1.0000 1.1101112117
P   P52       1.0  0.60670  0.55808  0.17699  1.0000 1.3120773769
P   P53       1.0  0.89697  0.85762  0.05028  1.0000 1.397480142
P   P54       1.0  0.52817  0.47340  0.30857  1.0000 1.1544748919
P   P55       1.0  0.75753  0.80787  0.28646  1.0000 1.0234303645
P   P56       1.0  0.26609  0.25866  0.57762  1.0000 1.1101112117
P   P57       1.0  0.38108  0.42975  0.82301  1.0000 1.3120773769
P   P58       1.0  0.80743  0.84670  0.94969  1.0000 1.397480142
P   P59       1.0  0.16480  0.21963  0.69144  1.0000 1.1699506234
P   P60       1.0  0.52142  0.47112  0.71350  1.0000 1.0234303645
P   P61       1.0  0.81141  0.81892  0.57766  1.0000 1.1101112117
P   P62       1.0  0.94186  0.89323  0.82298  1.0000 1.3120773769
P   P63       1.0  0.64231  0.60297  0.94971  1.0000 1.397480142
P   P64       1.0  0.02651  0.97172  0.69142  1.0000 1.1699506234
P   P65       1.0  0.69208  0.74242  0.71354  1.0000 1.0234303645
P   P66       1.0  0.24130  0.23387  0.42233  1.0000 1.1101112117
P   P67       1.0  0.07013  0.11878  0.17696  1.0000 1.3120773769
P   P68       1.0  0.65316  0.69242  0.05028  1.0000 1.397480142
P   P69       1.0  0.28028  0.33513  0.30853  1.0000 1.1699506234
P   P70       1.0  0.02887  0.97857  0.28647  1.0000 1.0291556376
P   P71       1.0  0.98380  0.06153  0.49250  1.0000 1.1101112117
P   P72       1.0  0.86885  0.19191  0.54860  1.0000 1.3120773769
P   P73       1.0  0.44250  0.89221  0.53929  1.0000 1.397480142
P   P74       1.0  0.08517  0.27663  0.55478  1.0000 1.1699506234
P   P75       1.0  0.72850  0.94205  0.44967  1.0000 1.0234303645
P   P76       1.0  0.56895  0.49134  0.50749  1.0000 1.1101112117
P   P77       1.0  0.64328  0.32032  0.45132  1.0000 1.3120773769
P   P78       1.0  0.35297  0.90334  0.46072  1.0000 1.397480142
P   P79       1.0  0.72181  0.53043  0.44520  1.0000 1.1544748919
P   P80       1.0  0.49239  0.27889  0.55031  1.0000 1.0234303645
H   H1        1.0  0.89053  0.66261  0.96919  1.0000 0.4166735592
H   H2        1.0  0.90033  0.76950  0.96376  1.0000 0.4138905972
H   H3        1.0  0.47831  0.42265  0.82889  1.0000 0.330596562
H   H4        1.0  0.61648  0.54045  0.81108  1.0000 0.3115370249
H   H5        1.0  0.39543  0.00052  0.06111  1.0000 0.330596562
H   H6        1.0  0.49223  0.13099  0.07188  1.0000 0.302863161
H   H7        1.0  0.45067  0.33363  0.81279  1.0000 0.0790271683
H   H8        1.0  0.45856  0.34906  0.86095  1.0000 0.0893276673
H   H9        1.0  0.51288  0.11355  0.12289  1.0000 0.0790271683
H   H10       1.0  0.33011  0.93399  0.11934  1.0000 0.0893276673
H   H11       1.0  0.31601  0.98661  0.13162  1.0000 0.0790271683
H   H12       1.0  0.49854  0.16610  0.13459  1.0000 0.0790271683
H   H13       1.0  0.53866  0.35378  0.82026  1.0000 0.1087939119
H   H14       1.0  0.52683  0.34885  0.86801  1.0000 0.1087939119
H   H15       1.0  0.68434  0.48597  0.85350  1.0000 0.1207060567
H   H16       1.0  0.52482  0.14901  0.18661  1.0000 0.0705664784
H   H17       1.0  0.34250  0.96942  0.18349  1.0000 0.0790271683
H   H18       1.0  0.70361  0.56293  0.82216  1.0000 0.0790271683
H   H19       1.0  0.70343  0.56850  0.87038  1.0000 0.0975337629
H   H20       1.0  0.32393  0.01704  0.19699  1.0000 0.0790271683
H   H21       1.0  0.50544  0.19706  0.19892  1.0000 0.0790271683
H   H22       1.0  0.36124  0.00989  0.24869  1.0000 0.1087939119
H   H23       1.0  0.43435  0.12404  0.26055  1.0000 0.0975337629
H   H24       1.0  0.54281  0.19164  0.25104  1.0000 0.1087939119
H   H25       1.0  0.69863  0.76760  0.14329  1.0000 0.3212668332
H   H26       1.0  0.89668  0.24943  0.93038  1.0000 0.302863161
H   H27       1.0  0.69392  0.92183  0.03077  1.0000 0.4166735592
H   H28       1.0  0.80618  0.93711  0.03650  1.0000 0.4138905972
H   H29       1.0  0.59402  0.64993  0.17150  1.0000 0.330596562
H   H30       1.0  0.72983  0.80617  0.18902  1.0000 0.3115370249
H   H31       1.0  0.93965  0.33450  0.93885  1.0000 0.330596562
H   H32       1.0  0.05932  0.42048  0.92809  1.0000 0.302863161
H   H33       1.0  0.52141  0.63877  0.18741  1.0000 0.0790271683
H   H34       1.0  0.48778  0.59738  0.13930  1.0000 0.0893276673
H   H35       1.0  0.99090  0.39008  0.87705  1.0000 0.0790271683
H   H36       1.0  0.81486  0.21090  0.88063  1.0000 0.0893276673
H   H37       1.0  0.85480  0.18412  0.86841  1.0000 0.0790271683
H   H38       1.0  0.03140  0.36365  0.86544  1.0000 0.0790271683
H   H39       1.0  0.53402  0.71917  0.17964  1.0000 0.1087939119
H   H40       1.0  0.48028  0.65835  0.13198  1.0000 0.1087939119
H   H41       1.0  0.63211  0.83060  0.14612  1.0000 0.1207060567
H   H42       1.0  0.96276  0.33829  0.81336  1.0000 0.0705664784
H   H43       1.0  0.78619  0.15915  0.81648  1.0000 0.0790271683
H   H44       1.0  0.74103  0.88194  0.17756  1.0000 0.0790271683
H   H45       1.0  0.69734  0.83233  0.12941  1.0000 0.0975337629
H   H46       1.0  0.81941  0.12620  0.80304  1.0000 0.0790271683
H   H47       1.0  0.99768  0.30573  0.80118  1.0000 0.0790271683
H   H48       1.0  0.76159  0.11277  0.75127  1.0000 0.1087939119
H   H49       1.0  0.86337  0.17340  0.73950  1.0000 0.0975337629
H   H50       1.0  0.94114  0.29193  0.74900  1.0000 0.1087939119
H   H51       1.0  0.62467  0.55580  0.85686  1.0000 0.3212668332
H   H52       1.0  0.31891  0.96610  0.06963  1.0000 0.302863161
H   H53       1.0  0.41258  0.94340  0.27218  1.0000 0.4138905972
H   H54       1.0  0.51947  0.05563  0.36925  1.0000 0.4138905972
H   H55       1.0  0.17291  0.84420  0.44413  1.0000 0.330596562
H   H56       1.0  0.29075  0.97972  0.42367  1.0000 0.3115370249
H   H57       1.0  0.75062  0.18941  0.10501  1.0000 0.330596562
H   H58       1.0  0.88106  0.30920  0.13872  1.0000 0.3115370249
H   H59       1.0  0.08382  0.77111  0.38273  1.0000 0.0790271683
H   H60       1.0  0.09878  0.73793  0.39041  1.0000 0.0893276673
H   H61       1.0  0.86362  0.24059  0.10086  1.0000 0.0790271683
H   H62       1.0  0.68403  0.06459  0.10406  1.0000 0.0893276673
H   H63       1.0  0.73655  0.10513  0.17083  1.0000 0.0790271683
H   H64       1.0  0.91604  0.28164  0.16781  1.0000 0.0790271683
H   H65       1.0  0.10360  0.78322  0.31490  1.0000 0.1087939119
H   H66       1.0  0.09826  0.73017  0.32191  1.0000 0.1087939119
H   H67       1.0  0.23546  0.88172  0.30143  1.0000 0.1207060567
H   H68       1.0  0.89936  0.21272  0.12472  1.0000 0.0705664784
H   H69       1.0  0.71974  0.03621  0.12740  1.0000 0.0790271683
H   H70       1.0  0.31302  0.99066  0.35903  1.0000 0.0790271683
H   H71       1.0  0.31804  0.94750  0.36490  1.0000 0.0975337629
H   H72       1.0  0.76705  0.07039  0.19365  1.0000 0.0790271683
H   H73       1.0  0.94712  0.24856  0.19223  1.0000 0.0790271683
H   H74       1.0  0.76041  0.01178  0.14954  1.0000 0.1087939119
H   H75       1.0  0.87471  0.11448  0.19061  1.0000 0.0975337629
H   H76       1.0  0.94210  0.19120  0.14966  1.0000 0.1087939119
H   H77       1.0  0.51721  0.87414  0.56895  1.0000 0.3212668332
H   H78       1.0  0.99955  0.56933  0.85294  1.0000 0.302863161
H   H79       1.0  0.67163  0.14088  0.72795  1.0000 0.4138905972
H   H80       1.0  0.68715  0.15067  0.63099  1.0000 0.4138905972
H   H81       1.0  0.39953  0.72826  0.55586  1.0000 0.330596562
H   H82       1.0  0.55590  0.86710  0.57618  1.0000 0.3115370249
H   H83       1.0  0.08518  0.64673  0.89502  1.0000 0.330596562
H   H84       1.0  0.17052  0.74275  0.86117  1.0000 0.302863161
H   H85       1.0  0.38891  0.70153  0.61730  1.0000 0.0790271683
H   H86       1.0  0.34728  0.70804  0.60967  1.0000 0.0893276673
H   H87       1.0  0.13978  0.76316  0.89912  1.0000 0.0790271683
H   H88       1.0  0.96064  0.58037  0.89594  1.0000 0.0893276673
H   H89       1.0  0.93421  0.56590  0.82917  1.0000 0.0790271683
H   H90       1.0  0.11368  0.74842  0.83215  1.0000 0.0790271683
H   H91       1.0  0.46959  0.78985  0.68507  1.0000 0.1087939119
H   H92       1.0  0.40877  0.77671  0.67815  1.0000 0.1087939119
H   H93       1.0  0.58112  0.93487  0.69847  1.0000 0.1207060567
H   H94       1.0  0.08768  0.77468  0.87521  1.0000 0.0705664784
H   H95       1.0  0.90857  0.59237  0.87259  1.0000 0.0790271683
H   H96       1.0  0.63210  0.95462  0.64077  1.0000 0.0790271683
H   H97       1.0  0.58227  0.95295  0.63498  1.0000 0.0975337629
H   H98       1.0  0.87619  0.57307  0.80632  1.0000 0.0790271683
H   H99       1.0  0.05568  0.75458  0.80771  1.0000 0.0790271683
H   H100      1.0  0.86140  0.61025  0.85044  1.0000 0.1087939119
H   H101      1.0  0.92251  0.68302  0.80931  1.0000 0.0975337629
H   H102      1.0  0.04053  0.79180  0.85021  1.0000 0.1087939119
H   H103      1.0  0.30584  0.94906  0.43094  1.0000 0.3212668332
H   H104      1.0  0.71613  0.14661  0.14714  1.0000 0.302863161
H   H105      1.0  0.55665  0.08750  0.72787  1.0000 0.4138905972
H   H106      1.0  0.44438  0.98053  0.63077  1.0000 0.4138905972
H   H107      1.0  0.65619  0.32733  0.55579  1.0000 0.330596562
H   H108      1.0  0.52057  0.20947  0.57618  1.0000 0.3115370249
H   H109      1.0  0.31062  0.74940  0.89499  1.0000 0.330596562
H   H110      1.0  0.19078  0.61891  0.86129  1.0000 0.302863161
H   H111      1.0  0.72907  0.41631  0.61718  1.0000 0.0790271683
H   H112      1.0  0.76204  0.40112  0.60961  1.0000 0.0893276673
H   H113      1.0  0.25943  0.63639  0.89916  1.0000 0.0790271683
H   H114      1.0  0.43541  0.81596  0.89595  1.0000 0.0893276673
H   H115      1.0  0.39484  0.76341  0.82918  1.0000 0.0790271683
H   H116      1.0  0.21836  0.58392  0.83222  1.0000 0.0790271683
H   H117      1.0  0.71661  0.39633  0.68502  1.0000 0.1087939119
H   H118      1.0  0.76934  0.40132  0.67811  1.0000 0.1087939119
H   H119      1.0  0.61774  0.26420  0.69852  1.0000 0.1207060567
H   H120      1.0  0.28752  0.60085  0.87533  1.0000 0.0705664784
H   H121      1.0  0.46397  0.78046  0.87260  1.0000 0.0790271683
H   H122      1.0  0.50929  0.18706  0.64083  1.0000 0.0790271683
H   H123      1.0  0.55212  0.18169  0.63506  1.0000 0.0975337629
H   H124      1.0  0.42956  0.73289  0.80635  1.0000 0.0790271683
H   H125      1.0  0.25148  0.55286  0.80784  1.0000 0.0790271683
H   H126      1.0  0.48863  0.74002  0.85047  1.0000 0.1087939119
H   H127      1.0  0.38584  0.62558  0.80943  1.0000 0.0975337629
H   H128      1.0  0.30930  0.55833  0.85041  1.0000 0.1087939119
H   H129      1.0  0.62562  0.98242  0.43095  1.0000 0.3212668332
H   H130      1.0  0.93064  0.50041  0.14708  1.0000 0.302863161
H   H131      1.0  0.35910  0.82834  0.27207  1.0000 0.4138905972
H   H132      1.0  0.34946  0.81297  0.36908  1.0000 0.4138905972
H   H133      1.0  0.77129  0.09980  0.44403  1.0000 0.330596562
H   H134      1.0  0.63238  0.94347  0.42359  1.0000 0.3115370249
H   H135      1.0  0.85340  0.41492  0.10499  1.0000 0.330596562
H   H136      1.0  0.75724  0.32943  0.13882  1.0000 0.302863161
H   H137      1.0  0.79808  0.11061  0.38255  1.0000 0.0790271683
H   H138      1.0  0.79219  0.15282  0.39035  1.0000 0.0893276673
H   H139      1.0  0.73683  0.36019  0.10089  1.0000 0.0790271683
H   H140      1.0  0.91960  0.53930  0.10407  1.0000 0.0893276673
H   H141      1.0  0.93410  0.56574  0.17085  1.0000 0.0790271683
H   H142      1.0  0.75158  0.38628  0.16787  1.0000 0.0790271683
H   H143      1.0  0.71005  0.03044  0.31479  1.0000 0.1087939119
H   H144      1.0  0.72399  0.09200  0.32186  1.0000 0.1087939119
H   H145      1.0  0.56556  0.91961  0.30143  1.0000 0.1207060567
H   H146      1.0  0.72535  0.41231  0.12482  1.0000 0.0705664784
H   H147      1.0  0.90767  0.59142  0.12743  1.0000 0.0790271683
H   H148      1.0  0.54503  0.86775  0.35902  1.0000 0.0790271683
H   H149      1.0  0.54742  0.91825  0.36495  1.0000 0.0975337629
H   H150      1.0  0.92695  0.62380  0.19371  1.0000 0.0790271683
H   H151      1.0  0.74544  0.44432  0.19232  1.0000 0.0790271683
H   H152      1.0  0.88977  0.63859  0.14958  1.0000 0.1087939119
H   H153      1.0  0.81705  0.57752  0.19072  1.0000 0.0975337629
H   H154      1.0  0.70823  0.45948  0.14983  1.0000 0.1087939119
H   H155      1.0  0.55114  0.19427  0.56900  1.0000 0.3212668332
H   H156      1.0  0.35335  0.78382  0.85285  1.0000 0.302863161
H   H157      1.0  0.57870  0.80653  0.96923  1.0000 0.4166735592
H   H158      1.0  0.56345  0.69428  0.96381  1.0000 0.4138905972
H   H159      1.0  0.84991  0.90582  0.82842  1.0000 0.330596562
H   H160      1.0  0.69373  0.77011  0.81091  1.0000 0.3115370249
H   H161      1.0  0.16552  0.56038  0.06118  1.0000 0.330596562
H   H162      1.0  0.07965  0.44081  0.07193  1.0000 0.302863161
H   H163      1.0  0.86129  0.97865  0.81259  1.0000 0.0790271683
H   H164      1.0  0.90258  0.01213  0.86069  1.0000 0.0893276673
H   H165      1.0  0.10999  0.50917  0.12298  1.0000 0.0790271683
H   H166      1.0  0.28920  0.68524  0.11941  1.0000 0.0893276673
H   H167      1.0  0.31597  0.64529  0.13163  1.0000 0.0790271683
H   H168      1.0  0.13643  0.46868  0.13457  1.0000 0.0790271683
H   H169      1.0  0.78110  0.96627  0.82045  1.0000 0.1087939119
H   H170      1.0  0.84180  0.01982  0.86810  1.0000 0.1087939119
H   H171      1.0  0.66961  0.86810  0.85396  1.0000 0.1207060567
H   H172      1.0  0.16167  0.53720  0.18666  1.0000 0.0705664784
H   H173      1.0  0.34083  0.71380  0.18356  1.0000 0.0790271683
H   H174      1.0  0.61813  0.75909  0.82244  1.0000 0.0790271683
H   H175      1.0  0.66766  0.80263  0.87059  1.0000 0.0975337629
H   H176      1.0  0.37381  0.68062  0.19699  1.0000 0.0790271683
H   H177      1.0  0.19426  0.50230  0.19882  1.0000 0.0790271683
H   H178      1.0  0.38706  0.73825  0.24877  1.0000 0.1087939119
H   H179      1.0  0.32640  0.63643  0.26052  1.0000 0.0975337629
H   H180      1.0  0.20789  0.55867  0.25100  1.0000 0.1087939119
H   H181      1.0  0.94418  0.87529  0.14310  1.0000 0.3212668332
H   H182      1.0  0.53397  0.18114  0.93038  1.0000 0.302863161
H   H183      1.0  0.83726  0.60932  0.03079  1.0000 0.4166735592
H   H184      1.0  0.73044  0.59949  0.03638  1.0000 0.4138905972
H   H185      1.0  0.07729  0.02161  0.17108  1.0000 0.330596562
H   H186      1.0  0.95944  0.88340  0.18887  1.0000 0.3115370249
H   H187      1.0  0.49948  0.10454  0.93889  1.0000 0.330596562
H   H188      1.0  0.36906  0.00781  0.92812  1.0000 0.302863161
H   H189      1.0  0.16626  0.04920  0.18720  1.0000 0.0790271683
H   H190      1.0  0.15095  0.04143  0.13903  1.0000 0.0893276673
H   H191      1.0  0.38644  0.98711  0.87711  1.0000 0.0790271683
H   H192      1.0  0.56604  0.16990  0.88065  1.0000 0.0893276673
H   H193      1.0  0.51341  0.18400  0.86837  1.0000 0.0790271683
H   H194      1.0  0.33394  0.00149  0.86541  1.0000 0.0790271683
H   H195      1.0  0.14612  0.96122  0.17974  1.0000 0.1087939119
H   H196      1.0  0.15113  0.97313  0.13199  1.0000 0.1087939119
H   H197      1.0  0.01397  0.81558  0.14649  1.0000 0.1207060567
H   H198      1.0  0.35087  0.97507  0.81338  1.0000 0.0705664784
H   H199      1.0  0.53047  0.15738  0.81648  1.0000 0.0790271683
H   H200      1.0  0.93695  0.79626  0.17779  1.0000 0.0790271683
H   H201      1.0  0.93149  0.79654  0.12958  1.0000 0.0975337629
H   H202      1.0  0.48299  0.17607  0.80301  1.0000 0.0790271683
H   H203      1.0  0.30294  0.99457  0.80111  1.0000 0.0790271683
H   H204      1.0  0.48988  0.13852  0.75129  1.0000 0.1087939119
H   H205      1.0  0.37580  0.06550  0.73946  1.0000 0.0975337629
H   H206      1.0  0.30814  0.95699  0.74898  1.0000 0.1087939119
H   H207      1.0  0.73223  0.80119  0.85663  1.0000 0.3212668332
H   H208      1.0  0.25071  0.60348  0.06963  1.0000 0.302863161
H   H209      1.0  0.85955  0.58745  0.53080  1.0000 0.4166735592
H   H210      1.0  0.84963  0.48048  0.53621  1.0000 0.4138905972
H   H211      1.0  0.27165  0.82732  0.67111  1.0000 0.330596562
H   H212      1.0  0.13348  0.70953  0.68891  1.0000 0.3115370249
H   H213      1.0  0.35452  0.24945  0.43887  1.0000 0.330596562
H   H214      1.0  0.25783  0.11906  0.42811  1.0000 0.302863161
H   H215      1.0  0.29928  0.91633  0.68720  1.0000 0.0790271683
H   H216      1.0  0.29144  0.90094  0.63904  1.0000 0.0893276673
H   H217      1.0  0.23713  0.13646  0.37710  1.0000 0.0790271683
H   H218      1.0  0.41990  0.31604  0.38064  1.0000 0.0893276673
H   H219      1.0  0.43401  0.26343  0.36836  1.0000 0.0790271683
H   H220      1.0  0.25150  0.08395  0.36540  1.0000 0.0790271683
H   H221      1.0  0.21132  0.89621  0.67971  1.0000 0.1087939119
H   H222      1.0  0.22316  0.90114  0.63197  1.0000 0.1087939119
H   H223      1.0  0.06564  0.76402  0.64646  1.0000 0.1207060567
H   H224      1.0  0.22511  0.10092  0.31337  1.0000 0.0705664784
H   H225      1.0  0.40741  0.28051  0.31648  1.0000 0.0790271683
H   H226      1.0  0.04636  0.68705  0.67781  1.0000 0.0790271683
H   H227      1.0  0.04656  0.68149  0.62960  1.0000 0.0975337629
H   H228      1.0  0.42608  0.23300  0.30300  1.0000 0.0790271683
H   H229      1.0  0.24459  0.05296  0.30109  1.0000 0.0790271683
H   H230      1.0  0.38858  0.23995  0.25129  1.0000 0.1087939119
H   H231      1.0  0.31554  0.12586  0.23944  1.0000 0.0975337629
H   H232      1.0  0.20703  0.05820  0.24897  1.0000 0.1087939119
H   H233      1.0  0.05136  0.48239  0.35670  1.0000 0.3212668332
H   H234      1.0  0.85340  0.00063  0.56963  1.0000 0.302863161
H   H235      1.0  0.05613  0.32822  0.46923  1.0000 0.4166735592
H   H236      1.0  0.94381  0.31284  0.46350  1.0000 0.4138905972
H   H237      1.0  0.15594  0.60002  0.32847  1.0000 0.330596562
H   H238      1.0  0.02014  0.44378  0.31097  1.0000 0.3115370249
H   H239      1.0  0.81033  0.91547  0.56118  1.0000 0.330596562
H   H240      1.0  0.69072  0.82958  0.57194  1.0000 0.302863161
H   H241      1.0  0.22858  0.61121  0.31259  1.0000 0.0790271683
H   H242      1.0  0.26223  0.65263  0.36069  1.0000 0.0893276673
H   H243      1.0  0.75911  0.85993  0.62298  1.0000 0.0790271683
H   H244      1.0  0.93516  0.03912  0.61941  1.0000 0.0893276673
H   H245      1.0  0.89526  0.06594  0.63163  1.0000 0.0790271683
H   H246      1.0  0.71863  0.88639  0.63456  1.0000 0.0790271683
H   H247      1.0  0.21603  0.53087  0.32039  1.0000 0.1087939119
H   H248      1.0  0.26978  0.59171  0.36804  1.0000 0.1087939119
H   H249      1.0  0.11796  0.41945  0.35392  1.0000 0.1207060567
H   H250      1.0  0.78708  0.91157  0.68667  1.0000 0.0705664784
H   H251      1.0  0.96369  0.09072  0.68357  1.0000 0.0790271683
H   H252      1.0  0.00899  0.36806  0.32247  1.0000 0.0790271683
H   H253      1.0  0.05271  0.41772  0.37062  1.0000 0.0975337629
H   H254      1.0  0.93061  0.12381  0.69699  1.0000 0.0790271683
H   H255      1.0  0.75227  0.94426  0.69881  1.0000 0.0790271683
H   H256      1.0  0.98815  0.13698  0.74878  1.0000 0.1087939119
H   H257      1.0  0.88634  0.07635  0.76052  1.0000 0.0975337629
H   H258      1.0  0.80855  0.95781  0.75100  1.0000 0.1087939119
H   H259      1.0  0.12530  0.69417  0.64314  1.0000 0.3212668332
H   H260      1.0  0.43116  0.28400  0.43038  1.0000 0.302863161
H   H261      1.0  0.33737  0.30654  0.22784  1.0000 0.4138905972
H   H262      1.0  0.23055  0.19437  0.13074  1.0000 0.4138905972
H   H263      1.0  0.57711  0.40584  0.05586  1.0000 0.330596562
H   H264      1.0  0.45928  0.27032  0.07632  1.0000 0.3115370249
H   H265      1.0  0.99938  0.06058  0.39498  1.0000 0.330596562
H   H266      1.0  0.86890  0.94076  0.36127  1.0000 0.302863161
H   H267      1.0  0.66619  0.47890  0.11726  1.0000 0.0790271683
H   H268      1.0  0.65124  0.51208  0.10960  1.0000 0.0893276673
H   H269      1.0  0.88638  0.00940  0.39914  1.0000 0.0790271683
H   H270      1.0  0.06597  0.18539  0.39593  1.0000 0.0893276673
H   H271      1.0  0.01344  0.14484  0.32917  1.0000 0.0790271683
H   H272      1.0  0.83395  0.96834  0.33218  1.0000 0.0790271683
H   H273      1.0  0.64640  0.46676  0.18509  1.0000 0.1087939119
H   H274      1.0  0.65176  0.51982  0.17809  1.0000 0.1087939119
H   H275      1.0  0.51456  0.36827  0.19857  1.0000 0.1207060567
H   H276      1.0  0.85074  0.03737  0.37528  1.0000 0.0705664784
H   H277      1.0  0.03036  0.21386  0.37258  1.0000 0.0790271683
H   H278      1.0  0.43699  0.25934  0.14096  1.0000 0.0790271683
H   H279      1.0  0.43197  0.30250  0.13510  1.0000 0.0975337629
H   H280      1.0  0.98297  0.17962  0.30634  1.0000 0.0790271683
H   H281      1.0  0.80290  0.00148  0.30778  1.0000 0.0790271683
H   H282      1.0  0.98979  0.23840  0.35045  1.0000 0.1087939119
H   H283      1.0  0.87546  0.13569  0.30939  1.0000 0.0975337629
H   H284      1.0  0.80811  0.05903  0.35034  1.0000 0.1087939119
H   H285      1.0  0.23283  0.37588  0.93105  1.0000 0.3212668332
H   H286      1.0  0.75040  0.68060  0.64707  1.0000 0.302863161
H   H287      1.0  0.07827  0.10906  0.77203  1.0000 0.4138905972
H   H288      1.0  0.06291  0.09939  0.86905  1.0000 0.4138905972
H   H289      1.0  0.35055  0.52179  0.94416  1.0000 0.330596562
H   H290      1.0  0.19418  0.38298  0.92385  1.0000 0.3115370249
H   H291      1.0  0.66485  0.60330  0.60499  1.0000 0.330596562
H   H292      1.0  0.57942  0.50719  0.63883  1.0000 0.302863161
H   H293      1.0  0.36114  0.54851  0.88272  1.0000 0.0790271683
H   H294      1.0  0.40269  0.54192  0.89032  1.0000 0.0893276673
H   H295      1.0  0.61019  0.48679  0.60089  1.0000 0.0790271683
H   H296      1.0  0.78930  0.66957  0.60407  1.0000 0.0893276673
H   H297      1.0  0.81576  0.68408  0.67084  1.0000 0.0790271683
H   H298      1.0  0.63628  0.50154  0.66786  1.0000 0.0790271683
H   H299      1.0  0.28033  0.46010  0.81494  1.0000 0.1087939119
H   H300      1.0  0.34113  0.47321  0.82184  1.0000 0.1087939119
H   H301      1.0  0.16877  0.31506  0.80153  1.0000 0.1207060567
H   H302      1.0  0.66238  0.47538  0.62481  1.0000 0.0705664784
H   H303      1.0  0.84147  0.65769  0.62743  1.0000 0.0790271683
H   H304      1.0  0.11789  0.29541  0.85925  1.0000 0.0790271683
H   H305      1.0  0.16763  0.29698  0.86502  1.0000 0.0975337629
H   H306      1.0  0.87379  0.67691  0.69371  1.0000 0.0790271683
H   H307      1.0  0.69431  0.49539  0.69230  1.0000 0.0790271683
H   H308      1.0  0.88871  0.63985  0.64958  1.0000 0.1087939119
H   H309      1.0  0.82759  0.56708  0.69071  1.0000 0.0975337629
H   H310      1.0  0.70959  0.45829  0.64981  1.0000 0.1087939119
H   H311      1.0  0.44418  0.30097  0.06906  1.0000 0.3212668332
H   H312      1.0  0.03379  0.10330  0.35283  1.0000 0.302863161
H   H313      1.0  0.19333  0.16250  0.77214  1.0000 0.4138905972
H   H314      1.0  0.30566  0.26950  0.86921  1.0000 0.4138905972
H   H315      1.0  0.09386  0.92270  0.94419  1.0000 0.330596562
H   H316      1.0  0.22947  0.04056  0.92379  1.0000 0.3115370249
H   H317      1.0  0.43936  0.50059  0.60500  1.0000 0.330596562
H   H318      1.0  0.55914  0.63101  0.63871  1.0000 0.302863161
H   H319      1.0  0.02092  0.83368  0.88281  1.0000 0.0790271683
H   H320      1.0  0.98797  0.84889  0.89039  1.0000 0.0893276673
H   H321      1.0  0.49052  0.61355  0.60084  1.0000 0.0790271683
H   H322      1.0  0.31453  0.43398  0.60404  1.0000 0.0893276673
H   H323      1.0  0.35507  0.48651  0.67081  1.0000 0.0790271683
H   H324      1.0  0.53158  0.66600  0.66778  1.0000 0.0790271683
H   H325      1.0  0.03331  0.85362  0.81498  1.0000 0.1087939119
H   H326      1.0  0.98059  0.84864  0.82191  1.0000 0.1087939119
H   H327      1.0  0.13218  0.98575  0.80148  1.0000 0.1207060567
H   H328      1.0  0.46256  0.64921  0.62467  1.0000 0.0705664784
H   H329      1.0  0.28608  0.46961  0.62738  1.0000 0.0790271683
H   H330      1.0  0.24068  0.06293  0.85915  1.0000 0.0790271683
H   H331      1.0  0.19784  0.06828  0.86494  1.0000 0.0975337629
H   H332      1.0  0.32041  0.51709  0.69363  1.0000 0.0790271683
H   H333      1.0  0.49852  0.69712  0.69216  1.0000 0.0790271683
H   H334      1.0  0.26147  0.51009  0.64952  1.0000 0.1087939119
H   H335      1.0  0.36429  0.62454  0.69057  1.0000 0.0975337629
H   H336      1.0  0.44083  0.69178  0.64959  1.0000 0.1087939119
H   H337      1.0  0.12441  0.26761  0.06905  1.0000 0.3212668332
H   H338      1.0  0.81930  0.74953  0.35293  1.0000 0.302863161
H   H339      1.0  0.39082  0.42156  0.22791  1.0000 0.4138905972
H   H340      1.0  0.40055  0.43701  0.13094  1.0000 0.4138905972
H   H341      1.0  0.97875  0.15025  0.05598  1.0000 0.330596562
H   H342      1.0  0.11767  0.30659  0.07643  1.0000 0.3115370249
H   H343      1.0  0.89662  0.83510  0.39502  1.0000 0.330596562
H   H344      1.0  0.99269  0.92051  0.36118  1.0000 0.302863161
H   H345      1.0  0.95194  0.13940  0.11746  1.0000 0.0790271683
H   H346      1.0  0.95785  0.09722  0.10965  1.0000 0.0893276673
H   H347      1.0  0.01316  0.88980  0.39911  1.0000 0.0790271683
H   H348      1.0  0.83038  0.71067  0.39594  1.0000 0.0893276673
H   H349      1.0  0.81588  0.68422  0.32916  1.0000 0.0790271683
H   H350      1.0  0.99839  0.86369  0.33214  1.0000 0.0790271683
H   H351      1.0  0.03996  0.21956  0.18522  1.0000 0.1087939119
H   H352      1.0  0.02605  0.15803  0.17814  1.0000 0.1087939119
H   H353      1.0  0.18447  0.33041  0.19857  1.0000 0.1207060567
H   H354      1.0  0.02473  0.83777  0.37519  1.0000 0.0705664784
H   H355      1.0  0.84243  0.65865  0.37258  1.0000 0.0790271683
H   H356      1.0  0.20499  0.38227  0.14099  1.0000 0.0790271683
H   H357      1.0  0.20262  0.33178  0.13505  1.0000 0.0975337629
H   H358      1.0  0.82307  0.62620  0.30631  1.0000 0.0790271683
H   H359      1.0  0.00456  0.80569  0.30768  1.0000 0.0790271683
H   H360      1.0  0.86039  0.61156  0.35043  1.0000 0.1087939119
H   H361      1.0  0.93313  0.67265  0.30930  1.0000 0.0975337629
H   H362      1.0  0.04193  0.79069  0.35019  1.0000 0.1087939119
H   H363      1.0  0.19890  0.05575  0.93099  1.0000 0.3212668332
H   H364      1.0  0.39655  0.46609  0.64714  1.0000 0.302863161
H   H365      1.0  0.17144  0.44360  0.53079  1.0000 0.4166735592
H   H366      1.0  0.18655  0.55571  0.53620  1.0000 0.4138905972
H   H367      1.0  0.90004  0.34414  0.67156  1.0000 0.330596562
H   H368      1.0  0.05622  0.47985  0.68909  1.0000 0.3115370249
H   H369      1.0  0.58441  0.68955  0.43883  1.0000 0.330596562
H   H370      1.0  0.67038  0.80921  0.42807  1.0000 0.302863161
H   H371      1.0  0.88870  0.27135  0.68742  1.0000 0.0790271683
H   H372      1.0  0.84741  0.23785  0.63931  1.0000 0.0893276673
H   H373      1.0  0.64002  0.74084  0.37702  1.0000 0.0790271683
H   H374      1.0  0.46082  0.56478  0.38060  1.0000 0.0893276673
H   H375      1.0  0.43407  0.60476  0.36838  1.0000 0.0790271683
H   H376      1.0  0.61361  0.78136  0.36543  1.0000 0.0790271683
H   H377      1.0  0.96894  0.28378  0.67958  1.0000 0.1087939119
H   H378      1.0  0.90823  0.23020  0.63192  1.0000 0.1087939119
H   H379      1.0  0.08042  0.38194  0.64607  1.0000 0.1207060567
H   H380      1.0  0.58828  0.71276  0.31334  1.0000 0.0705664784
H   H381      1.0  0.40913  0.53618  0.31644  1.0000 0.0790271683
H   H382      1.0  0.13186  0.49092  0.67757  1.0000 0.0790271683
H   H383      1.0  0.08235  0.44738  0.62943  1.0000 0.0975337629
H   H384      1.0  0.37621  0.56943  0.30302  1.0000 0.0790271683
H   H385      1.0  0.55575  0.74772  0.30118  1.0000 0.0790271683
H   H386      1.0  0.36284  0.51168  0.25124  1.0000 0.1087939119
H   H387      1.0  0.42350  0.61349  0.23948  1.0000 0.0975337629
H   H388      1.0  0.54201  0.69124  0.24899  1.0000 0.1087939119
H   H389      1.0  0.80582  0.37471  0.35692  1.0000 0.3212668332
H   H390      1.0  0.21611  0.06893  0.56961  1.0000 0.302863161
H   H391      1.0  0.91276  0.64071  0.46920  1.0000 0.4166735592
H   H392      1.0  0.01957  0.65049  0.46361  1.0000 0.4138905972
H   H393      1.0  0.67271  0.22837  0.32895  1.0000 0.330596562
H   H394      1.0  0.79055  0.36656  0.31114  1.0000 0.3115370249
H   H395      1.0  0.25050  0.14542  0.56110  1.0000 0.330596562
H   H396      1.0  0.38101  0.24227  0.57187  1.0000 0.302863161
H   H397      1.0  0.58375  0.20079  0.31280  1.0000 0.0790271683
H   H398      1.0  0.59904  0.20856  0.36096  1.0000 0.0893276673
H   H399      1.0  0.36355  0.26288  0.62288  1.0000 0.0790271683
H   H400      1.0  0.18399  0.08013  0.61933  1.0000 0.0893276673
H   H401      1.0  0.23660  0.06601  0.63160  1.0000 0.0790271683
H   H402      1.0  0.41609  0.24854  0.63457  1.0000 0.0790271683
H   H403      1.0  0.60390  0.28878  0.32023  1.0000 0.1087939119
H   H404      1.0  0.59887  0.27687  0.36798  1.0000 0.1087939119
H   H405      1.0  0.73603  0.43442  0.35348  1.0000 0.1207060567
H   H406      1.0  0.39900  0.27481  0.68660  1.0000 0.0705664784
H   H407      1.0  0.21941  0.09249  0.68347  1.0000 0.0790271683
H   H408      1.0  0.81306  0.45373  0.32220  1.0000 0.0790271683
H   H409      1.0  0.81850  0.45345  0.37041  1.0000 0.0975337629
H   H410      1.0  0.26701  0.07391  0.69696  1.0000 0.0790271683
H   H411      1.0  0.44704  0.25541  0.69890  1.0000 0.0790271683
H   H412      1.0  0.25988  0.11123  0.74868  1.0000 0.1087939119
H   H413      1.0  0.37400  0.18431  0.76053  1.0000 0.0975337629
H   H414      1.0  0.44163  0.29279  0.75103  1.0000 0.1087939119
H   H415      1.0  0.01774  0.44878  0.64336  1.0000 0.3212668332
H   H416      1.0  0.49935  0.64659  0.43037  1.0000 0.302863161
C   C1        1.0  0.51807  0.40738  0.83768  1.0000 0.0298008153
C   C2        1.0  0.41595  0.03469  0.11510  1.0000 0.0298008153
C   C3        1.0  0.41342  0.06603  0.13911  1.0000 -0.1696634112
C   C4        1.0  0.59419  0.41649  0.84670  1.0000 -0.3325396074
C   C5        1.0  0.42724  0.06935  0.17918  1.0000 -0.117802911
C   C6        1.0  0.64016  0.49968  0.84450  1.0000 -0.117802911
C   C7        1.0  0.42322  0.09891  0.20358  1.0000 -0.0738448594
C   C8        1.0  0.44160  0.10654  0.24345  1.0000 -0.3209417915
C   C9        1.0  0.56977  0.68065  0.16246  1.0000 0.0298008153
C   C10       1.0  0.91977  0.30092  0.88487  1.0000 0.0298008153
C   C11       1.0  0.92690  0.27415  0.86090  1.0000 -0.1696634112
C   C12       1.0  0.56964  0.74751  0.15315  1.0000 -0.3325396074
C   C13       1.0  0.89029  0.24799  0.82082  1.0000 -0.117802911
C   C14       1.0  0.65501  0.79565  0.15536  1.0000 -0.117802911
C   C15       1.0  0.89509  0.21917  0.79647  1.0000 -0.0738448594
C   C16       1.0  0.86326  0.19805  0.75657  1.0000 -0.3209417915
C   C17       1.0  0.15735  0.81972  0.38913  1.0000 0.0298008153
C   C18       1.0  0.78473  0.16959  0.11890  1.0000 0.0298008153
C   C19       1.0  0.81604  0.17704  0.15288  1.0000 -0.1696634112
C   C20       1.0  0.16611  0.81927  0.32211  1.0000 -0.3325396074
C   C21       1.0  0.81957  0.14045  0.14258  1.0000 -0.117802911
C   C22       1.0  0.24948  0.90486  0.35931  1.0000 -0.117802911
C   C23       1.0  0.84909  0.14577  0.17630  1.0000 -0.0738448594
C   C24       1.0  0.85702  0.11376  0.16577  1.0000 -0.3209417915
C   C25       1.0  0.43062  0.76824  0.61086  1.0000 0.0298008153
C   C26       1.0  0.05078  0.66624  0.88108  1.0000 0.0298008153
C   C27       1.0  0.02405  0.66335  0.84710  1.0000 -0.1696634112
C   C28       1.0  0.49789  0.84468  0.67785  1.0000 -0.3325396074
C   C29       1.0  0.99755  0.67698  0.85738  1.0000 -0.117802911
C   C30       1.0  0.54576  0.89045  0.64059  1.0000 -0.117802911
C   C31       1.0  0.96884  0.67245  0.82365  1.0000 -0.0738448594
C   C32       1.0  0.94701  0.69056  0.83416  1.0000 -0.3209417915
C   C33       1.0  0.68034  0.34267  0.61081  1.0000 0.0298008153
C   C34       1.0  0.33041  0.71526  0.88111  1.0000 0.0298008153
C   C35       1.0  0.32297  0.68396  0.84714  1.0000 -0.1696634112
C   C36       1.0  0.68038  0.33365  0.67784  1.0000 -0.3325396074
C   C37       1.0  0.35969  0.68056  0.85745  1.0000 -0.117802911
C   C38       1.0  0.59496  0.25042  0.64062  1.0000 -0.117802911
C   C39       1.0  0.35434  0.65098  0.82373  1.0000 -0.0738448594
C   C40       1.0  0.38658  0.64330  0.83427  1.0000 -0.3209417915
C   C41       1.0  0.73165  0.06920  0.38905  1.0000 0.0298008153
C   C42       1.0  0.83374  0.44917  0.11893  1.0000 0.0298008153
C   C43       1.0  0.83664  0.47591  0.15292  1.0000 -0.1696634112
C   C44       1.0  0.65560  0.00254  0.32206  1.0000 -0.3325396074
C   C45       1.0  0.82305  0.50244  0.14264  1.0000 -0.117802911
C   C46       1.0  0.60959  0.95441  0.35929  1.0000 -0.117802911
C   C47       1.0  0.82758  0.53117  0.17638  1.0000 -0.0738448594
C   C48       1.0  0.80948  0.55300  0.16587  1.0000 -0.3209417915
C   C49       1.0  0.81934  0.93021  0.83752  1.0000 0.0298008153
C   C50       1.0  0.19918  0.58033  0.11516  1.0000 0.0298008153
C   C51       1.0  0.22593  0.57318  0.13913  1.0000 -0.1696634112
C   C52       1.0  0.75267  0.93053  0.84692  1.0000 -0.3325396074
C   C53       1.0  0.25200  0.60971  0.17921  1.0000 -0.117802911
C   C54       1.0  0.70440  0.84505  0.84465  1.0000 -0.117802911
C   C55       1.0  0.28079  0.60488  0.20355  1.0000 -0.0738448594
C   C56       1.0  0.30180  0.63659  0.24345  1.0000 -0.3209417915
C   C57       1.0  0.09256  0.98186  0.16230  1.0000 0.0298008153
C   C58       1.0  0.46533  0.08406  0.88490  1.0000 0.0298008153
C   C59       1.0  0.43399  0.08658  0.86088  1.0000 -0.1696634112
C   C60       1.0  0.08345  0.90573  0.15329  1.0000 -0.3325396074
C   C61       1.0  0.43059  0.07268  0.82082  1.0000 -0.117802911
C   C62       1.0  0.00026  0.85976  0.15547  1.0000 -0.117802911
C   C63       1.0  0.40104  0.07673  0.79643  1.0000 -0.0738448594
C   C64       1.0  0.39328  0.05823  0.75656  1.0000 -0.3209417915
C   C65       1.0  0.23191  0.84259  0.66231  1.0000 0.0298008153
C   C66       1.0  0.33407  0.21533  0.38489  1.0000 0.0298008153
C   C67       1.0  0.33660  0.18400  0.36088  1.0000 -0.1696634112
C   C68       1.0  0.15579  0.83350  0.65327  1.0000 -0.3325396074
C   C69       1.0  0.32272  0.18062  0.32081  1.0000 -0.117802911
C   C70       1.0  0.10982  0.75031  0.65548  1.0000 -0.117802911
C   C71       1.0  0.32675  0.15107  0.29642  1.0000 -0.0738448594
C   C72       1.0  0.30827  0.14333  0.25655  1.0000 -0.3209417915
C   C73       1.0  0.18023  0.56934  0.33754  1.0000 0.0298008153
C   C74       1.0  0.83025  0.94911  0.61516  1.0000 0.0298008153
C   C75       1.0  0.82313  0.97588  0.63913  1.0000 -0.1696634112
C   C76       1.0  0.18041  0.50253  0.34688  1.0000 -0.3325396074
C   C77       1.0  0.85962  0.00193  0.67921  1.0000 -0.117802911
C   C78       1.0  0.09502  0.45437  0.34466  1.0000 -0.117802911
C   C79       1.0  0.85482  0.03076  0.70355  1.0000 -0.0738448594
C   C80       1.0  0.88649  0.05173  0.74344  1.0000 -0.3209417915
C   C81       1.0  0.59266  0.43030  0.11086  1.0000 0.0298008153
C   C82       1.0  0.96525  0.08038  0.38109  1.0000 0.0298008153
C   C83       1.0  0.93395  0.07294  0.34712  1.0000 -0.1696634112
C   C84       1.0  0.58390  0.43072  0.17789  1.0000 -0.3325396074
C   C85       1.0  0.93050  0.10961  0.35741  1.0000 -0.117802911
C   C86       1.0  0.50053  0.34514  0.14069  1.0000 -0.117802911
C   C87       1.0  0.90098  0.10430  0.32370  1.0000 -0.0738448594
C   C88       1.0  0.89315  0.13641  0.33423  1.0000 -0.3209417915
C   C89       1.0  0.31938  0.48176  0.88915  1.0000 0.0298008153
C   C90       1.0  0.69918  0.58371  0.61892  1.0000 0.0298008153
C   C91       1.0  0.72593  0.58662  0.65291  1.0000 -0.1696634112
C   C92       1.0  0.25202  0.40527  0.82215  1.0000 -0.3325396074
C   C93       1.0  0.75248  0.57306  0.64264  1.0000 -0.117802911
C   C94       1.0  0.20420  0.35953  0.85942  1.0000 -0.117802911
C   C95       1.0  0.78119  0.57756  0.67637  1.0000 -0.0738448594
C   C96       1.0  0.80308  0.55952  0.66586  1.0000 -0.3209417915
C   C97       1.0  0.06966  0.90733  0.88918  1.0000 0.0298008153
C   C98       1.0  0.41952  0.53468  0.61888  1.0000 0.0298008153
C   C99       1.0  0.42696  0.56598  0.65285  1.0000 -0.1696634112
C   C100      1.0  0.06956  0.91631  0.82216  1.0000 -0.3325396074
C   C101      1.0  0.39034  0.56946  0.64254  1.0000 -0.117802911
C   C102      1.0  0.15501  0.99956  0.85937  1.0000 -0.117802911
C   C103      1.0  0.39568  0.59903  0.67626  1.0000 -0.0738448594
C   C104      1.0  0.36352  0.60680  0.66573  1.0000 -0.3209417915
C   C105      1.0  0.01839  0.18083  0.11096  1.0000 0.0298008153
C   C106      1.0  0.91622  0.80079  0.38108  1.0000 0.0298008153
C   C107      1.0  0.91334  0.77407  0.34709  1.0000 -0.1696634112
C   C108      1.0  0.09443  0.24747  0.17794  1.0000 -0.3325396074
C   C109      1.0  0.92701  0.74762  0.35737  1.0000 -0.117802911
C   C110      1.0  0.14044  0.29562  0.14071  1.0000 -0.117802911
C   C111      1.0  0.92247  0.71888  0.32363  1.0000 -0.0738448594
C   C112      1.0  0.94067  0.69715  0.33414  1.0000 -0.3209417915
C   C113      1.0  0.93065  0.31978  0.66248  1.0000 0.0298008153
C   C114      1.0  0.55083  0.66969  0.38485  1.0000 0.0298008153
C   C115      1.0  0.52409  0.67684  0.36088  1.0000 -0.1696634112
C   C116      1.0  0.99736  0.31950  0.65310  1.0000 -0.3325396074
C   C117      1.0  0.49797  0.64028  0.32079  1.0000 -0.117802911
C   C118      1.0  0.04560  0.40496  0.65536  1.0000 -0.117802911
C   C119      1.0  0.46920  0.64513  0.29645  1.0000 -0.0738448594
C   C120      1.0  0.44813  0.61336  0.25655  1.0000 -0.3209417915
C   C121      1.0  0.65744  0.26813  0.33770  1.0000 0.0298008153
C   C122      1.0  0.28469  0.16596  0.61509  1.0000 0.0298008153
C   C123      1.0  0.31601  0.16341  0.63909  1.0000 -0.1696634112
C   C124      1.0  0.66655  0.34427  0.34668  1.0000 -0.3325396074
C   C125      1.0  0.31934  0.17723  0.67916  1.0000 -0.117802911
C   C126      1.0  0.74974  0.39023  0.34452  1.0000 -0.117802911
C   C127      1.0  0.34890  0.17321  0.70356  1.0000 -0.0738448594
C   C128      1.0  0.35652  0.19158  0.74343  1.0000 -0.3209417915
N   N1        1.0  0.56306  0.48762  0.83340  1.0000 -0.4430641854
N   N2        1.0  0.40486  0.03316  0.07684  1.0000 -0.4566162234
N   N3        1.0  0.65434  0.73000  0.16679  1.0000 -0.4430641854
N   N4        1.0  0.95653  0.32815  0.92313  1.0000 -0.4566162234
N   N5        1.0  0.23778  0.90446  0.42433  1.0000 -0.4430641854
N   N6        1.0  0.78322  0.20637  0.12829  1.0000 -0.4566162234
N   N7        1.0  0.47971  0.81311  0.57559  1.0000 -0.4430641854
N   N8        1.0  0.07834  0.65551  0.87171  1.0000 -0.4566162234
N   N9        1.0  0.59578  0.26238  0.57558  1.0000 -0.4430641854
N   N10       1.0  0.29361  0.71675  0.87172  1.0000 -0.4566162234
N   N11       1.0  0.68654  0.01981  0.42427  1.0000 -0.4430641854
N   N12       1.0  0.84450  0.42164  0.12830  1.0000 -0.4566162234
N   N13       1.0  0.76988  0.84555  0.83314  1.0000 -0.4430641854
N   N14       1.0  0.17196  0.54359  0.07689  1.0000 -0.4566162234
N   N15       1.0  0.01232  0.93686  0.16656  1.0000 -0.4430641854
N   N16       1.0  0.46688  0.09516  0.92316  1.0000 -0.4566162234
N   N17       1.0  0.18690  0.76235  0.66659  1.0000 -0.4430641854
N   N18       1.0  0.34516  0.21688  0.42315  1.0000 -0.4566162234
N   N19       1.0  0.09564  0.51997  0.33320  1.0000 -0.4430641854
N   N20       1.0  0.79351  0.92188  0.57689  1.0000 -0.4566162234
N   N21       1.0  0.51224  0.34557  0.07566  1.0000 -0.4430641854
N   N22       1.0  0.96674  0.04358  0.37170  1.0000 -0.4566162234
N   N23       1.0  0.27035  0.43693  0.92442  1.0000 -0.4430641854
N   N24       1.0  0.67162  0.59444  0.62830  1.0000 -0.4566162234
N   N25       1.0  0.15425  0.98764  0.92441  1.0000 -0.4430641854
N   N26       1.0  0.45631  0.53317  0.62828  1.0000 -0.4566162234
N   N27       1.0  0.06350  0.23024  0.07574  1.0000 -0.4430641854
N   N28       1.0  0.90544  0.82830  0.37171  1.0000 -0.4566162234
N   N29       1.0  0.98008  0.40443  0.66685  1.0000 -0.4430641854
N   N30       1.0  0.57806  0.70643  0.42311  1.0000 -0.4566162234
N   N31       1.0  0.73768  0.31313  0.33346  1.0000 -0.4430641854
N   N32       1.0  0.28317  0.15488  0.57683  1.0000 -0.4566162234
O   O1        1.0  0.80843  0.35477  0.03778  1.0000 -0.755341927
O   O2        1.0  0.58366  0.16175  0.01484  1.0000 -0.7093011283
O   O3        1.0  0.77246  0.38499  0.03391  1.0000 -0.752160373
O   O4        1.0  0.45896  0.31256  0.96704  1.0000 -0.7803961472
O   O5        1.0  0.66332  0.47862  0.99021  1.0000 -0.699853119
O   O6        1.0  0.48564  0.27409  0.95413  1.0000 -0.7803961472
O   O7        1.0  0.28369  0.20801  0.94746  1.0000 -0.7903736947
O   O8        1.0  0.10162  0.01818  0.98076  1.0000 -0.822868072
O   O9        1.0  0.05744  0.00345  0.92170  1.0000 -0.7700252538
O   O10       1.0  0.77122  0.42918  0.97142  1.0000 -0.752160373
O   O11       1.0  0.72114  0.44437  0.97219  1.0000 -0.7700252538
O   O12       1.0  0.94228  0.63539  0.95874  1.0000 -0.752160373
O   O13       1.0  0.51662  0.26359  0.02222  1.0000 -0.699853119
O   O14       1.0  0.36666  0.07619  0.04416  1.0000 -0.7395274435
O   O15       1.0  0.87740  0.67505  0.96110  1.0000 -0.8304977572
O   O16       1.0  0.81068  0.67660  0.97070  1.0000 -0.7395274435
O   O17       1.0  0.57144  0.25346  0.02122  1.0000 -0.7395274435
O   O18       1.0  0.31712  0.77073  0.96223  1.0000 -0.752160373
O   O19       1.0  0.14695  0.56881  0.98517  1.0000 -0.7093011283
O   O20       1.0  0.35119  0.73859  0.96608  1.0000 -0.752160373
O   O21       1.0  0.34561  0.49195  0.03295  1.0000 -0.7803961472
O   O22       1.0  0.48871  0.67335  0.00987  1.0000 -0.699853119
O   O23       1.0  0.32004  0.53151  0.04589  1.0000 -0.7803961472
O   O24       1.0  0.26040  0.33607  0.05253  1.0000 -0.7903736947
O   O25       1.0  0.03736  0.12070  0.01922  1.0000 -0.822868072
O   O26       1.0  0.08173  0.13565  0.07829  1.0000 -0.7700252538
O   O27       1.0  0.45785  0.79980  0.02858  1.0000 -0.752160373
O   O28       1.0  0.47229  0.74897  0.02784  1.0000 -0.7700252538
O   O29       1.0  0.67672  0.98352  0.04124  1.0000 -0.752160373
O   O30       1.0  0.24152  0.49447  0.97778  1.0000 -0.7093011283
O   O31       1.0  0.03214  0.32252  0.95585  1.0000 -0.7395274435
O   O32       1.0  0.71410  0.91648  0.03899  1.0000 -0.8304977572
O   O33       1.0  0.70634  0.84046  0.02959  1.0000 -0.7395274435
O   O34       1.0  0.23229  0.55021  0.97880  1.0000 -0.7395274435
O   O35       1.0  0.10476  0.56689  0.04642  1.0000 -0.755341927
O   O36       1.0  0.91187  0.39700  0.07819  1.0000 -0.7093011283
O   O37       1.0  0.13494  0.60101  0.11261  1.0000 -0.752160373
O   O38       1.0  0.06260  0.59558  0.35367  1.0000 -0.7803961472
O   O39       1.0  0.22859  0.73835  0.31535  1.0000 -0.699853119
O   O40       1.0  0.02405  0.56988  0.28850  1.0000 -0.7803961472
O   O41       1.0  0.95802  0.51059  0.42439  1.0000 -0.7903736947
O   O42       1.0  0.76820  0.28747  0.41666  1.0000 -0.822868072
O   O43       1.0  0.75347  0.33182  0.44609  1.0000 -0.7700252538
O   O44       1.0  0.17907  0.70764  0.15804  1.0000 -0.752160373
O   O45       1.0  0.19446  0.72225  0.22330  1.0000 -0.7700252538
O   O46       1.0  0.38530  0.92655  0.19312  1.0000 -0.752160373
O   O47       1.0  0.01369  0.49143  0.24703  1.0000 -0.7093011283
O   O48       1.0  0.82632  0.28211  0.20959  1.0000 -0.7395274435
O   O49       1.0  0.42513  0.96402  0.29776  1.0000 -0.8304977572
O   O50       1.0  0.42665  0.95582  0.36602  1.0000 -0.7395274435
O   O51       1.0  0.00353  0.48229  0.18209  1.0000 -0.7395274435
O   O52       1.0  0.52063  0.05839  0.95359  1.0000 -0.755341927
O   O53       1.0  0.31887  0.83367  0.92184  1.0000 -0.7093011283
O   O54       1.0  0.48865  0.02248  0.88741  1.0000 -0.752160373
O   O55       1.0  0.24198  0.70908  0.64636  1.0000 -0.7803961472
O   O56       1.0  0.42339  0.91352  0.68470  1.0000 -0.699853119
O   O57       1.0  0.28142  0.73555  0.71150  1.0000 -0.7803961472
O   O58       1.0  0.08601  0.53352  0.57569  1.0000 -0.7903736947
O   O59       1.0  0.87058  0.35139  0.58334  1.0000 -0.822868072
O   O60       1.0  0.88568  0.30740  0.55394  1.0000 -0.7700252538
O   O61       1.0  0.54972  0.02107  0.84196  1.0000 -0.752160373
O   O62       1.0  0.49890  0.97108  0.77672  1.0000 -0.7700252538
O   O63       1.0  0.73348  0.19216  0.80687  1.0000 -0.752160373
O   O64       1.0  0.24439  0.76660  0.75299  1.0000 -0.699853119
O   O65       1.0  0.07253  0.61670  0.79044  1.0000 -0.7395274435
O   O66       1.0  0.66648  0.12751  0.70241  1.0000 -0.8304977572
O   O67       1.0  0.59048  0.06093  0.63417  1.0000 -0.7395274435
O   O68       1.0  0.30022  0.82141  0.81795  1.0000 -0.7395274435
O   O69       1.0  0.93307  0.39525  0.95365  1.0000 -0.752160373
O   O70       1.0  0.10313  0.58827  0.92189  1.0000 -0.7093011283
O   O71       1.0  0.89893  0.36499  0.88745  1.0000 -0.752160373
O   O72       1.0  0.90441  0.43738  0.64635  1.0000 -0.7803961472
O   O73       1.0  0.76165  0.27142  0.68467  1.0000 -0.699853119
O   O74       1.0  0.93012  0.47596  0.71151  1.0000 -0.7803961472
O   O75       1.0  0.98947  0.54204  0.57566  1.0000 -0.7903736947
O   O76       1.0  0.21257  0.73182  0.58334  1.0000 -0.822868072
O   O77       1.0  0.16816  0.74651  0.55393  1.0000 -0.7700252538
O   O78       1.0  0.79234  0.32089  0.84199  1.0000 -0.752160373
O   O79       1.0  0.77784  0.30564  0.77672  1.0000 -0.7700252538
O   O80       1.0  0.57340  0.11460  0.80685  1.0000 -0.752160373
O   O81       1.0  0.00863  0.48639  0.75299  1.0000 -0.7093011283
O   O82       1.0  0.21796  0.67379  0.79043  1.0000 -0.7395274435
O   O83       1.0  0.53606  0.07496  0.70228  1.0000 -0.8304977572
O   O84       1.0  0.54420  0.07341  0.63402  1.0000 -0.7395274435
O   O85       1.0  0.01779  0.49656  0.81795  1.0000 -0.7395274435
O   O86       1.0  0.44159  0.97929  0.04636  1.0000 -0.755341927
O   O87       1.0  0.66641  0.18120  0.07810  1.0000 -0.7093011283
O   O88       1.0  0.47745  0.01129  0.11256  1.0000 -0.752160373
O   O89       1.0  0.79098  0.25809  0.35366  1.0000 -0.7803961472
O   O90       1.0  0.58653  0.07668  0.31532  1.0000 -0.699853119
O   O91       1.0  0.76449  0.21864  0.28852  1.0000 -0.7803961472
O   O92       1.0  0.96646  0.41397  0.42435  1.0000 -0.7903736947
O   O93       1.0  0.14859  0.62939  0.41665  1.0000 -0.822868072
O   O94       1.0  0.19261  0.61433  0.44609  1.0000 -0.7700252538
O   O95       1.0  0.47888  0.95026  0.15802  1.0000 -0.752160373
O   O96       1.0  0.52893  0.00110  0.22329  1.0000 -0.7700252538
O   O97       1.0  0.30782  0.76654  0.19317  1.0000 -0.752160373
O   O98       1.0  0.73339  0.25562  0.24700  1.0000 -0.7093011283
O   O99       1.0  0.88341  0.42755  0.20956  1.0000 -0.7395274435
O   O100      1.0  0.37259  0.83361  0.29760  1.0000 -0.8304977572
O   O101      1.0  0.43921  0.90962  0.36586  1.0000 -0.7395274435
O   O102      1.0  0.67860  0.19979  0.18204  1.0000 -0.7395274435
O   O103      1.0  0.72947  0.18304  0.03784  1.0000 -0.752160373
O   O104      1.0  0.93124  0.35303  0.01486  1.0000 -0.7093011283
O   O105      1.0  0.76154  0.14889  0.03391  1.0000 -0.752160373
O   O106      1.0  0.00830  0.15461  0.96703  1.0000 -0.7803961472
O   O107      1.0  0.82716  0.01173  0.99026  1.0000 -0.699853119
O   O108      1.0  0.96861  0.18007  0.95416  1.0000 -0.7803961472
O   O109      1.0  0.16380  0.23933  0.94746  1.0000 -0.7903736947
O   O110      1.0  0.37904  0.46244  0.98076  1.0000 -0.822868072
O   O111      1.0  0.36442  0.41836  0.92172  1.0000 -0.7700252538
O   O112      1.0  0.70035  0.04228  0.97141  1.0000 -0.752160373
O   O113      1.0  0.75112  0.02780  0.97219  1.0000 -0.7700252538
O   O114      1.0  0.51661  0.82342  0.95875  1.0000 -0.752160373
O   O115      1.0  0.00561  0.25856  0.02224  1.0000 -0.7093011283
O   O116      1.0  0.17754  0.46792  0.04420  1.0000 -0.7395274435
O   O117      1.0  0.58398  0.78623  0.96113  1.0000 -0.8304977572
O   O118      1.0  0.66009  0.79407  0.97082  1.0000 -0.7395274435
O   O119      1.0  0.94989  0.26780  0.02124  1.0000 -0.7395274435
O   O120      1.0  0.14531  0.69169  0.96218  1.0000 -0.752160373
O   O121      1.0  0.33835  0.91648  0.98519  1.0000 -0.7093011283
O   O122      1.0  0.11504  0.72762  0.96609  1.0000 -0.752160373
O   O123      1.0  0.18740  0.04100  0.03295  1.0000 -0.7803961472
O   O124      1.0  0.02129  0.83657  0.00986  1.0000 -0.699853119
O   O125      1.0  0.22595  0.01441  0.04590  1.0000 -0.7803961472
O   O126      1.0  0.29205  0.21635  0.05252  1.0000 -0.7903736947
O   O127      1.0  0.48187  0.39842  0.01922  1.0000 -0.822868072
O   O128      1.0  0.49656  0.44258  0.07827  1.0000 -0.7700252538
O   O129      1.0  0.07094  0.72893  0.02860  1.0000 -0.752160373
O   O130      1.0  0.05563  0.77888  0.02782  1.0000 -0.7700252538
O   O131      1.0  0.86479  0.55787  0.04132  1.0000 -0.752160373
O   O132      1.0  0.23638  0.98338  0.97778  1.0000 -0.699853119
O   O133      1.0  0.42373  0.13328  0.95582  1.0000 -0.7395274435
O   O134      1.0  0.82483  0.62244  0.03895  1.0000 -0.8304977572
O   O135      1.0  0.82336  0.68922  0.02947  1.0000 -0.7395274435
O   O136      1.0  0.24655  0.92860  0.97879  1.0000 -0.7395274435
O   O137      1.0  0.94159  0.89521  0.46219  1.0000 -0.755341927
O   O138      1.0  0.16648  0.08835  0.48519  1.0000 -0.7093011283
O   O139      1.0  0.97761  0.86504  0.46607  1.0000 -0.752160373
O   O140      1.0  0.29112  0.93751  0.53298  1.0000 -0.7803961472
O   O141      1.0  0.08675  0.77143  0.50979  1.0000 -0.699853119
O   O142      1.0  0.26440  0.97594  0.54588  1.0000 -0.7803961472
O   O143      1.0  0.46633  0.04198  0.55253  1.0000 -0.7903736947
O   O144      1.0  0.64839  0.23185  0.51924  1.0000 -0.822868072
O   O145      1.0  0.69259  0.24658  0.57830  1.0000 -0.7700252538
O   O146      1.0  0.97888  0.82090  0.52859  1.0000 -0.752160373
O   O147      1.0  0.02888  0.80563  0.52781  1.0000 -0.7700252538
O   O148      1.0  0.80782  0.61472  0.54129  1.0000 -0.752160373
O   O149      1.0  0.23340  0.98640  0.47777  1.0000 -0.7093011283
O   O150      1.0  0.38329  0.17375  0.45581  1.0000 -0.7395274435
O   O151      1.0  0.87253  0.57486  0.53889  1.0000 -0.8304977572
O   O152      1.0  0.93929  0.57335  0.52927  1.0000 -0.752160373
O   O153      1.0  0.17862  0.99656  0.47879  1.0000 -0.7395274435
O   O154      1.0  0.43299  0.47942  0.53781  1.0000 -0.755341927
O   O155      1.0  0.60298  0.68120  0.51482  1.0000 -0.7093011283
O   O156      1.0  0.39891  0.51153  0.53388  1.0000 -0.752160373
O   O157      1.0  0.40448  0.75814  0.46705  1.0000 -0.7803961472
O   O158      1.0  0.26138  0.57675  0.49014  1.0000 -0.699853119
O   O159      1.0  0.42999  0.71851  0.45411  1.0000 -0.7803961472
O   O160      1.0  0.48955  0.91391  0.44747  1.0000 -0.7903736947
O   O161      1.0  0.71265  0.12929  0.48078  1.0000 -0.822868072
O   O162      1.0  0.66831  0.11439  0.42172  1.0000 -0.7700252538
O   O163      1.0  0.29226  0.45031  0.47139  1.0000 -0.755341927
O   O164      1.0  0.27765  0.50095  0.47216  1.0000 -0.7700252538
O   O165      1.0  0.07332  0.26649  0.45873  1.0000 -0.752160373
O   O166      1.0  0.50846  0.75551  0.52222  1.0000 -0.699853119
O   O167      1.0  0.71785  0.92749  0.54419  1.0000 -0.7395274435
O   O168      1.0  0.03597  0.33360  0.46103  1.0000 -0.8304977572
O   O169      1.0  0.04363  0.40953  0.47045  1.0000 -0.7395274435
O   O170      1.0  0.51775  0.69984  0.52122  1.0000 -0.7395274435
O   O171      1.0  0.64518  0.68299  0.45361  1.0000 -0.755341927
O   O172      1.0  0.83823  0.85310  0.42189  1.0000 -0.7093011283
O   O173      1.0  0.61488  0.64883  0.38739  1.0000 -0.752160373
O   O174      1.0  0.68735  0.65439  0.14634  1.0000 -0.7803961472
O   O175      1.0  0.52136  0.51158  0.18464  1.0000 -0.699853119
O   O176      1.0  0.72593  0.68010  0.21149  1.0000 -0.7803961472
O   O177      1.0  0.79203  0.73945  0.07564  1.0000 -0.7903736947
O   O178      1.0  0.98182  0.96256  0.08332  1.0000 -0.822868072
O   O179      1.0  0.99650  0.91815  0.05391  1.0000 -0.7700252538
O   O180      1.0  0.57081  0.54226  0.34198  1.0000 -0.752160373
O   O181      1.0  0.55562  0.52784  0.27672  1.0000 -0.7700252538
O   O182      1.0  0.36462  0.32341  0.30685  1.0000 -0.752160373
O   O183      1.0  0.73631  0.75855  0.25299  1.0000 -0.699853119
O   O184      1.0  0.92370  0.96788  0.29041  1.0000 -0.7395274435
O   O185      1.0  0.32492  0.28602  0.20226  1.0000 -0.8304977572
O   O186      1.0  0.32342  0.29420  0.13399  1.0000 -0.7395274435
O   O187      1.0  0.74651  0.76775  0.31793  1.0000 -0.7395274435
O   O188      1.0  0.22928  0.19156  0.54637  1.0000 -0.752160373
O   O189      1.0  0.43114  0.41634  0.57811  1.0000 -0.7093011283
O   O190      1.0  0.26135  0.22753  0.61256  1.0000 -0.752160373
O   O191      1.0  0.50798  0.54088  0.85363  1.0000 -0.7803961472
O   O192      1.0  0.32659  0.33646  0.81528  1.0000 -0.699853119
O   O193      1.0  0.46857  0.51445  0.78850  1.0000 -0.7803961472
O   O194      1.0  0.66396  0.71645  0.92429  1.0000 -0.7903736947
O   O195      1.0  0.87941  0.89861  0.91665  1.0000 -0.822868072
O   O196      1.0  0.86426  0.94255  0.94608  1.0000 -0.7700252538
O   O197      1.0  0.20021  0.22883  0.65802  1.0000 -0.752160373
O   O198      1.0  0.25107  0.27889  0.72327  1.0000 -0.7700252538
O   O199      1.0  0.01651  0.05780  0.69316  1.0000 -0.752160373
O   O200      1.0  0.50563  0.48342  0.74699  1.0000 -0.699853119
O   O201      1.0  0.67747  0.63334  0.70954  1.0000 -0.7395274435
O   O202      1.0  0.08349  0.12248  0.79757  1.0000 -0.8304977572
O   O203      1.0  0.15955  0.18914  0.86583  1.0000 -0.7395274435
O   O204      1.0  0.44973  0.42855  0.68203  1.0000 -0.7395274435
O   O205      1.0  0.81691  0.85476  0.54640  1.0000 -0.755341927
O   O206      1.0  0.64685  0.66172  0.57815  1.0000 -0.7093011283
O   O207      1.0  0.85090  0.88482  0.61258  1.0000 -0.752160373
O   O208      1.0  0.84558  0.81259  0.85365  1.0000 -0.7803961472
O   O209      1.0  0.98828  0.97852  0.81533  1.0000 -0.699853119
O   O210      1.0  0.81980  0.77397  0.78849  1.0000 -0.7803961472
O   O211      1.0  0.76054  0.70798  0.92436  1.0000 -0.7903736947
O   O212      1.0  0.53741  0.51814  0.91665  1.0000 -0.822868072
O   O213      1.0  0.58183  0.50348  0.94607  1.0000 -0.7700252538
O   O214      1.0  0.95761  0.92905  0.65802  1.0000 -0.752160373
O   O215      1.0  0.97221  0.94441  0.72329  1.0000 -0.7700252538
O   O216      1.0  0.17651  0.13526  0.69311  1.0000 -0.752160373
O   O217      1.0  0.74133  0.76358  0.74702  1.0000 -0.699853119
O   O218      1.0  0.53206  0.57626  0.70958  1.0000 -0.7395274435
O   O219      1.0  0.21392  0.17503  0.79772  1.0000 -0.8304977572
O   O220      1.0  0.20584  0.17667  0.86599  1.0000 -0.7395274435
O   O221      1.0  0.73225  0.75349  0.68207  1.0000 -0.7395274435
O   O222      1.0  0.30836  0.27064  0.45361  1.0000 -0.752160373
O   O223      1.0  0.08355  0.06878  0.42185  1.0000 -0.7093011283
O   O224      1.0  0.27244  0.23860  0.38742  1.0000 -0.752160373
O   O225      1.0  0.95898  0.99188  0.14632  1.0000 -0.7803961472
O   O226      1.0  0.16342  0.17327  0.18467  1.0000 -0.699853119
O   O227      1.0  0.98547  0.03132  0.21147  1.0000 -0.7803961472
O   O228      1.0  0.78352  0.83601  0.07563  1.0000 -0.7903736947
O   O229      1.0  0.60141  0.62060  0.08334  1.0000 -0.822868072
O   O230      1.0  0.55732  0.63558  0.05392  1.0000 -0.7700252538
O   O231      1.0  0.27101  0.29967  0.34196  1.0000 -0.752160373
O   O232      1.0  0.22110  0.24891  0.27671  1.0000 -0.7700252538
O   O233      1.0  0.44216  0.48347  0.30684  1.0000 -0.752160373
O   O234      1.0  0.01655  0.99431  0.25298  1.0000 -0.7093011283
O   O235      1.0  0.86665  0.82248  0.29043  1.0000 -0.7395274435
O   O236      1.0  0.37743  0.41639  0.20238  1.0000 -0.8304977572
O   O237      1.0  0.31082  0.34036  0.13413  1.0000 -0.7395274435
O   O238      1.0  0.07137  0.05019  0.31793  1.0000 -0.7395274435
O   O239      1.0  0.02073  0.06714  0.46226  1.0000 -0.755341927
O   O240      1.0  0.81877  0.89693  0.48514  1.0000 -0.7093011283
O   O241      1.0  0.98866  0.10130  0.46607  1.0000 -0.752160373
O   O242      1.0  0.74182  0.09552  0.53297  1.0000 -0.7803961472
O   O243      1.0  0.92292  0.23834  0.50975  1.0000 -0.699853119
O   O244      1.0  0.78134  0.06990  0.54582  1.0000 -0.7803961472
O   O245      1.0  0.58622  0.01065  0.55254  1.0000 -0.7903736947
O   O246      1.0  0.37096  0.78755  0.51924  1.0000 -0.822868072
O   O247      1.0  0.38564  0.83171  0.57830  1.0000 -0.7700252538
O   O248      1.0  0.04972  0.20777  0.52855  1.0000 -0.752160373
O   O249      1.0  0.99889  0.22221  0.52780  1.0000 -0.7700252538
O   O250      1.0  0.23347  0.42665  0.54123  1.0000 -0.752160373
O   O251      1.0  0.74442  0.99146  0.47774  1.0000 -0.7093011283
O   O252      1.0  0.57245  0.78204  0.45584  1.0000 -0.7395274435
O   O253      1.0  0.16611  0.46384  0.53888  1.0000 -0.8304977572
O   O254      1.0  0.08990  0.45591  0.52924  1.0000 -0.7395274435
O   O255      1.0  0.80013  0.98222  0.47879  1.0000 -0.7395274435
O   O256      1.0  0.60472  0.55838  0.53778  1.0000 -0.755341927
O   O257      1.0  0.41177  0.33367  0.51485  1.0000 -0.7093011283
O   O258      1.0  0.63491  0.52235  0.53388  1.0000 -0.752160373
O   O259      1.0  0.56266  0.20907  0.46704  1.0000 -0.7803961472
O   O260      1.0  0.72875  0.41348  0.49014  1.0000 -0.699853119
O   O261      1.0  0.52409  0.23564  0.45411  1.0000 -0.7803961472
O   O262      1.0  0.45793  0.03365  0.44747  1.0000 -0.7903736947
O   O263      1.0  0.26811  0.85154  0.48077  1.0000 -0.822868072
O   O264      1.0  0.25348  0.80746  0.42171  1.0000 -0.7700252538
O   O265      1.0  0.67921  0.52123  0.47143  1.0000 -0.752160373
O   O266      1.0  0.69436  0.47113  0.47219  1.0000 -0.7700252538
O   O267      1.0  0.88537  0.69226  0.45874  1.0000 -0.752160373
O   O268      1.0  0.51359  0.26662  0.52221  1.0000 -0.699853119
O   O269      1.0  0.32622  0.11669  0.54415  1.0000 -0.7395274435
O   O270      1.0  0.92515  0.62755  0.46103  1.0000 -0.8304977572
O   O271      1.0  0.92661  0.56077  0.47049  1.0000 -0.752160373
O   O272      1.0  0.50346  0.32144  0.52121  1.0000 -0.7395274435
F   F1        1.0  0.62504  0.13705  0.01202  1.0000 -0.5002013264
F   F2        1.0  0.12506  0.61298  0.98796  1.0000 -0.5002013264
F   F3        1.0  0.88698  0.37492  0.01203  1.0000 -0.5002013264
F   F4        1.0  0.36302  0.87502  0.98797  1.0000 -0.5002013264
F   F5        1.0  0.12496  0.11294  0.48794  1.0000 -0.5002013264
F   F6        1.0  0.62495  0.63707  0.51202  1.0000 -0.5002013264
F   F7        1.0  0.86294  0.87495  0.48799  1.0000 -0.5002013264
F   F8        1.0  0.38699  0.37499  0.51200  1.0000 -0.5002013264
