# DDEC6 charges by PACMAN v1.1 (https://github.com/mtap-research/PACMAN-charge/)
data_2013[Mg][acs]3[ION]1
_chemical_formula_sum              "Mg6 H26 C18 N2 O36"
_cell_length_a       12.5693
_cell_length_b       12.5693
_cell_length_c       8.2216
_cell_angle_alpha    90
_cell_angle_beta     90
_cell_angle_gamma    120

_symmetry_space_group_name_H-M    "P 1"
_symmetry_Int_Tables_number       1

loop_
  _symmetry_equiv_pos_as_xyz
  'x, y, z'

loop_
  _atom_site_type_symbol
  _atom_site_label
  _atom_site_symmetry_multiplicity
  _atom_site_fract_x
  _atom_site_fract_y
  _atom_site_fract_z
  _atom_site_occupancy
  _atom_site_charge
Mg  Mg1       1.0  0.33431  0.33230  0.58747  1.0000 1.2785034631
Mg  Mg2       1.0  0.66770  0.00201  0.58747  1.0000 1.2785034631
Mg  Mg3       1.0  0.99799  0.66569  0.58747  1.0000 1.2785034631
Mg  Mg4       1.0  0.66569  0.66770  0.08747  1.0000 1.2785034631
Mg  Mg5       1.0  0.33230  0.99799  0.08747  1.0000 1.2785034631
Mg  Mg6       1.0  0.00201  0.33431  0.08747  1.0000 1.2785034631
H   H1        1.0  0.28680  0.14650  0.32980  1.0000 0.1175454537
H   H2        1.0  0.85350  0.14030  0.32980  1.0000 0.1175454537
H   H3        1.0  0.85970  0.71320  0.32980  1.0000 0.1175454537
H   H4        1.0  0.71320  0.85350  0.82980  1.0000 0.1175454537
H   H5        1.0  0.14650  0.85970  0.82980  1.0000 0.1175454537
H   H6        1.0  0.14030  0.28680  0.82980  1.0000 0.1175454537
H   H7        1.0  0.51440  0.46810  0.32150  1.0000 0.0961594114
H   H8        1.0  0.53190  0.04630  0.32150  1.0000 0.0961594114
H   H9        1.0  0.95370  0.48560  0.32150  1.0000 0.0961594114
H   H10       1.0  0.48560  0.53190  0.82150  1.0000 0.0961594114
H   H11       1.0  0.46810  0.95370  0.82150  1.0000 0.0961594114
H   H12       1.0  0.04630  0.51440  0.82150  1.0000 0.0961594114
H   H13       1.0  0.17820  0.37860  0.35960  1.0000 0.0905110195
H   H14       1.0  0.62140  0.79960  0.35960  1.0000 0.0905110195
H   H15       1.0  0.20040  0.82180  0.35960  1.0000 0.0905110195
H   H16       1.0  0.82180  0.62140  0.85960  1.0000 0.0905110195
H   H17       1.0  0.37860  0.20040  0.85960  1.0000 0.0905110195
H   H18       1.0  0.79960  0.17820  0.85960  1.0000 0.0905110195
H   H19       1.0  0.98100  0.92440  0.65780  1.0000 0.2699105694
H   H20       1.0  0.07560  0.05660  0.65780  1.0000 0.2699105694
H   H21       1.0  0.94340  0.01900  0.65780  1.0000 0.2699105694
H   H22       1.0  0.00000  0.00000  0.51390  1.0000 0.2443883771
H   H23       1.0  0.01900  0.07560  0.15780  1.0000 0.2699105694
H   H24       1.0  0.92440  0.94340  0.15780  1.0000 0.2699105694
H   H25       1.0  0.05660  0.98100  0.15780  1.0000 0.2699105694
H   H26       1.0  0.00000  0.00000  0.01390  1.0000 0.2443883771
C   C1        1.0  0.37303  0.18661  0.33390  1.0000 0.5161082203
C   C2        1.0  0.81339  0.18642  0.33390  1.0000 0.5161082203
C   C3        1.0  0.81358  0.62697  0.33390  1.0000 0.5161082203
C   C4        1.0  0.62697  0.81339  0.83390  1.0000 0.5161082203
C   C5        1.0  0.18661  0.81358  0.83390  1.0000 0.5161082203
C   C6        1.0  0.18642  0.37303  0.83390  1.0000 0.5161082203
C   C7        1.0  0.47645  0.51604  0.32990  1.0000 0.5110509201
C   C8        1.0  0.48396  0.96041  0.32990  1.0000 0.5110509201
C   C9        1.0  0.03959  0.52355  0.32990  1.0000 0.5110509201
C   C10       1.0  0.52355  0.48396  0.82990  1.0000 0.5110509201
C   C11       1.0  0.51604  0.03959  0.82990  1.0000 0.5110509201
C   C12       1.0  0.96041  0.47645  0.82990  1.0000 0.5110509201
C   C13       1.0  0.14338  0.29332  0.34660  1.0000 0.5110509201
C   C14       1.0  0.70668  0.85006  0.34660  1.0000 0.5110509201
C   C15       1.0  0.14994  0.85662  0.34660  1.0000 0.5110509201
C   C16       1.0  0.85662  0.70668  0.84660  1.0000 0.5110509201
C   C17       1.0  0.29332  0.14994  0.84660  1.0000 0.5110509201
C   C18       1.0  0.85006  0.14338  0.84660  1.0000 0.5110509201
N   N1        1.0  0.00000  0.00000  0.62400  1.0000 -0.6867383664
N   N2        1.0  0.00000  0.00000  0.12400  1.0000 -0.6867383664
O   O1        1.0  0.42331  0.26452  0.44207  1.0000 -0.5312367385
O   O2        1.0  0.73548  0.15879  0.44207  1.0000 -0.5312367385
O   O3        1.0  0.84121  0.57669  0.44207  1.0000 -0.5312367385
O   O4        1.0  0.57669  0.73548  0.94207  1.0000 -0.5386502305
O   O5        1.0  0.26452  0.84121  0.94207  1.0000 -0.5386502305
O   O6        1.0  0.15879  0.42331  0.94207  1.0000 -0.5386502305
O   O7        1.0  0.42420  0.15567  0.22998  1.0000 -0.5505724396
O   O8        1.0  0.84433  0.26853  0.22998  1.0000 -0.5505724396
O   O9        1.0  0.73147  0.57580  0.22998  1.0000 -0.5505724396
O   O10       1.0  0.57580  0.84433  0.72998  1.0000 -0.5505724396
O   O11       1.0  0.15567  0.73147  0.72998  1.0000 -0.5505724396
O   O12       1.0  0.26853  0.42420  0.72998  1.0000 -0.5505724396
O   O13       1.0  0.40028  0.48903  0.44095  1.0000 -0.5386502305
O   O14       1.0  0.51097  0.91125  0.44095  1.0000 -0.5386502305
O   O15       1.0  0.08875  0.59972  0.44095  1.0000 -0.5312367385
O   O16       1.0  0.59972  0.51097  0.94095  1.0000 -0.5386502305
O   O17       1.0  0.48903  0.08875  0.94095  1.0000 -0.5386502305
O   O18       1.0  0.91125  0.40028  0.94095  1.0000 -0.5386502305
O   O19       1.0  0.50766  0.59967  0.22888  1.0000 -0.5312367385
O   O20       1.0  0.40033  0.90799  0.22888  1.0000 -0.5312367385
O   O21       1.0  0.09201  0.49234  0.22888  1.0000 -0.5312367385
O   O22       1.0  0.49234  0.40033  0.72888  1.0000 -0.5312367385
O   O23       1.0  0.59967  0.09201  0.72888  1.0000 -0.5312367385
O   O24       1.0  0.90799  0.50766  0.72888  1.0000 -0.5312367385
O   O25       1.0  0.17606  0.24059  0.44463  1.0000 -0.5386502305
O   O26       1.0  0.75941  0.93547  0.44463  1.0000 -0.5386502305
O   O27       1.0  0.06453  0.82394  0.44463  1.0000 -0.5386502305
O   O28       1.0  0.82394  0.75941  0.94463  1.0000 -0.5386502305
O   O29       1.0  0.24059  0.06453  0.94463  1.0000 -0.5386502305
O   O30       1.0  0.93547  0.17606  0.94463  1.0000 -0.5386502305
O   O31       1.0  0.06923  0.24535  0.23241  1.0000 -0.5505724396
O   O32       1.0  0.75465  0.82388  0.23241  1.0000 -0.5505724396
O   O33       1.0  0.17612  0.93077  0.23241  1.0000 -0.5505724396
O   O34       1.0  0.93077  0.75465  0.73241  1.0000 -0.5505724396
O   O35       1.0  0.24535  0.17612  0.73241  1.0000 -0.5505724396
O   O36       1.0  0.82388  0.06923  0.73241  1.0000 -0.5505724396
