# DDEC6 charges by PACMAN v1.1 (https://github.com/mtap-research/PACMAN-charge/)
data_2013[Tb][pcu]3[ION]1
_chemical_formula_sum              "Tb16 H136 C172 N24 Cl4 O112"
_cell_length_a       19.7349
_cell_length_b       19.7349
_cell_length_c       23.9838
_cell_angle_alpha    57.4189
_cell_angle_beta     122.581
_cell_angle_gamma    121.921

_symmetry_space_group_name_H-M    "P 1"
_symmetry_Int_Tables_number       1

loop_
  _symmetry_equiv_pos_as_xyz
  'x, y, z'

loop_
  _atom_site_type_symbol
  _atom_site_label
  _atom_site_symmetry_multiplicity
  _atom_site_fract_x
  _atom_site_fract_y
  _atom_site_fract_z
  _atom_site_occupancy
  _atom_site_charge
Tb  Tb1       1.0  0.55794  0.35060  0.08388  1.0000 2.1008016024
Tb  Tb2       1.0  0.35060  0.55794  0.41612  1.0000 2.1008016024
Tb  Tb3       1.0  0.44206  0.64940  0.91612  1.0000 2.1008016024
Tb  Tb4       1.0  0.64940  0.44206  0.58388  1.0000 2.1008016024
Tb  Tb5       1.0  0.78880  0.37632  0.21613  1.0000 2.0727211391
Tb  Tb6       1.0  0.37632  0.78880  0.28387  1.0000 2.0727211391
Tb  Tb7       1.0  0.21120  0.62368  0.78387  1.0000 2.0727211391
Tb  Tb8       1.0  0.62368  0.21120  0.71613  1.0000 2.0727211391
Tb  Tb9       1.0  0.71532  0.36594  0.03423  1.0000 2.0786344562
Tb  Tb10      1.0  0.36594  0.71532  0.46577  1.0000 2.0786344562
Tb  Tb11      1.0  0.28468  0.63406  0.96577  1.0000 2.0786344562
Tb  Tb12      1.0  0.63406  0.28468  0.53423  1.0000 2.0786344562
Tb  Tb13      1.0  0.64264  0.16752  0.18367  1.0000 2.0786344562
Tb  Tb14      1.0  0.16752  0.64264  0.31633  1.0000 2.0786344562
Tb  Tb15      1.0  0.35736  0.83248  0.81633  1.0000 2.0786344562
Tb  Tb16      1.0  0.83248  0.35736  0.68367  1.0000 2.0786344562
H   H1        1.0  0.69740  0.64640  0.86930  1.0000 0.1359372069
H   H2        1.0  0.64640  0.69740  0.63070  1.0000 0.1359372069
H   H3        1.0  0.30260  0.35360  0.13070  1.0000 0.1359372069
H   H4        1.0  0.35360  0.30260  0.36930  1.0000 0.1359372069
H   H5        1.0  0.65620  0.75460  0.76640  1.0000 0.1199482953
H   H6        1.0  0.75460  0.65620  0.73360  1.0000 0.1199482953
H   H7        1.0  0.34380  0.24540  0.23360  1.0000 0.1199482953
H   H8        1.0  0.24540  0.34380  0.26640  1.0000 0.1199482953
H   H9        1.0  0.51480  0.73220  0.70000  1.0000 0.0904671778
H   H10       1.0  0.73220  0.51480  0.80000  1.0000 0.0904671778
H   H11       1.0  0.48520  0.26780  0.30000  1.0000 0.0904671778
H   H12       1.0  0.26780  0.48520  0.20000  1.0000 0.0904671778
H   H13       1.0  0.38780  0.28160  0.83970  1.0000 0.0904671778
H   H14       1.0  0.28160  0.38780  0.66030  1.0000 0.0904671778
H   H15       1.0  0.61220  0.71840  0.16030  1.0000 0.0904671778
H   H16       1.0  0.71840  0.61220  0.33970  1.0000 0.0904671778
H   H17       1.0  0.25480  0.25860  0.82480  1.0000 0.1300922663
H   H18       1.0  0.25860  0.25480  0.67520  1.0000 0.1300922663
H   H19       1.0  0.74520  0.74140  0.17520  1.0000 0.1300922663
H   H20       1.0  0.74140  0.74520  0.32480  1.0000 0.1300922663
H   H21       1.0  0.22800  0.36540  0.81610  1.0000 0.1300922663
H   H22       1.0  0.36540  0.22800  0.68390  1.0000 0.1300922663
H   H23       1.0  0.77200  0.63460  0.18390  1.0000 0.1300922663
H   H24       1.0  0.63460  0.77200  0.31610  1.0000 0.1300922663
H   H25       1.0  0.31040  0.14320  0.14700  1.0000 0.1300922663
H   H26       1.0  0.14320  0.31040  0.35300  1.0000 0.1300922663
H   H27       1.0  0.68960  0.85680  0.85300  1.0000 0.1300922663
H   H28       1.0  0.85680  0.68960  0.64700  1.0000 0.1300922663
H   H29       1.0  0.21580  0.05020  0.20550  1.0000 0.1300922663
H   H30       1.0  0.05020  0.21580  0.29450  1.0000 0.1300922663
H   H31       1.0  0.78420  0.94980  0.79450  1.0000 0.1300922663
H   H32       1.0  0.94980  0.78420  0.70550  1.0000 0.1300922663
H   H33       1.0  0.26200  0.96740  0.31970  1.0000 0.1011462086
H   H34       1.0  0.96740  0.26200  0.18030  1.0000 0.1011462086
H   H35       1.0  0.73800  0.03260  0.68030  1.0000 0.1011462086
H   H36       1.0  0.03260  0.73800  0.81970  1.0000 0.1011462086
H   H37       1.0  0.70420  0.20320  0.38380  1.0000 0.1069479962
H   H38       1.0  0.20320  0.70420  0.11620  1.0000 0.1069479962
H   H39       1.0  0.29580  0.79680  0.61620  1.0000 0.1069479962
H   H40       1.0  0.79680  0.29580  0.88380  1.0000 0.1069479962
H   H41       1.0  0.74940  0.08800  0.46510  1.0000 0.1199482953
H   H42       1.0  0.08800  0.74940  0.03490  1.0000 0.1199482953
H   H43       1.0  0.25060  0.91200  0.53490  1.0000 0.1199482953
H   H44       1.0  0.91200  0.25060  0.96510  1.0000 0.1199482953
H   H45       1.0  0.65060  0.95280  0.46840  1.0000 0.1300922663
H   H46       1.0  0.95280  0.65060  0.03160  1.0000 0.1300922663
H   H47       1.0  0.34940  0.04720  0.53160  1.0000 0.1300922663
H   H48       1.0  0.04720  0.34940  0.96840  1.0000 0.1300922663
H   H49       1.0  0.87550  0.56830  0.30140  1.0000 0.1359372069
H   H50       1.0  0.56830  0.87550  0.19860  1.0000 0.1359372069
H   H51       1.0  0.12450  0.43170  0.69860  1.0000 0.1359372069
H   H52       1.0  0.43170  0.12450  0.80140  1.0000 0.1359372069
H   H53       1.0  0.88510  0.63690  0.36020  1.0000 0.1199482953
H   H54       1.0  0.63690  0.88510  0.13980  1.0000 0.1199482953
H   H55       1.0  0.11490  0.36310  0.63980  1.0000 0.1199482953
H   H56       1.0  0.36310  0.11490  0.86020  1.0000 0.1199482953
H   H57       1.0  0.89370  0.56570  0.47440  1.0000 0.0904671778
H   H58       1.0  0.56570  0.89370  0.02560  1.0000 0.0904671778
H   H59       1.0  0.10630  0.43430  0.52560  1.0000 0.0904671778
H   H60       1.0  0.43430  0.10630  0.97440  1.0000 0.0904671778
H   H61       1.0  0.98160  0.23200  0.49960  1.0000 0.1069479962
H   H62       1.0  0.23200  0.98160  0.00040  1.0000 0.1069479962
H   H63       1.0  0.01840  0.76800  0.50040  1.0000 0.1069479962
H   H64       1.0  0.76800  0.01840  0.99960  1.0000 0.1069479962
H   H65       1.0  0.95340  0.14000  0.60080  1.0000 0.1300922663
H   H66       1.0  0.14000  0.95340  0.89920  1.0000 0.1300922663
H   H67       1.0  0.04660  0.86000  0.39920  1.0000 0.1300922663
H   H68       1.0  0.86000  0.04660  0.10080  1.0000 0.1300922663
H   H69       1.0  0.89430  0.17010  0.64110  1.0000 0.1300922663
H   H70       1.0  0.17010  0.89430  0.85890  1.0000 0.1300922663
H   H71       1.0  0.10570  0.82990  0.35890  1.0000 0.1300922663
H   H72       1.0  0.82990  0.10570  0.14110  1.0000 0.1300922663
H   H73       1.0  0.99410  0.22890  0.38580  1.0000 0.1199482953
H   H74       1.0  0.22890  0.99410  0.11420  1.0000 0.1199482953
H   H75       1.0  0.00590  0.77110  0.61420  1.0000 0.1199482953
H   H76       1.0  0.77110  0.00590  0.88580  1.0000 0.1199482953
H   H77       1.0  0.07220  0.13980  0.46880  1.0000 0.1199482953
H   H78       1.0  0.13980  0.07220  0.03120  1.0000 0.1199482953
H   H79       1.0  0.92780  0.86020  0.53120  1.0000 0.1199482953
H   H80       1.0  0.86020  0.92780  0.96880  1.0000 0.1199482953
H   H81       1.0  0.85940  0.94160  0.47050  1.0000 0.1199482953
H   H82       1.0  0.94160  0.85940  0.02950  1.0000 0.1199482953
H   H83       1.0  0.14060  0.05840  0.52950  1.0000 0.1199482953
H   H84       1.0  0.05840  0.14060  0.97050  1.0000 0.1199482953
H   H85       1.0  0.78050  0.03190  0.38550  1.0000 0.1199482953
H   H86       1.0  0.03190  0.78050  0.11450  1.0000 0.1199482953
H   H87       1.0  0.21950  0.96810  0.61450  1.0000 0.1199482953
H   H88       1.0  0.96810  0.21950  0.88550  1.0000 0.1199482953
H   H89       1.0  0.50350  0.11190  0.07010  1.0000 0.368587885
H   H90       1.0  0.11190  0.50350  0.42990  1.0000 0.368587885
H   H91       1.0  0.49650  0.88810  0.92990  1.0000 0.368587885
H   H92       1.0  0.88810  0.49650  0.57010  1.0000 0.3635723247
H   H93       1.0  0.54720  0.05340  0.10910  1.0000 0.3635723247
H   H94       1.0  0.05340  0.54720  0.39090  1.0000 0.3635723247
H   H95       1.0  0.45280  0.94660  0.89090  1.0000 0.3635723247
H   H96       1.0  0.94660  0.45280  0.60910  1.0000 0.3635723247
H   H97       1.0  0.65800  0.00400  0.28240  1.0000 0.368587885
H   H98       1.0  0.00400  0.65800  0.21760  1.0000 0.368587885
H   H99       1.0  0.34200  0.99600  0.71760  1.0000 0.368587885
H   H100      1.0  0.99600  0.34200  0.78240  1.0000 0.368587885
H   H101      1.0  0.59410  0.00670  0.28980  1.0000 0.3806206737
H   H102      1.0  0.00670  0.59410  0.21020  1.0000 0.3806206737
H   H103      1.0  0.40590  0.99330  0.71020  1.0000 0.3806206737
H   H104      1.0  0.99330  0.40590  0.78980  1.0000 0.3806206737
H   H105      1.0  0.82770  0.40130  0.97560  1.0000 0.3910007705
H   H106      1.0  0.40130  0.82770  0.52440  1.0000 0.3910007705
H   H107      1.0  0.17230  0.59870  0.02440  1.0000 0.3910007705
H   H108      1.0  0.59870  0.17230  0.47560  1.0000 0.3910007705
H   H109      1.0  0.74520  0.37680  0.92620  1.0000 0.3635723247
H   H110      1.0  0.37680  0.74520  0.57380  1.0000 0.3635723247
H   H111      1.0  0.25480  0.62320  0.07380  1.0000 0.3635723247
H   H112      1.0  0.62320  0.25480  0.42620  1.0000 0.3635723247
H   H113      1.0  0.55720  0.36020  0.90350  1.0000 0.368587885
H   H114      1.0  0.36020  0.55720  0.59650  1.0000 0.368587885
H   H115      1.0  0.44280  0.63980  0.09650  1.0000 0.368587885
H   H116      1.0  0.63980  0.44280  0.40350  1.0000 0.368587885
H   H117      1.0  0.59830  0.31490  0.90630  1.0000 0.368587885
H   H118      1.0  0.31490  0.59830  0.59370  1.0000 0.368587885
H   H119      1.0  0.40170  0.68510  0.09370  1.0000 0.368587885
H   H120      1.0  0.68510  0.40170  0.40630  1.0000 0.368587885
H   H121      1.0  0.41180  0.30660  0.95400  1.0000 0.3499508579
H   H122      1.0  0.30660  0.41180  0.54600  1.0000 0.3499508579
H   H123      1.0  0.58820  0.69340  0.04600  1.0000 0.3499508579
H   H124      1.0  0.69340  0.58820  0.45400  1.0000 0.3499508579
H   H125      1.0  0.39560  0.23120  0.01000  1.0000 0.3499508579
H   H126      1.0  0.23120  0.39560  0.49000  1.0000 0.3499508579
H   H127      1.0  0.60440  0.76880  0.99000  1.0000 0.3499508579
H   H128      1.0  0.76880  0.60440  0.51000  1.0000 0.3499508579
H   H129      1.0  0.40050  0.36930  0.03030  1.0000 0.368587885
H   H130      1.0  0.36930  0.40050  0.46970  1.0000 0.368587885
H   H131      1.0  0.59950  0.63070  0.96970  1.0000 0.368587885
H   H132      1.0  0.63070  0.59950  0.53030  1.0000 0.368587885
H   H133      1.0  0.45920  0.43160  0.06080  1.0000 0.368587885
H   H134      1.0  0.43160  0.45920  0.43920  1.0000 0.368587885
H   H135      1.0  0.54080  0.56840  0.93920  1.0000 0.368587885
H   H136      1.0  0.56840  0.54080  0.56080  1.0000 0.368587885
C   C1        1.0  0.60500  0.49200  0.92870  1.0000 0.6306993221
C   C2        1.0  0.49200  0.60500  0.57130  1.0000 0.6306993221
C   C3        1.0  0.39500  0.50800  0.07130  1.0000 0.6306993221
C   C4        1.0  0.50800  0.39500  0.42870  1.0000 0.6306993221
C   C5        1.0  0.57850  0.56010  0.85980  1.0000 -0.1010989663
C   C6        1.0  0.56010  0.57850  0.64020  1.0000 -0.1010989663
C   C7        1.0  0.42150  0.43990  0.14020  1.0000 -0.1010989663
C   C8        1.0  0.43990  0.42150  0.35980  1.0000 -0.1010989663
C   C9        1.0  0.64010  0.63790  0.84090  1.0000 -0.0527489721
C   C10       1.0  0.63790  0.64010  0.65910  1.0000 -0.0527489721
C   C11       1.0  0.35990  0.36210  0.15910  1.0000 -0.0527489721
C   C12       1.0  0.36210  0.35990  0.34090  1.0000 -0.0527489721
C   C13       1.0  0.61590  0.70190  0.78030  1.0000 -0.1447281833
C   C14       1.0  0.70190  0.61590  0.71970  1.0000 -0.1447281833
C   C15       1.0  0.38410  0.29810  0.21970  1.0000 -0.1447281833
C   C16       1.0  0.29810  0.38410  0.28030  1.0000 -0.1447281833
C   C17       1.0  0.53100  0.68720  0.74020  1.0000 0.0904671778
C   C18       1.0  0.68720  0.53100  0.75980  1.0000 0.0904671778
C   C19       1.0  0.46900  0.31280  0.25980  1.0000 0.0904671778
C   C20       1.0  0.31280  0.46900  0.24020  1.0000 0.0904671778
C   C21       1.0  0.49400  0.54900  0.81460  1.0000 0.1683522691
C   C22       1.0  0.54900  0.49400  0.68540  1.0000 0.1683522691
C   C23       1.0  0.50600  0.45100  0.18540  1.0000 0.1683522691
C   C24       1.0  0.45100  0.50600  0.31460  1.0000 0.1683522691
C   C25       1.0  0.42390  0.46410  0.82490  1.0000 0.1683522691
C   C26       1.0  0.46410  0.42390  0.67510  1.0000 0.1683522691
C   C27       1.0  0.57610  0.53590  0.17510  1.0000 0.1683522691
C   C28       1.0  0.53590  0.57610  0.32490  1.0000 0.1683522691
C   C29       1.0  0.37690  0.32590  0.83370  1.0000 0.0387380649
C   C30       1.0  0.32590  0.37690  0.66630  1.0000 0.0387380649
C   C31       1.0  0.62310  0.67410  0.16630  1.0000 0.0387380649
C   C32       1.0  0.67410  0.62310  0.33370  1.0000 0.0387380649
C   C33       1.0  0.29750  0.31090  0.82600  1.0000 -0.16930275
C   C34       1.0  0.31090  0.29750  0.67400  1.0000 -0.16930275
C   C35       1.0  0.70250  0.68910  0.17400  1.0000 -0.16930275
C   C36       1.0  0.68910  0.70250  0.32600  1.0000 -0.16930275
C   C37       1.0  0.28150  0.37470  0.82020  1.0000 -0.0616318921
C   C38       1.0  0.37470  0.28150  0.67980  1.0000 -0.0616318921
C   C39       1.0  0.71850  0.62530  0.17980  1.0000 -0.0616318921
C   C40       1.0  0.62530  0.71850  0.32020  1.0000 -0.0616318921
C   C41       1.0  0.34600  0.45300  0.82040  1.0000 -0.0808370016
C   C42       1.0  0.45300  0.34600  0.67960  1.0000 -0.0808370016
C   C43       1.0  0.65400  0.54700  0.17960  1.0000 -0.0808370016
C   C44       1.0  0.54700  0.65400  0.32040  1.0000 -0.0808370016
C   C45       1.0  0.33333  0.51750  0.82560  1.0000 0.6503775124
C   C46       1.0  0.51750  0.33333  0.67440  1.0000 0.6503775124
C   C47       1.0  0.66667  0.48250  0.17440  1.0000 0.6503775124
C   C48       1.0  0.48250  0.66667  0.32560  1.0000 0.6503775124
C   C49       1.0  0.47000  0.16200  0.18740  1.0000 0.6418686364
C   C50       1.0  0.16200  0.47000  0.31260  1.0000 0.6418686364
C   C51       1.0  0.53000  0.83800  0.81260  1.0000 0.6418686364
C   C52       1.0  0.83800  0.53000  0.68740  1.0000 0.6418686364
C   C53       1.0  0.41140  0.11020  0.22780  1.0000 -0.092453023
C   C54       1.0  0.11020  0.41140  0.27220  1.0000 -0.092453023
C   C55       1.0  0.58860  0.88980  0.77220  1.0000 -0.092453023
C   C56       1.0  0.88980  0.58860  0.72780  1.0000 -0.092453023
C   C57       1.0  0.32840  0.10780  0.19390  1.0000 -0.0616318921
C   C58       1.0  0.10780  0.32840  0.30610  1.0000 -0.0616318921
C   C59       1.0  0.67160  0.89220  0.80610  1.0000 -0.0616318921
C   C60       1.0  0.89220  0.67160  0.69390  1.0000 -0.0616318921
C   C61       1.0  0.27280  0.05380  0.22850  1.0000 -0.1555044051
C   C62       1.0  0.05380  0.27280  0.27150  1.0000 -0.1555044051
C   C63       1.0  0.72720  0.94620  0.77150  1.0000 -0.1517979892
C   C64       1.0  0.94620  0.72720  0.72850  1.0000 -0.1517979892
C   C65       1.0  0.30130  0.00530  0.29680  1.0000 0.0791652943
C   C66       1.0  0.00530  0.30130  0.20320  1.0000 0.0791652943
C   C67       1.0  0.69870  0.99470  0.70320  1.0000 0.0791652943
C   C68       1.0  0.99470  0.69870  0.79680  1.0000 0.0791652943
C   C69       1.0  0.43770  0.06050  0.29850  1.0000 0.157346264
C   C70       1.0  0.06050  0.43770  0.20150  1.0000 0.157346264
C   C71       1.0  0.56230  0.93950  0.70150  1.0000 0.157346264
C   C72       1.0  0.93950  0.56230  0.79850  1.0000 0.157346264
C   C73       1.0  0.52890  0.06590  0.34390  1.0000 0.1483482909
C   C74       1.0  0.06590  0.52890  0.15610  1.0000 0.1483482909
C   C75       1.0  0.47110  0.93410  0.65610  1.0000 0.1483482909
C   C76       1.0  0.93410  0.47110  0.84390  1.0000 0.1483482909
C   C77       1.0  0.66430  0.14890  0.38540  1.0000 0.0904671778
C   C78       1.0  0.14890  0.66430  0.11460  1.0000 0.0904671778
C   C79       1.0  0.33570  0.85110  0.61460  1.0000 0.0904671778
C   C80       1.0  0.85110  0.33570  0.88540  1.0000 0.0904671778
C   C81       1.0  0.69280  0.08020  0.43460  1.0000 -0.1517979892
C   C82       1.0  0.08020  0.69280  0.06540  1.0000 -0.1517979892
C   C83       1.0  0.30720  0.91980  0.56540  1.0000 -0.1517979892
C   C84       1.0  0.91980  0.30720  0.93460  1.0000 -0.1517979892
C   C85       1.0  0.63460  0.00100  0.43630  1.0000 -0.068367695
C   C86       1.0  0.00100  0.63460  0.06370  1.0000 -0.068367695
C   C87       1.0  0.36540  0.99900  0.56370  1.0000 -0.068367695
C   C88       1.0  0.99900  0.36540  0.93630  1.0000 -0.068367695
C   C89       1.0  0.55110  0.99330  0.38960  1.0000 -0.1010989663
C   C90       1.0  0.99330  0.55110  0.11040  1.0000 -0.1010989663
C   C91       1.0  0.44890  0.00670  0.61040  1.0000 -0.1010989663
C   C92       1.0  0.00670  0.44890  0.88960  1.0000 -0.1010989663
C   C93       1.0  0.48790  0.90630  0.38520  1.0000 0.6418686364
C   C94       1.0  0.90630  0.48790  0.11480  1.0000 0.6418686364
C   C95       1.0  0.51210  0.09370  0.61480  1.0000 0.6418686364
C   C96       1.0  0.09370  0.51210  0.88520  1.0000 0.6418686364
C   C97       1.0  0.85920  0.41360  0.33880  1.0000 0.5774323795
C   C98       1.0  0.41360  0.85920  0.16120  1.0000 0.5774323795
C   C99       1.0  0.14080  0.58640  0.66120  1.0000 0.5774323795
C   C100      1.0  0.58640  0.14080  0.83880  1.0000 0.5774323795
C   C101      1.0  0.87920  0.45760  0.38340  1.0000 -0.0616318921
C   C102      1.0  0.45760  0.87920  0.11660  1.0000 -0.0616318921
C   C103      1.0  0.12080  0.54240  0.61660  1.0000 -0.0616318921
C   C104      1.0  0.54240  0.12080  0.88340  1.0000 -0.0616318921
C   C105      1.0  0.87950  0.54030  0.34850  1.0000 -0.068367695
C   C106      1.0  0.54030  0.87950  0.15150  1.0000 -0.068367695
C   C107      1.0  0.12050  0.45970  0.65150  1.0000 -0.068367695
C   C108      1.0  0.45970  0.12050  0.84850  1.0000 -0.068367695
C   C109      1.0  0.88540  0.58120  0.38320  1.0000 -0.1517979892
C   C110      1.0  0.58120  0.88540  0.11680  1.0000 -0.1517979892
C   C111      1.0  0.11460  0.41880  0.61680  1.0000 -0.1517979892
C   C112      1.0  0.41880  0.11460  0.88320  1.0000 -0.1517979892
C   C113      1.0  0.89190  0.53830  0.45160  1.0000 0.0636142571
C   C114      1.0  0.53830  0.89190  0.04840  1.0000 0.0636142571
C   C115      1.0  0.10810  0.46170  0.54840  1.0000 0.0636142571
C   C116      1.0  0.46170  0.10810  0.95160  1.0000 0.0636142571
C   C117      1.0  0.89020  0.41860  0.45570  1.0000 0.1483482909
C   C118      1.0  0.41860  0.89020  0.04430  1.0000 0.1483482909
C   C119      1.0  0.10980  0.58140  0.54430  1.0000 0.1483482909
C   C120      1.0  0.58140  0.10980  0.95570  1.0000 0.1483482909
C   C121      1.0  0.90280  0.33460  0.49930  1.0000 0.1483482909
C   C122      1.0  0.33460  0.90280  0.00070  1.0000 0.1483482909
C   C123      1.0  0.09720  0.66540  0.50070  1.0000 0.1483482909
C   C124      1.0  0.66540  0.09720  0.99930  1.0000 0.1483482909
C   C125      1.0  0.95700  0.24500  0.51500  1.0000 0.0666617756
C   C126      1.0  0.24500  0.95700  0.98500  1.0000 0.0666617756
C   C127      1.0  0.04300  0.75500  0.48500  1.0000 0.0666617756
C   C128      1.0  0.75500  0.04300  0.01500  1.0000 0.0666617756
C   C129      1.0  0.94020  0.19000  0.57530  1.0000 -0.16930275
C   C130      1.0  0.19000  0.94020  0.92470  1.0000 -0.16930275
C   C131      1.0  0.05980  0.81000  0.42470  1.0000 -0.16930275
C   C132      1.0  0.81000  0.05980  0.07530  1.0000 -0.16930275
C   C133      1.0  0.90430  0.20730  0.59890  1.0000 -0.0808370016
C   C134      1.0  0.20730  0.90430  0.90110  1.0000 -0.0808370016
C   C135      1.0  0.09570  0.79270  0.40110  1.0000 -0.0808370016
C   C136      1.0  0.79270  0.09570  0.09890  1.0000 -0.0808370016
C   C137      1.0  0.88280  0.28000  0.56000  1.0000 -0.092453023
C   C138      1.0  0.28000  0.88280  0.94000  1.0000 -0.092453023
C   C139      1.0  0.11720  0.72000  0.44000  1.0000 -0.092453023
C   C140      1.0  0.72000  0.11720  0.06000  1.0000 -0.092453023
C   C141      1.0  0.83390  0.29210  0.58260  1.0000 0.6306993221
C   C142      1.0  0.29210  0.83390  0.91740  1.0000 0.6306993221
C   C143      1.0  0.16610  0.70790  0.41740  1.0000 0.6306993221
C   C144      1.0  0.70790  0.16610  0.08260  1.0000 0.6306993221
C   C145      1.0  0.82690  0.19570  0.31950  1.0000 0.6233081673
C   C146      1.0  0.19570  0.82690  0.18050  1.0000 0.6233081673
C   C147      1.0  0.17310  0.80430  0.68050  1.0000 0.6233081673
C   C148      1.0  0.80430  0.17310  0.81950  1.0000 0.6233081673
C   C149      1.0  0.87930  0.13890  0.37490  1.0000 -0.0258709984
C   C150      1.0  0.13890  0.87930  0.12510  1.0000 -0.0258709984
C   C151      1.0  0.12070  0.86110  0.62510  1.0000 -0.0258709984
C   C152      1.0  0.86110  0.12070  0.87490  1.0000 -0.0258709984
C   C153      1.0  0.96610  0.17030  0.40140  1.0000 -0.1063599992
C   C154      1.0  0.17030  0.96610  0.09860  1.0000 -0.1063599992
C   C155      1.0  0.03390  0.82970  0.59860  1.0000 -0.1063599992
C   C156      1.0  0.82970  0.03390  0.90140  1.0000 -0.1063599992
C   C157      1.0  0.01310  0.11650  0.45070  1.0000 -0.1517979892
C   C158      1.0  0.11650  0.01310  0.04930  1.0000 -0.1517979892
C   C159      1.0  0.98690  0.88350  0.54930  1.0000 -0.1517979892
C   C160      1.0  0.88350  0.98690  0.95070  1.0000 -0.1517979892
C   C161      1.0  0.97520  0.03040  0.47380  1.0000 0.0791652943
C   C162      1.0  0.03040  0.97520  0.02620  1.0000 0.0791652943
C   C163      1.0  0.02480  0.96960  0.52620  1.0000 0.0791652943
C   C164      1.0  0.96960  0.02480  0.97380  1.0000 0.0791652943
C   C165      1.0  0.88740  0.99960  0.45160  1.0000 -0.1340433876
C   C166      1.0  0.99960  0.88740  0.04840  1.0000 -0.1340433876
C   C167      1.0  0.11260  0.00040  0.54840  1.0000 -0.1340433876
C   C168      1.0  0.00040  0.11260  0.95160  1.0000 -0.1340433876
C   C169      1.0  0.83990  0.05410  0.40110  1.0000 -0.092453023
C   C170      1.0  0.05410  0.83990  0.09890  1.0000 -0.092453023
C   C171      1.0  0.16010  0.94590  0.59890  1.0000 -0.092453023
C   C172      1.0  0.94590  0.16010  0.90110  1.0000 -0.092453023
N   N1        1.0  0.47014  0.61226  0.75510  1.0000 -0.271353387
N   N2        1.0  0.61226  0.47014  0.74490  1.0000 -0.271353387
N   N3        1.0  0.52986  0.38774  0.24490  1.0000 -0.271353387
N   N4        1.0  0.38774  0.52986  0.25510  1.0000 -0.271353387
N   N5        1.0  0.44113  0.40107  0.83320  1.0000 -0.271353387
N   N6        1.0  0.40107  0.44113  0.66680  1.0000 -0.271353387
N   N7        1.0  0.55887  0.59893  0.16680  1.0000 -0.271353387
N   N8        1.0  0.59893  0.55887  0.33320  1.0000 -0.2756233896
N   N9        1.0  0.38300  0.00780  0.33430  1.0000 -0.2756233896
N   N10       1.0  0.00780  0.38300  0.16570  1.0000 -0.2756233896
N   N11       1.0  0.61700  0.99220  0.66570  1.0000 -0.2756233896
N   N12       1.0  0.99220  0.61700  0.83430  1.0000 -0.2756233896
N   N13       1.0  0.58530  0.14410  0.34050  1.0000 -0.2505189027
N   N14       1.0  0.14410  0.58530  0.15950  1.0000 -0.2505189027
N   N15       1.0  0.41470  0.85590  0.65950  1.0000 -0.2505189027
N   N16       1.0  0.85590  0.41470  0.84050  1.0000 -0.2505189027
N   N17       1.0  0.93910  0.31730  0.47700  1.0000 -0.260167941
N   N18       1.0  0.31730  0.93910  0.02300  1.0000 -0.260167941
N   N19       1.0  0.06090  0.68270  0.52300  1.0000 -0.260167941
N   N20       1.0  0.68270  0.06090  0.97700  1.0000 -0.260167941
N   N21       1.0  0.89580  0.45980  0.48880  1.0000 -0.260167941
N   N22       1.0  0.45980  0.89580  0.01120  1.0000 -0.260167941
N   N23       1.0  0.10420  0.54020  0.51120  1.0000 -0.260167941
N   N24       1.0  0.54020  0.10420  0.98880  1.0000 -0.260167941
Cl  Cl1       1.0  0.68519  0.79335  0.46774  1.0000 1.1964872633
Cl  Cl2       1.0  0.79335  0.68519  0.03226  1.0000 1.1964872633
Cl  Cl3       1.0  0.31481  0.20665  0.53226  1.0000 1.1964872633
Cl  Cl4       1.0  0.20665  0.31481  0.96774  1.0000 1.1964872633
O   O1        1.0  0.67402  0.48478  0.94620  1.0000 -0.5988914217
O   O2        1.0  0.48478  0.67402  0.55380  1.0000 -0.5988914217
O   O3        1.0  0.32598  0.51522  0.05380  1.0000 -0.5988914217
O   O4        1.0  0.51522  0.32598  0.44620  1.0000 -0.5988914217
O   O5        1.0  0.55812  0.44828  0.96549  1.0000 -0.6084654625
O   O6        1.0  0.44828  0.55812  0.53451  1.0000 -0.6084654625
O   O7        1.0  0.44188  0.55172  0.03451  1.0000 -0.6084654625
O   O8        1.0  0.55172  0.44188  0.46549  1.0000 -0.6084654625
O   O9        1.0  0.39929  0.56091  0.86220  1.0000 -0.6084654625
O   O10       1.0  0.56091  0.39929  0.63780  1.0000 -0.6084654625
O   O11       1.0  0.60071  0.43909  0.13780  1.0000 -0.6084654625
O   O12       1.0  0.43909  0.60071  0.36220  1.0000 -0.6084654625
O   O13       1.0  0.26123  0.52417  0.79610  1.0000 -0.5733511294
O   O14       1.0  0.52417  0.26123  0.70390  1.0000 -0.5733511294
O   O15       1.0  0.73877  0.47583  0.20390  1.0000 -0.5733511294
O   O16       1.0  0.47583  0.73877  0.29610  1.0000 -0.5733511294
O   O17       1.0  0.46793  0.23527  0.14460  1.0000 -0.6084654625
O   O18       1.0  0.23527  0.46793  0.35540  1.0000 -0.6084654625
O   O19       1.0  0.53207  0.76473  0.85540  1.0000 -0.6084654625
O   O20       1.0  0.76473  0.53207  0.64460  1.0000 -0.6084654625
O   O21       1.0  0.51684  0.12776  0.19830  1.0000 -0.579516321
O   O22       1.0  0.12776  0.51684  0.30170  1.0000 -0.579516321
O   O23       1.0  0.48316  0.87224  0.80170  1.0000 -0.579516321
O   O24       1.0  0.87224  0.48316  0.69830  1.0000 -0.579516321
O   O25       1.0  0.46442  0.89698  0.32960  1.0000 -0.579516321
O   O26       1.0  0.89698  0.46442  0.17040  1.0000 -0.579516321
O   O27       1.0  0.53558  0.10302  0.67040  1.0000 -0.579516321
O   O28       1.0  0.10302  0.53558  0.82960  1.0000 -0.579516321
O   O29       1.0  0.46536  0.85224  0.43750  1.0000 -0.593580551
O   O30       1.0  0.85224  0.46536  0.06250  1.0000 -0.593580551
O   O31       1.0  0.53464  0.14776  0.56250  1.0000 -0.593580551
O   O32       1.0  0.14776  0.53464  0.93750  1.0000 -0.593580551
O   O33       1.0  0.90347  0.44773  0.30140  1.0000 -0.579516321
O   O34       1.0  0.44773  0.90347  0.19860  1.0000 -0.579516321
O   O35       1.0  0.09653  0.55227  0.69860  1.0000 -0.579516321
O   O36       1.0  0.55227  0.09653  0.80140  1.0000 -0.579516321
O   O37       1.0  0.79297  0.34963  0.33234  1.0000 -0.579516321
O   O38       1.0  0.34963  0.79297  0.16766  1.0000 -0.579516321
O   O39       1.0  0.20703  0.65037  0.66766  1.0000 -0.579516321
O   O40       1.0  0.65037  0.20703  0.83234  1.0000 -0.579516321
O   O41       1.0  0.75904  0.29136  0.54060  1.0000 -0.6278652097
O   O42       1.0  0.29136  0.75904  0.95940  1.0000 -0.6278652097
O   O43       1.0  0.24096  0.70864  0.45940  1.0000 -0.6278652097
O   O44       1.0  0.70864  0.24096  0.04060  1.0000 -0.6278652097
O   O45       1.0  0.86896  0.29904  0.64200  1.0000 -0.593580551
O   O46       1.0  0.29904  0.86896  0.85800  1.0000 -0.593580551
O   O47       1.0  0.13104  0.70096  0.35800  1.0000 -0.593580551
O   O48       1.0  0.70096  0.13104  0.14200  1.0000 -0.593580551
O   O49       1.0  0.76378  0.29322  0.15784  1.0000 -1.0082735862
O   O50       1.0  0.29322  0.76378  0.34216  1.0000 -0.9995103325
O   O51       1.0  0.23622  0.70678  0.84216  1.0000 -0.9995103325
O   O52       1.0  0.70678  0.23622  0.65784  1.0000 -0.9995103325
O   O53       1.0  0.70354  0.42156  0.09449  1.0000 -0.9891948348
O   O54       1.0  0.42156  0.70354  0.40551  1.0000 -0.9995103325
O   O55       1.0  0.29646  0.57844  0.90551  1.0000 -0.9891948348
O   O56       1.0  0.57844  0.29646  0.59449  1.0000 -0.9891948348
O   O57       1.0  0.65023  0.28213  0.20091  1.0000 -1.0395543819
O   O58       1.0  0.28213  0.65023  0.29909  1.0000 -1.0478796805
O   O59       1.0  0.34977  0.71787  0.79909  1.0000 -1.0395543819
O   O60       1.0  0.71787  0.34977  0.70091  1.0000 -1.0395543819
O   O61       1.0  0.59565  0.26735  0.07142  1.0000 -1.1015500273
O   O62       1.0  0.26735  0.59565  0.42858  1.0000 -1.1015500273
O   O63       1.0  0.40435  0.73265  0.92858  1.0000 -1.1015500273
O   O64       1.0  0.73265  0.40435  0.57142  1.0000 -1.1015500273
O   O65       1.0  0.52727  0.08053  0.11250  1.0000 -0.7206486906
O   O66       1.0  0.08053  0.52727  0.38750  1.0000 -0.7206486906
O   O67       1.0  0.47273  0.91947  0.88750  1.0000 -0.7206486906
O   O68       1.0  0.91947  0.47273  0.61250  1.0000 -0.7206486906
O   O69       1.0  0.61224  0.01636  0.26000  1.0000 -0.7092465903
O   O70       1.0  0.01636  0.61224  0.24000  1.0000 -0.7092465903
O   O71       1.0  0.38776  0.98364  0.74000  1.0000 -0.7092465903
O   O72       1.0  0.98364  0.38776  0.76000  1.0000 -0.7092465903
O   O73       1.0  0.77790  0.40790  0.95270  1.0000 -0.747012685
O   O74       1.0  0.40790  0.77790  0.54730  1.0000 -0.747012685
O   O75       1.0  0.22210  0.59210  0.04730  1.0000 -0.747012685
O   O76       1.0  0.59210  0.22210  0.45270  1.0000 -0.747012685
O   O77       1.0  0.58401  0.32119  0.93280  1.0000 -0.7276936467
O   O78       1.0  0.32119  0.58401  0.56720  1.0000 -0.7276936467
O   O79       1.0  0.41599  0.67881  0.06720  1.0000 -0.7276936467
O   O80       1.0  0.67881  0.41599  0.43280  1.0000 -0.7276936467
O   O81       1.0  0.42913  0.28247  0.99880  1.0000 -0.7092465903
O   O82       1.0  0.28247  0.42913  0.50120  1.0000 -0.7092465903
O   O83       1.0  0.57087  0.71753  0.00120  1.0000 -0.7092465903
O   O84       1.0  0.71753  0.57087  0.49880  1.0000 -0.7092465903
O   O85       1.0  0.44903  0.40897  0.03390  1.0000 -0.747012685
O   O86       1.0  0.40897  0.44903  0.46610  1.0000 -0.747012685
O   O87       1.0  0.55097  0.59103  0.96610  1.0000 -0.747012685
O   O88       1.0  0.59103  0.55097  0.53390  1.0000 -0.7444689716
O   O89       1.0  0.74866  0.15854  0.29160  1.0000 -0.6278652097
O   O90       1.0  0.15854  0.74866  0.20840  1.0000 -0.6278652097
O   O91       1.0  0.25134  0.84146  0.70840  1.0000 -0.6278652097
O   O92       1.0  0.84146  0.25134  0.79160  1.0000 -0.6278652097
O   O93       1.0  0.86186  0.27494  0.30290  1.0000 -0.5536409165
O   O94       1.0  0.27494  0.86186  0.19710  1.0000 -0.5536409165
O   O95       1.0  0.13814  0.72506  0.69710  1.0000 -0.5536409165
O   O96       1.0  0.72506  0.13814  0.80290  1.0000 -0.5536409165
O   O97       1.0  0.60870  0.72430  0.46500  1.0000 -0.3806767012
O   O98       1.0  0.67870  0.86090  0.40320  1.0000 -0.4486994292
O   O99       1.0  0.71930  0.81870  0.51860  1.0000 -0.3514924939
O   O100      1.0  0.74290  0.76250  0.48120  1.0000 -0.4339433606
O   O101      1.0  0.72430  0.60870  0.03500  1.0000 -0.3806767012
O   O102      1.0  0.86090  0.67870  0.09680  1.0000 -0.4486994292
O   O103      1.0  0.81870  0.71930  0.98140  1.0000 -0.3514924939
O   O104      1.0  0.76250  0.74290  0.01880  1.0000 -0.4339433606
O   O105      1.0  0.39130  0.27570  0.53500  1.0000 -0.3806767012
O   O106      1.0  0.32130  0.13910  0.59680  1.0000 -0.4486994292
O   O107      1.0  0.28070  0.18130  0.48140  1.0000 -0.3514924939
O   O108      1.0  0.25710  0.23750  0.51880  1.0000 -0.4339433606
O   O109      1.0  0.27570  0.39130  0.96500  1.0000 -0.3806767012
O   O110      1.0  0.13910  0.32130  0.90320  1.0000 -0.4486994292
O   O111      1.0  0.18130  0.28070  0.01860  1.0000 -0.3514924939
O   O112      1.0  0.23750  0.25710  0.98120  1.0000 -0.4339433606
