# DDEC6 charges by PACMAN v1.1 (https://github.com/mtap-research/PACMAN-charge/)
data_2013[In][scu]3[ION]1
_chemical_formula_sum              "In4 H104 C90 N8 O40"
_cell_length_a       12.262
_cell_length_b       13.572
_cell_length_c       24.934
_cell_angle_alpha    90
_cell_angle_beta     90
_cell_angle_gamma    90

_symmetry_space_group_name_H-M    "P 1"
_symmetry_Int_Tables_number       1

loop_
  _symmetry_equiv_pos_as_xyz
  'x, y, z'

loop_
  _atom_site_type_symbol
  _atom_site_label
  _atom_site_symmetry_multiplicity
  _atom_site_fract_x
  _atom_site_fract_y
  _atom_site_fract_z
  _atom_site_occupancy
  _atom_site_charge
In  In1       1.0  0.50000  0.08757  0.75000  1.0000 1.2387484709
In  In2       1.0  0.50000  0.91243  0.25000  1.0000 1.2387484709
In  In3       1.0  0.99413  0.00000  0.00000  1.0000 1.2387484709
In  In4       1.0  0.00587  0.00000  0.50000  1.0000 1.2387484709
H   H1        1.0  0.74790  0.96100  0.86610  1.0000 0.1328174757
H   H2        1.0  0.25210  0.03900  0.36610  1.0000 0.1328174757
H   H3        1.0  0.25210  0.96100  0.63390  1.0000 0.1328174757
H   H4        1.0  0.74790  0.03900  0.13390  1.0000 0.1328174757
H   H5        1.0  0.95030  0.73380  0.86510  1.0000 0.1100981286
H   H6        1.0  0.04970  0.26620  0.36510  1.0000 0.1100981286
H   H7        1.0  0.04970  0.73380  0.63490  1.0000 0.1100981286
H   H8        1.0  0.95030  0.26620  0.13490  1.0000 0.1100981286
H   H9        1.0  0.73420  0.77350  0.74630  1.0000 0.1534270147
H   H10       1.0  0.26580  0.22650  0.24630  1.0000 0.1534270147
H   H11       1.0  0.26580  0.77350  0.75370  1.0000 0.1534270147
H   H12       1.0  0.73420  0.22650  0.25370  1.0000 0.1534270147
H   H13       1.0  0.00350  0.30020  0.61130  1.0000 0.1328174757
H   H14       1.0  0.99650  0.69980  0.11130  1.0000 0.1328174757
H   H15       1.0  0.99650  0.30020  0.88870  1.0000 0.1328174757
H   H16       1.0  0.00350  0.69980  0.38870  1.0000 0.1328174757
H   H17       1.0  0.73140  0.13470  0.60550  1.0000 0.1206642389
H   H18       1.0  0.26860  0.86530  0.10550  1.0000 0.1206642389
H   H19       1.0  0.26860  0.13470  0.89450  1.0000 0.1206642389
H   H20       1.0  0.73140  0.86530  0.39450  1.0000 0.1206642389
H   H21       1.0  0.76490  0.34580  0.72180  1.0000 0.1328174757
H   H22       1.0  0.23510  0.65420  0.22180  1.0000 0.1328174757
H   H23       1.0  0.23510  0.34580  0.77820  1.0000 0.1328174757
H   H24       1.0  0.76490  0.65420  0.27820  1.0000 0.1328174757
H   H25       1.0  0.94060  0.56520  0.82740  1.0000 0.0995808666
H   H26       1.0  0.05940  0.43480  0.32740  1.0000 0.0995808666
H   H27       1.0  0.05940  0.56520  0.67260  1.0000 0.0995808666
H   H28       1.0  0.94060  0.43480  0.17260  1.0000 0.0995808666
H   H29       1.0  0.02560  0.64250  0.80560  1.0000 0.0995808666
H   H30       1.0  0.97440  0.35750  0.30560  1.0000 0.0995808666
H   H31       1.0  0.97440  0.64250  0.69440  1.0000 0.0995808666
H   H32       1.0  0.02560  0.35750  0.19440  1.0000 0.0995808666
H   H33       1.0  0.87950  0.42240  0.75820  1.0000 0.0995808666
H   H34       1.0  0.12050  0.57760  0.25820  1.0000 0.0995808666
H   H35       1.0  0.12050  0.42240  0.74180  1.0000 0.0995808666
H   H36       1.0  0.87950  0.57760  0.24180  1.0000 0.0995808666
H   H37       1.0  0.84660  0.50930  0.71920  1.0000 0.1100981286
H   H38       1.0  0.15340  0.49070  0.21920  1.0000 0.1100981286
H   H39       1.0  0.15340  0.50930  0.78080  1.0000 0.1100981286
H   H40       1.0  0.84660  0.49070  0.28080  1.0000 0.1100981286
H   H41       1.0  0.06970  0.45210  0.03440  1.0000 0.1869275073
H   H42       1.0  0.05370  0.39680  0.08360  1.0000 0.2020665208
H   H43       1.0  0.89310  0.40660  0.04860  1.0000 0.1206642389
H   H44       1.0  0.93170  0.29800  0.03880  1.0000 0.1328174757
H   H45       1.0  0.93910  0.37570  0.99240  1.0000 0.1206642389
H   H46       1.0  0.20650  0.34810  0.04570  1.0000 0.1100981286
H   H47       1.0  0.14110  0.32180  0.99360  1.0000 0.1206642389
H   H48       1.0  0.12240  0.26110  0.04630  1.0000 0.1328174757
H   H49       1.0  0.93030  0.54790  0.53440  1.0000 0.1869275073
H   H50       1.0  0.94630  0.60320  0.58360  1.0000 0.2020665208
H   H51       1.0  0.10690  0.59340  0.54860  1.0000 0.1206642389
H   H52       1.0  0.06830  0.70200  0.53880  1.0000 0.1328174757
H   H53       1.0  0.06090  0.62430  0.49240  1.0000 0.1206642389
H   H54       1.0  0.79350  0.65190  0.54570  1.0000 0.1100981286
H   H55       1.0  0.85890  0.67820  0.49360  1.0000 0.1206642389
H   H56       1.0  0.87760  0.73890  0.54630  1.0000 0.1328174757
H   H57       1.0  0.93030  0.45210  0.46560  1.0000 0.1869275073
H   H58       1.0  0.94630  0.39680  0.41640  1.0000 0.2020665208
H   H59       1.0  0.10690  0.40660  0.45140  1.0000 0.1206642389
H   H60       1.0  0.06830  0.29800  0.46120  1.0000 0.1328174757
H   H61       1.0  0.06090  0.37570  0.50760  1.0000 0.1206642389
H   H62       1.0  0.79350  0.34810  0.45430  1.0000 0.1100981286
H   H63       1.0  0.85890  0.32180  0.50640  1.0000 0.1206642389
H   H64       1.0  0.87760  0.26110  0.45370  1.0000 0.1328174757
H   H65       1.0  0.06970  0.54790  0.96560  1.0000 0.1869275073
H   H66       1.0  0.05370  0.60320  0.91640  1.0000 0.2020665208
H   H67       1.0  0.89310  0.59340  0.95140  1.0000 0.1206642389
H   H68       1.0  0.93170  0.70200  0.96120  1.0000 0.1328174757
H   H69       1.0  0.93910  0.62430  0.00760  1.0000 0.1206642389
H   H70       1.0  0.20650  0.65190  0.95430  1.0000 0.1100981286
H   H71       1.0  0.14110  0.67820  0.00640  1.0000 0.1206642389
H   H72       1.0  0.12240  0.73890  0.95370  1.0000 0.1328174757
H   H73       1.0  0.21360  0.07120  0.09320  1.0000 0.1206642389
H   H74       1.0  0.26110  0.17100  0.11460  1.0000 0.1100981286
H   H75       1.0  0.27740  0.07380  0.14760  1.0000 0.1364911968
H   H76       1.0  0.53170  0.09070  0.07140  1.0000 0.1100981286
H   H77       1.0  0.50120  0.07380  0.13180  1.0000 0.1328174757
H   H78       1.0  0.48620  0.17820  0.10590  1.0000 0.1206642389
H   H79       1.0  0.36350  0.10980  0.05150  1.0000 0.226785774
H   H80       1.0  0.37420  0.01720  0.07890  1.0000 0.24394011
H   H81       1.0  0.78640  0.92880  0.59320  1.0000 0.1206642389
H   H82       1.0  0.73890  0.82900  0.61460  1.0000 0.1100981286
H   H83       1.0  0.72260  0.92620  0.64760  1.0000 0.1364911968
H   H84       1.0  0.46830  0.90930  0.57140  1.0000 0.1100981286
H   H85       1.0  0.49880  0.92620  0.63180  1.0000 0.1328174757
H   H86       1.0  0.51380  0.82180  0.60590  1.0000 0.1206642389
H   H87       1.0  0.63650  0.89020  0.55150  1.0000 0.226785774
H   H88       1.0  0.62580  0.98280  0.57890  1.0000 0.24394011
H   H89       1.0  0.78640  0.07120  0.40680  1.0000 0.1206642389
H   H90       1.0  0.73890  0.17100  0.38540  1.0000 0.1100981286
H   H91       1.0  0.72260  0.07380  0.35240  1.0000 0.1364911968
H   H92       1.0  0.46830  0.09070  0.42860  1.0000 0.1100981286
H   H93       1.0  0.49880  0.07380  0.36820  1.0000 0.1328174757
H   H94       1.0  0.51380  0.17820  0.39410  1.0000 0.1206642389
H   H95       1.0  0.63650  0.10980  0.44850  1.0000 0.226785774
H   H96       1.0  0.62580  0.01720  0.42110  1.0000 0.24394011
H   H97       1.0  0.21360  0.92880  0.90680  1.0000 0.1206642389
H   H98       1.0  0.26110  0.82900  0.88540  1.0000 0.1100981286
H   H99       1.0  0.27740  0.92620  0.85240  1.0000 0.1364911968
H   H100      1.0  0.53170  0.90930  0.92860  1.0000 0.1100981286
H   H101      1.0  0.50120  0.92620  0.86820  1.0000 0.1328174757
H   H102      1.0  0.48620  0.82180  0.89410  1.0000 0.1206642389
H   H103      1.0  0.36350  0.89020  0.94850  1.0000 0.226785774
H   H104      1.0  0.37420  0.98280  0.92110  1.0000 0.24394011
C   C1        1.0  0.77510  0.90510  0.84920  1.0000 -0.1446478715
C   C2        1.0  0.22490  0.09490  0.34920  1.0000 -0.1446478715
C   C3        1.0  0.22490  0.90510  0.65080  1.0000 -0.1446478715
C   C4        1.0  0.77510  0.09490  0.15080  1.0000 -0.1446478715
C   C5        1.0  0.85500  0.85540  0.87170  1.0000 0.0154337945
C   C6        1.0  0.14500  0.14460  0.37170  1.0000 0.0154337945
C   C7        1.0  0.14500  0.85540  0.62830  1.0000 0.0154337945
C   C8        1.0  0.85500  0.14460  0.12830  1.0000 0.0154337945
C   C9        1.0  0.89350  0.76820  0.84890  1.0000 -0.2810914119
C   C10       1.0  0.10650  0.23180  0.34890  1.0000 -0.2810914119
C   C11       1.0  0.10650  0.76820  0.65110  1.0000 -0.2810914119
C   C12       1.0  0.89350  0.23180  0.15110  1.0000 -0.2810914119
C   C13       1.0  0.84790  0.73370  0.80310  1.0000 0.2712063888
C   C14       1.0  0.15210  0.26630  0.30310  1.0000 0.2712063888
C   C15       1.0  0.15210  0.73370  0.69690  1.0000 0.2712063888
C   C16       1.0  0.84790  0.26630  0.19690  1.0000 0.2712063888
C   C17       1.0  0.76490  0.79330  0.77860  1.0000 -0.2162069877
C   C18       1.0  0.23510  0.20670  0.27860  1.0000 -0.2162069877
C   C19       1.0  0.23510  0.79330  0.72140  1.0000 -0.2162069877
C   C20       1.0  0.76490  0.20670  0.22140  1.0000 -0.2162069877
C   C21       1.0  0.73150  0.87600  0.80160  1.0000 0.0339569884
C   C22       1.0  0.26850  0.12400  0.30160  1.0000 0.0339569884
C   C23       1.0  0.26850  0.87600  0.69840  1.0000 0.0339569884
C   C24       1.0  0.73150  0.12400  0.19840  1.0000 0.0339569884
C   C25       1.0  0.64290  0.96110  0.77940  1.0000 0.4917580733
C   C26       1.0  0.35710  0.03890  0.27940  1.0000 0.4917580733
C   C27       1.0  0.35710  0.96110  0.72060  1.0000 0.4917580733
C   C28       1.0  0.64290  0.03890  0.22060  1.0000 0.4917580733
C   C29       1.0  0.91120  0.89370  0.92040  1.0000 0.5044736663
C   C30       1.0  0.08880  0.10630  0.42040  1.0000 0.5044736663
C   C31       1.0  0.08880  0.89370  0.57960  1.0000 0.5044736663
C   C32       1.0  0.91120  0.10630  0.07960  1.0000 0.5044736663
C   C33       1.0  0.89270  0.34410  0.67280  1.0000 0.2830855647
C   C34       1.0  0.10730  0.65590  0.17280  1.0000 0.2830855647
C   C35       1.0  0.10730  0.34410  0.82720  1.0000 0.2830855647
C   C36       1.0  0.89270  0.65590  0.32720  1.0000 0.2830855647
C   C37       1.0  0.93660  0.28340  0.62630  1.0000 -0.2579018673
C   C38       1.0  0.06340  0.71660  0.12630  1.0000 -0.2579018673
C   C39       1.0  0.06340  0.28340  0.87370  1.0000 -0.2579018673
C   C40       1.0  0.93660  0.71660  0.37370  1.0000 -0.2579018673
C   C41       1.0  0.88000  0.20410  0.60570  1.0000 0.0111478629
C   C42       1.0  0.12000  0.79590  0.10570  1.0000 0.0111478629
C   C43       1.0  0.12000  0.20410  0.89430  1.0000 0.0111478629
C   C44       1.0  0.88000  0.79590  0.39430  1.0000 0.0111478629
C   C45       1.0  0.77570  0.17840  0.62420  1.0000 -0.1964433243
C   C46       1.0  0.22430  0.82160  0.12420  1.0000 -0.1964433243
C   C47       1.0  0.22430  0.17840  0.87580  1.0000 -0.1964433243
C   C48       1.0  0.77570  0.82160  0.37580  1.0000 -0.1964433243
C   C49       1.0  0.74260  0.22090  0.67100  1.0000 0.0525287712
C   C50       1.0  0.25740  0.77910  0.17100  1.0000 0.0525287712
C   C51       1.0  0.25740  0.22090  0.82900  1.0000 0.0525287712
C   C52       1.0  0.74260  0.77910  0.32900  1.0000 0.0525287712
C   C53       1.0  0.79720  0.31180  0.69350  1.0000 -0.3190293809
C   C54       1.0  0.20280  0.68820  0.19350  1.0000 -0.3190293809
C   C55       1.0  0.20280  0.31180  0.80650  1.0000 -0.3190293809
C   C56       1.0  0.79720  0.68820  0.30650  1.0000 -0.3190293809
C   C57       1.0  0.92190  0.13400  0.56210  1.0000 0.4790590803
C   C58       1.0  0.07810  0.86600  0.06210  1.0000 0.4790590803
C   C59       1.0  0.07810  0.13400  0.93790  1.0000 0.4790590803
C   C60       1.0  0.92190  0.86600  0.43790  1.0000 0.4790590803
C   C61       1.0  0.64740  0.18100  0.70100  1.0000 0.4917580733
C   C62       1.0  0.35260  0.81900  0.20100  1.0000 0.4917580733
C   C63       1.0  0.35260  0.18100  0.79900  1.0000 0.4917580733
C   C64       1.0  0.64740  0.81900  0.29900  1.0000 0.4917580733
C   C65       1.0  0.96480  0.60050  0.79580  1.0000 -0.1077910935
C   C66       1.0  0.03520  0.39950  0.29580  1.0000 -0.1077910935
C   C67       1.0  0.03520  0.60050  0.70420  1.0000 -0.1077910935
C   C68       1.0  0.96480  0.39950  0.20420  1.0000 -0.1077910935
C   C69       1.0  0.00000  0.52530  0.75000  1.0000 0.0846545199
C   C70       1.0  0.00000  0.47470  0.25000  1.0000 0.0846545199
C   C71       1.0  0.90590  0.46690  0.73070  1.0000 -0.1338067701
C   C72       1.0  0.09410  0.53310  0.23070  1.0000 -0.1338067701
C   C73       1.0  0.09410  0.46690  0.76930  1.0000 -0.1338067701
C   C74       1.0  0.90590  0.53310  0.26930  1.0000 -0.1338067701
C   C75       1.0  0.94540  0.36600  0.03040  1.0000 -0.3354226029
C   C76       1.0  0.13780  0.32500  0.03200  1.0000 -0.3290841182
C   C77       1.0  0.05460  0.63400  0.53040  1.0000 -0.3354226029
C   C78       1.0  0.86220  0.67500  0.53200  1.0000 -0.3290841182
C   C79       1.0  0.05460  0.36600  0.46960  1.0000 -0.3354226029
C   C80       1.0  0.86220  0.32500  0.46800  1.0000 -0.3290841182
C   C81       1.0  0.94540  0.63400  0.96960  1.0000 -0.3354226029
C   C82       1.0  0.13780  0.67500  0.96800  1.0000 -0.3290841182
C   C83       1.0  0.27300  0.10120  0.11220  1.0000 -0.3145789256
C   C84       1.0  0.48210  0.10900  0.09960  1.0000 -0.2895095548
C   C85       1.0  0.72700  0.89880  0.61220  1.0000 -0.3145789256
C   C86       1.0  0.51790  0.89100  0.59960  1.0000 -0.2895095548
C   C87       1.0  0.72700  0.10120  0.38780  1.0000 -0.3145789256
C   C88       1.0  0.51790  0.10900  0.40040  1.0000 -0.2895095548
C   C89       1.0  0.27300  0.89880  0.88780  1.0000 -0.3145789256
C   C90       1.0  0.48210  0.89100  0.90040  1.0000 -0.2895095548
N   N1        1.0  0.05360  0.39210  0.04760  1.0000 -0.1246803229
N   N2        1.0  0.94640  0.60790  0.54760  1.0000 -0.1246803229
N   N3        1.0  0.94640  0.39210  0.45240  1.0000 -0.1246803229
N   N4        1.0  0.05360  0.60790  0.95240  1.0000 -0.1246803229
N   N5        1.0  0.37280  0.08270  0.08410  1.0000 -0.1012573813
N   N6        1.0  0.62720  0.91730  0.58410  1.0000 -0.1012573813
N   N7        1.0  0.62720  0.08270  0.41590  1.0000 -0.1012573813
N   N8        1.0  0.37280  0.91730  0.91590  1.0000 -0.1012573813
O   O1        1.0  0.61160  0.91750  0.73070  1.0000 -0.5799972018
O   O2        1.0  0.38840  0.08250  0.23070  1.0000 -0.5799972018
O   O3        1.0  0.38840  0.91750  0.76930  1.0000 -0.5799972018
O   O4        1.0  0.61160  0.08250  0.26930  1.0000 -0.5799972018
O   O5        1.0  0.60030  0.00650  0.80270  1.0000 -0.3559975525
O   O6        1.0  0.39970  0.99350  0.30270  1.0000 -0.3559975525
O   O7        1.0  0.39970  0.00650  0.69730  1.0000 -0.3559975525
O   O8        1.0  0.60030  0.99350  0.19730  1.0000 -0.3559975525
O   O9        1.0  0.86060  0.95820  0.94960  1.0000 -0.4760064682
O   O10       1.0  0.13940  0.04180  0.44960  1.0000 -0.4717167219
O   O11       1.0  0.13940  0.95820  0.55040  1.0000 -0.4717167219
O   O12       1.0  0.86060  0.04180  0.05040  1.0000 -0.4760064682
O   O13       1.0  0.00260  0.87530  0.93297  1.0000 -0.4717167219
O   O14       1.0  0.99740  0.12470  0.43297  1.0000 -0.4717167219
O   O15       1.0  0.99740  0.87530  0.56703  1.0000 -0.4717167219
O   O16       1.0  0.00260  0.12470  0.06703  1.0000 -0.4717167219
O   O17       1.0  0.02790  0.14910  0.55333  1.0000 -0.5109363099
O   O18       1.0  0.97210  0.85090  0.05333  1.0000 -0.5109363099
O   O19       1.0  0.97210  0.14910  0.94667  1.0000 -0.5109363099
O   O20       1.0  0.02790  0.85090  0.44667  1.0000 -0.5109363099
O   O21       1.0  0.88150  0.07110  0.54690  1.0000 -0.4184602102
O   O22       1.0  0.11850  0.92890  0.04690  1.0000 -0.4184602102
O   O23       1.0  0.11850  0.07110  0.95310  1.0000 -0.4184602102
O   O24       1.0  0.88150  0.92890  0.45310  1.0000 -0.4184602102
O   O25       1.0  0.58230  0.12420  0.67540  1.0000 -0.5109363099
O   O26       1.0  0.41770  0.87580  0.17540  1.0000 -0.5109363099
O   O27       1.0  0.41770  0.12420  0.82460  1.0000 -0.5109363099
O   O28       1.0  0.58230  0.87580  0.32460  1.0000 -0.5109363099
O   O29       1.0  0.62360  0.21230  0.75700  1.0000 -0.6287262937
O   O30       1.0  0.37640  0.78770  0.25700  1.0000 -0.6287262937
O   O31       1.0  0.37640  0.21230  0.74300  1.0000 -0.6287262937
O   O32       1.0  0.62360  0.78770  0.24300  1.0000 -0.6287262937
O   O33       1.0  0.87660  0.65870  0.77370  1.0000 -0.1775149642
O   O34       1.0  0.12340  0.34130  0.27370  1.0000 -0.1775149642
O   O35       1.0  0.12340  0.65870  0.72630  1.0000 -0.1775149642
O   O36       1.0  0.87660  0.34130  0.22630  1.0000 -0.1775149642
O   O37       1.0  0.95070  0.41460  0.68710  1.0000 -0.1556468768
O   O38       1.0  0.04930  0.58540  0.18710  1.0000 -0.1556468768
O   O39       1.0  0.04930  0.41460  0.81290  1.0000 -0.1556468768
O   O40       1.0  0.95070  0.58540  0.31290  1.0000 -0.1556468768
