# DDEC6 charges by PACMAN v1.1 (https://github.com/mtap-research/PACMAN-charge/)
data_2014[Cd][zlg]3[ION]1
_chemical_formula_sum              "Cd12 H208 C192 S12 N32 O72"
_cell_length_a       14.07
_cell_length_b       22.001
_cell_length_c       22.8966
_cell_angle_alpha    90
_cell_angle_beta     116.02
_cell_angle_gamma    90

_symmetry_space_group_name_H-M    "P 1"
_symmetry_Int_Tables_number       1

loop_
  _symmetry_equiv_pos_as_xyz
  'x, y, z'

loop_
  _atom_site_type_symbol
  _atom_site_label
  _atom_site_symmetry_multiplicity
  _atom_site_fract_x
  _atom_site_fract_y
  _atom_site_fract_z
  _atom_site_occupancy
  _atom_site_charge
Cd  Cd1       1.0  0.25283  0.74417  0.73782  1.0000 0.8214542751
Cd  Cd2       1.0  0.74717  0.24417  0.76218  1.0000 0.8214542751
Cd  Cd3       1.0  0.74717  0.25583  0.26218  1.0000 0.8214542751
Cd  Cd4       1.0  0.25283  0.75583  0.23782  1.0000 0.8214542751
Cd  Cd5       1.0  0.44986  0.98882  0.80972  1.0000 0.9277306978
Cd  Cd6       1.0  0.55014  0.48882  0.69028  1.0000 0.9277306978
Cd  Cd7       1.0  0.55014  0.01118  0.19028  1.0000 0.9277306978
Cd  Cd8       1.0  0.44986  0.51118  0.30972  1.0000 0.9277306978
Cd  Cd9       1.0  0.01806  0.50288  0.69745  1.0000 0.9435034577
Cd  Cd10      1.0  0.98194  0.00288  0.80255  1.0000 0.9435034577
Cd  Cd11      1.0  0.98194  0.49712  0.30255  1.0000 0.9435034577
Cd  Cd12      1.0  0.01806  0.99712  0.19745  1.0000 0.9435034577
H   H1        1.0  0.53280  0.99590  0.70650  1.0000 0.3398098756
H   H2        1.0  0.46720  0.49590  0.79350  1.0000 0.3398098756
H   H3        1.0  0.46720  0.00410  0.29350  1.0000 0.3398098756
H   H4        1.0  0.53280  0.50410  0.20650  1.0000 0.3398098756
H   H5        1.0  0.45870  0.95120  0.69520  1.0000 0.3324374739
H   H6        1.0  0.54130  0.45120  0.80480  1.0000 0.3324374739
H   H7        1.0  0.54130  0.04880  0.30480  1.0000 0.3324374739
H   H8        1.0  0.45870  0.54880  0.19520  1.0000 0.3324374739
H   H9        1.0  0.60610  0.09430  0.85510  1.0000 0.3617815483
H   H10       1.0  0.39390  0.59430  0.64490  1.0000 0.3617815483
H   H11       1.0  0.39390  0.90570  0.14490  1.0000 0.3617815483
H   H12       1.0  0.60610  0.40570  0.35510  1.0000 0.3617815483
H   H13       1.0  0.63340  0.03680  0.84480  1.0000 0.3617815483
H   H14       1.0  0.36660  0.53680  0.65520  1.0000 0.3617815483
H   H15       1.0  0.36660  0.96320  0.15520  1.0000 0.3617815483
H   H16       1.0  0.63340  0.46320  0.34480  1.0000 0.3617815483
H   H17       1.0  0.40980  0.03400  0.92050  1.0000 0.3510818366
H   H18       1.0  0.59020  0.53400  0.57950  1.0000 0.3510818366
H   H19       1.0  0.59020  0.96600  0.07950  1.0000 0.3510818366
H   H20       1.0  0.40980  0.46600  0.42050  1.0000 0.3510818366
H   H21       1.0  0.50730  0.00820  0.93730  1.0000 0.3617815483
H   H22       1.0  0.49270  0.50820  0.56270  1.0000 0.3617815483
H   H23       1.0  0.49270  0.99180  0.06270  1.0000 0.3617815483
H   H24       1.0  0.50730  0.49180  0.43730  1.0000 0.3617815483
H   H25       1.0  0.96170  0.44750  0.56740  1.0000 0.3731918518
H   H26       1.0  0.03830  0.94750  0.93260  1.0000 0.3731918518
H   H27       1.0  0.03830  0.55250  0.43260  1.0000 0.3731918518
H   H28       1.0  0.96170  0.05250  0.06740  1.0000 0.3731918518
H   H29       1.0  0.06540  0.43770  0.61030  1.0000 0.3172621798
H   H30       1.0  0.93460  0.93770  0.88970  1.0000 0.3172621798
H   H31       1.0  0.93460  0.56230  0.38970  1.0000 0.3172621798
H   H32       1.0  0.06540  0.06230  0.11030  1.0000 0.3172621798
H   H33       1.0  0.83270  0.41910  0.64730  1.0000 0.3617815483
H   H34       1.0  0.16730  0.91910  0.85270  1.0000 0.3617815483
H   H35       1.0  0.16730  0.58090  0.35270  1.0000 0.3617815483
H   H36       1.0  0.83270  0.08090  0.14730  1.0000 0.3617815483
H   H37       1.0  0.86780  0.43780  0.71060  1.0000 0.3398098756
H   H38       1.0  0.13220  0.93780  0.78940  1.0000 0.3398098756
H   H39       1.0  0.13220  0.56220  0.28940  1.0000 0.3398098756
H   H40       1.0  0.86780  0.06220  0.21060  1.0000 0.3398098756
H   H41       1.0  0.93780  0.52840  0.79730  1.0000 0.3510818366
H   H42       1.0  0.06220  0.02840  0.70270  1.0000 0.3510818366
H   H43       1.0  0.06220  0.47160  0.20270  1.0000 0.3510818366
H   H44       1.0  0.93780  0.97160  0.29730  1.0000 0.3510818366
H   H45       1.0  0.04140  0.54590  0.81930  1.0000 0.3172621798
H   H46       1.0  0.95860  0.04590  0.68070  1.0000 0.3172621798
H   H47       1.0  0.95860  0.45410  0.18070  1.0000 0.3172621798
H   H48       1.0  0.04140  0.95410  0.31930  1.0000 0.3172621798
H   H49       1.0  0.09100  0.82810  0.77420  1.0000 0.0990630804
H   H50       1.0  0.90900  0.32810  0.72580  1.0000 0.0990630804
H   H51       1.0  0.90900  0.17190  0.22580  1.0000 0.0990630804
H   H52       1.0  0.09100  0.67190  0.27420  1.0000 0.0990630804
H   H53       1.0  0.98270  0.82580  0.82510  1.0000 0.1303955161
H   H54       1.0  0.01730  0.32580  0.67490  1.0000 0.1303955161
H   H55       1.0  0.01730  0.17420  0.17490  1.0000 0.1303955161
H   H56       1.0  0.98270  0.67420  0.32510  1.0000 0.1303955161
H   H57       1.0  0.06040  0.65220  0.86850  1.0000 0.1303955161
H   H58       1.0  0.93960  0.15220  0.63150  1.0000 0.1303955161
H   H59       1.0  0.93960  0.34780  0.13150  1.0000 0.1303955161
H   H60       1.0  0.06040  0.84780  0.36850  1.0000 0.1303955161
H   H61       1.0  0.16740  0.65910  0.81770  1.0000 0.1105895208
H   H62       1.0  0.83260  0.15910  0.68230  1.0000 0.1105895208
H   H63       1.0  0.83260  0.34090  0.18230  1.0000 0.1105895208
H   H64       1.0  0.16740  0.84090  0.31770  1.0000 0.1105895208
H   H65       1.0  0.95180  0.69460  0.90980  1.0000 0.0912542099
H   H66       1.0  0.04820  0.19460  0.59020  1.0000 0.0912542099
H   H67       1.0  0.04820  0.30540  0.09020  1.0000 0.0912542099
H   H68       1.0  0.95180  0.80540  0.40980  1.0000 0.0912542099
H   H69       1.0  0.17190  0.84940  0.11960  1.0000 0.1175132875
H   H70       1.0  0.82810  0.34940  0.38040  1.0000 0.1175132875
H   H71       1.0  0.82810  0.15060  0.88040  1.0000 0.1175132875
H   H72       1.0  0.17190  0.65060  0.61960  1.0000 0.1175132875
H   H73       1.0  0.06270  0.86000  0.01060  1.0000 0.138408063
H   H74       1.0  0.93730  0.36000  0.48940  1.0000 0.138408063
H   H75       1.0  0.93730  0.14000  0.98940  1.0000 0.138408063
H   H76       1.0  0.06270  0.64000  0.51060  1.0000 0.138408063
H   H77       1.0  0.93790  0.69890  0.01410  1.0000 0.1303955161
H   H78       1.0  0.06210  0.19890  0.48590  1.0000 0.1303955161
H   H79       1.0  0.06210  0.30110  0.98590  1.0000 0.1303955161
H   H80       1.0  0.93790  0.80110  0.51410  1.0000 0.1303955161
H   H81       1.0  0.05080  0.69150  0.12220  1.0000 0.1105895208
H   H82       1.0  0.94920  0.19150  0.37780  1.0000 0.1105895208
H   H83       1.0  0.94920  0.30850  0.87780  1.0000 0.1105895208
H   H84       1.0  0.05080  0.80850  0.62220  1.0000 0.1105895208
H   H85       1.0  0.92940  0.82380  0.91030  1.0000 0.0912542099
H   H86       1.0  0.07060  0.32380  0.58970  1.0000 0.0912542099
H   H87       1.0  0.07060  0.17620  0.08970  1.0000 0.0912542099
H   H88       1.0  0.92940  0.67620  0.41030  1.0000 0.0912542099
H   H89       1.0  0.67620  0.94790  0.92760  1.0000 0.1105895208
H   H90       1.0  0.32380  0.44790  0.57240  1.0000 0.1105895208
H   H91       1.0  0.32380  0.05210  0.07240  1.0000 0.1105895208
H   H92       1.0  0.67620  0.55210  0.42760  1.0000 0.1105895208
H   H93       1.0  0.80450  0.87520  0.95360  1.0000 0.1303955161
H   H94       1.0  0.19550  0.37520  0.54640  1.0000 0.1303955161
H   H95       1.0  0.19550  0.12480  0.04640  1.0000 0.1303955161
H   H96       1.0  0.80450  0.62480  0.45360  1.0000 0.1303955161
H   H97       1.0  0.60280  0.77680  0.80360  1.0000 0.1303955161
H   H98       1.0  0.39720  0.27680  0.69640  1.0000 0.1303955161
H   H99       1.0  0.39720  0.22320  0.19640  1.0000 0.1303955161
H   H100      1.0  0.60280  0.72320  0.30360  1.0000 0.1303955161
H   H101      1.0  0.48160  0.85330  0.78080  1.0000 0.0990630804
H   H102      1.0  0.51840  0.35330  0.71920  1.0000 0.0990630804
H   H103      1.0  0.51840  0.14670  0.21920  1.0000 0.0990630804
H   H104      1.0  0.48160  0.64670  0.28080  1.0000 0.0990630804
H   H105      1.0  0.79010  0.73660  0.92460  1.0000 0.0990630804
H   H106      1.0  0.20990  0.23660  0.57540  1.0000 0.0990630804
H   H107      1.0  0.20990  0.26340  0.07540  1.0000 0.0990630804
H   H108      1.0  0.79010  0.76340  0.42460  1.0000 0.0990630804
H   H109      1.0  0.57220  0.58490  0.80110  1.0000 0.1105895208
H   H110      1.0  0.42780  0.08490  0.69890  1.0000 0.1105895208
H   H111      1.0  0.42780  0.41510  0.19890  1.0000 0.1105895208
H   H112      1.0  0.57220  0.91510  0.30110  1.0000 0.1105895208
H   H113      1.0  0.65790  0.67150  0.85280  1.0000 0.1303955161
H   H114      1.0  0.34210  0.17150  0.64720  1.0000 0.1303955161
H   H115      1.0  0.34210  0.32850  0.14720  1.0000 0.1303955161
H   H116      1.0  0.65790  0.82850  0.35280  1.0000 0.1303955161
H   H117      1.0  0.83790  0.65820  0.75840  1.0000 0.1303955161
H   H118      1.0  0.16210  0.15820  0.74160  1.0000 0.1303955161
H   H119      1.0  0.16210  0.34180  0.24160  1.0000 0.1303955161
H   H120      1.0  0.83790  0.84180  0.25840  1.0000 0.1303955161
H   H121      1.0  0.75170  0.57060  0.71220  1.0000 0.1105895208
H   H122      1.0  0.24830  0.07060  0.78780  1.0000 0.1105895208
H   H123      1.0  0.24830  0.42940  0.28780  1.0000 0.1105895208
H   H124      1.0  0.75170  0.92940  0.21220  1.0000 0.1105895208
H   H125      1.0  0.79900  0.76470  0.80570  1.0000 0.0990630804
H   H126      1.0  0.20100  0.26470  0.69430  1.0000 0.0990630804
H   H127      1.0  0.20100  0.23530  0.19430  1.0000 0.0990630804
H   H128      1.0  0.79900  0.73530  0.30570  1.0000 0.0990630804
H   H129      1.0  0.31990  0.83290  0.65340  1.0000 0.1105895208
H   H130      1.0  0.68010  0.33290  0.84660  1.0000 0.1105895208
H   H131      1.0  0.68010  0.16710  0.34660  1.0000 0.1105895208
H   H132      1.0  0.31990  0.66710  0.15340  1.0000 0.1105895208
H   H133      1.0  0.43030  0.84850  0.60500  1.0000 0.138408063
H   H134      1.0  0.56970  0.34850  0.89500  1.0000 0.1303955161
H   H135      1.0  0.56970  0.15150  0.39500  1.0000 0.1303955161
H   H136      1.0  0.43030  0.65150  0.10500  1.0000 0.1303955161
H   H137      1.0  0.54220  0.68010  0.65850  1.0000 0.1303955161
H   H138      1.0  0.45780  0.18010  0.84150  1.0000 0.1303955161
H   H139      1.0  0.45780  0.31990  0.34150  1.0000 0.1303955161
H   H140      1.0  0.54220  0.81990  0.15850  1.0000 0.1303955161
H   H141      1.0  0.43400  0.67150  0.70930  1.0000 0.0990630804
H   H142      1.0  0.56600  0.17150  0.79070  1.0000 0.0990630804
H   H143      1.0  0.56600  0.32850  0.29070  1.0000 0.0990630804
H   H144      1.0  0.43400  0.82850  0.20930  1.0000 0.0990630804
H   H145      1.0  0.55500  0.81460  0.57020  1.0000 0.0990630804
H   H146      1.0  0.44500  0.31460  0.92980  1.0000 0.0990630804
H   H147      1.0  0.44500  0.18540  0.42980  1.0000 0.0912542099
H   H148      1.0  0.55500  0.68540  0.07020  1.0000 0.0990630804
H   H149      1.0  0.34220  0.66000  0.35290  1.0000 0.1175132875
H   H150      1.0  0.65780  0.16000  0.14710  1.0000 0.1175132875
H   H151      1.0  0.65780  0.34000  0.64710  1.0000 0.1175132875
H   H152      1.0  0.34220  0.84000  0.85290  1.0000 0.1175132875
H   H153      1.0  0.45070  0.64830  0.46140  1.0000 0.1488817517
H   H154      1.0  0.54930  0.14830  0.03860  1.0000 0.1488817517
H   H155      1.0  0.54930  0.35170  0.53860  1.0000 0.1488817517
H   H156      1.0  0.45070  0.85170  0.96140  1.0000 0.1488817517
H   H157      1.0  0.56100  0.81530  0.46410  1.0000 0.1303955161
H   H158      1.0  0.43900  0.31530  0.03590  1.0000 0.1303955161
H   H159      1.0  0.43900  0.18470  0.53590  1.0000 0.1303955161
H   H160      1.0  0.56100  0.68470  0.96410  1.0000 0.1303955161
H   H161      1.0  0.45010  0.82330  0.35580  1.0000 0.1105895208
H   H162      1.0  0.54990  0.32330  0.14420  1.0000 0.1105895208
H   H163      1.0  0.54990  0.17670  0.64420  1.0000 0.1105895208
H   H164      1.0  0.45010  0.67670  0.85580  1.0000 0.1105895208
H   H165      1.0  0.56840  0.68520  0.56300  1.0000 0.1105895208
H   H166      1.0  0.43160  0.18520  0.93700  1.0000 0.1105895208
H   H167      1.0  0.43160  0.31480  0.43700  1.0000 0.1105895208
H   H168      1.0  0.56840  0.81480  0.06300  1.0000 0.1105895208
H   H169      1.0  0.01690  0.64570  0.69310  1.0000 0.0990630804
H   H170      1.0  0.98310  0.14570  0.80690  1.0000 0.0990630804
H   H171      1.0  0.98310  0.35430  0.30690  1.0000 0.0990630804
H   H172      1.0  0.01690  0.85430  0.19310  1.0000 0.0990630804
H   H173      1.0  0.90810  0.72840  0.65970  1.0000 0.1303955161
H   H174      1.0  0.09190  0.22840  0.84030  1.0000 0.1303955161
H   H175      1.0  0.09190  0.27160  0.34030  1.0000 0.1303955161
H   H176      1.0  0.90810  0.77160  0.15970  1.0000 0.1303955161
H   H177      1.0  0.67670  0.62020  0.54250  1.0000 0.1303955161
H   H178      1.0  0.32330  0.12020  0.95750  1.0000 0.1303955161
H   H179      1.0  0.32330  0.37980  0.45750  1.0000 0.1303955161
H   H180      1.0  0.67670  0.87980  0.04250  1.0000 0.1303955161
H   H181      1.0  0.79060  0.53980  0.57990  1.0000 0.1175132875
H   H182      1.0  0.20940  0.03980  0.92010  1.0000 0.1175132875
H   H183      1.0  0.20940  0.46020  0.42010  1.0000 0.1175132875
H   H184      1.0  0.79060  0.96020  0.07990  1.0000 0.1175132875
H   H185      1.0  0.72060  0.76680  0.55360  1.0000 0.0912542099
H   H186      1.0  0.27940  0.26680  0.94640  1.0000 0.0912542099
H   H187      1.0  0.27940  0.23320  0.44640  1.0000 0.0912542099
H   H188      1.0  0.72060  0.73320  0.05360  1.0000 0.0912542099
H   H189      1.0  0.94810  0.91300  0.68580  1.0000 0.1105895208
H   H190      1.0  0.05190  0.41300  0.81420  1.0000 0.1105895208
H   H191      1.0  0.05190  0.08700  0.31420  1.0000 0.1105895208
H   H192      1.0  0.94810  0.58700  0.18580  1.0000 0.1105895208
H   H193      1.0  0.85240  0.83170  0.62700  1.0000 0.1303955161
H   H194      1.0  0.14760  0.33170  0.87300  1.0000 0.1303955161
H   H195      1.0  0.14760  0.16830  0.37300  1.0000 0.1303955161
H   H196      1.0  0.85240  0.66830  0.12700  1.0000 0.1303955161
H   H197      1.0  0.67110  0.84610  0.72030  1.0000 0.1303955161
H   H198      1.0  0.32890  0.34610  0.77970  1.0000 0.1303955161
H   H199      1.0  0.32890  0.15390  0.27970  1.0000 0.1303955161
H   H200      1.0  0.67110  0.65390  0.22030  1.0000 0.1303955161
H   H201      1.0  0.76860  0.92800  0.77460  1.0000 0.1105895208
H   H202      1.0  0.23140  0.42800  0.72540  1.0000 0.1105895208
H   H203      1.0  0.23140  0.07200  0.22540  1.0000 0.1105895208
H   H204      1.0  0.76860  0.57200  0.27460  1.0000 0.1105895208
H   H205      1.0  0.70380  0.74010  0.67140  1.0000 0.0990630804
H   H206      1.0  0.29620  0.24010  0.82860  1.0000 0.0990630804
H   H207      1.0  0.29620  0.25990  0.32860  1.0000 0.0990630804
H   H208      1.0  0.70380  0.75990  0.17140  1.0000 0.0990630804
C   C1        1.0  0.08430  0.79190  0.79300  1.0000 0.0786164319
C   C2        1.0  0.91570  0.29190  0.70700  1.0000 0.0912542099
C   C3        1.0  0.91570  0.20810  0.20700  1.0000 0.0912542099
C   C4        1.0  0.08430  0.70810  0.29300  1.0000 0.0786164319
C   C5        1.0  0.01920  0.79090  0.82400  1.0000 -0.1897702798
C   C6        1.0  0.98080  0.29090  0.67600  1.0000 -0.1897702798
C   C7        1.0  0.98080  0.20910  0.17600  1.0000 -0.1897702798
C   C8        1.0  0.01920  0.70910  0.32400  1.0000 -0.1897702798
C   C9        1.0  0.00810  0.73840  0.85320  1.0000 0.138408063
C   C10       1.0  0.99190  0.23840  0.64680  1.0000 0.138408063
C   C11       1.0  0.99190  0.26160  0.14680  1.0000 0.138408063
C   C12       1.0  0.00810  0.76160  0.35320  1.0000 0.138408063
C   C13       1.0  0.06500  0.68890  0.84960  1.0000 -0.2092350618
C   C14       1.0  0.93500  0.18890  0.65040  1.0000 -0.2092350618
C   C15       1.0  0.93500  0.31110  0.15040  1.0000 -0.2092350618
C   C16       1.0  0.06500  0.81110  0.34960  1.0000 -0.2092350618
C   C17       1.0  0.12860  0.69310  0.81830  1.0000 0.0713828152
C   C18       1.0  0.87140  0.19310  0.68170  1.0000 0.0713828152
C   C19       1.0  0.87140  0.30690  0.18170  1.0000 0.0713828152
C   C20       1.0  0.12860  0.80690  0.31830  1.0000 0.0713828152
C   C21       1.0  0.93530  0.73240  0.88470  1.0000 -0.083479619
C   C22       1.0  0.06470  0.23240  0.61530  1.0000 -0.083479619
C   C23       1.0  0.06470  0.26760  0.11530  1.0000 -0.083479619
C   C24       1.0  0.93530  0.76760  0.38470  1.0000 -0.083479619
C   C25       1.0  0.12450  0.81840  0.09820  1.0000 0.0990630804
C   C26       1.0  0.87550  0.31840  0.40180  1.0000 0.0990630804
C   C27       1.0  0.87550  0.18160  0.90180  1.0000 0.0990630804
C   C28       1.0  0.12450  0.68160  0.59820  1.0000 0.0990630804
C   C29       1.0  0.05860  0.82500  0.03220  1.0000 -0.1897702798
C   C30       1.0  0.94140  0.32500  0.46780  1.0000 -0.1897702798
C   C31       1.0  0.94140  0.17500  0.96780  1.0000 -0.1897702798
C   C32       1.0  0.05860  0.67500  0.53220  1.0000 -0.1897702798
C   C33       1.0  0.98810  0.78060  0.99900  1.0000 0.138408063
C   C34       1.0  0.01190  0.28060  0.50100  1.0000 0.138408063
C   C35       1.0  0.01190  0.21940  0.00100  1.0000 0.138408063
C   C36       1.0  0.98810  0.71940  0.49900  1.0000 0.138408063
C   C37       1.0  0.98560  0.73020  0.03440  1.0000 -0.2092350618
C   C38       1.0  0.01440  0.23020  0.46560  1.0000 -0.2092350618
C   C39       1.0  0.01440  0.26980  0.96560  1.0000 -0.2092350618
C   C40       1.0  0.98560  0.76980  0.53440  1.0000 -0.2092350618
C   C41       1.0  0.05320  0.72610  0.09950  1.0000 0.062243465
C   C42       1.0  0.94680  0.22610  0.40050  1.0000 0.062243465
C   C43       1.0  0.94680  0.27390  0.90050  1.0000 0.062243465
C   C44       1.0  0.05320  0.77390  0.59950  1.0000 0.062243465
C   C45       1.0  0.92040  0.78410  0.92660  1.0000 -0.1000876515
C   C46       1.0  0.07960  0.28410  0.57340  1.0000 -0.1000876515
C   C47       1.0  0.07960  0.21590  0.07340  1.0000 -0.1000876515
C   C48       1.0  0.92040  0.71590  0.42660  1.0000 -0.1000876515
C   C49       1.0  0.66160  0.91330  0.90180  1.0000 0.0786164319
C   C50       1.0  0.33840  0.41330  0.59820  1.0000 0.0786164319
C   C51       1.0  0.33840  0.08670  0.09820  1.0000 0.0786164319
C   C52       1.0  0.66160  0.58670  0.40180  1.0000 0.0786164319
C   C53       1.0  0.73920  0.86930  0.91820  1.0000 -0.2092350618
C   C54       1.0  0.26080  0.36930  0.58180  1.0000 -0.2092350618
C   C55       1.0  0.26080  0.13070  0.08180  1.0000 -0.2092350618
C   C56       1.0  0.73920  0.63070  0.41820  1.0000 -0.2092350618
C   C57       1.0  0.71990  0.81610  0.88190  1.0000 0.138408063
C   C58       1.0  0.28010  0.31610  0.61810  1.0000 0.138408063
C   C59       1.0  0.28010  0.18390  0.11810  1.0000 0.138408063
C   C60       1.0  0.71990  0.68390  0.38190  1.0000 0.138408063
C   C61       1.0  0.62040  0.81140  0.82960  1.0000 -0.2092350618
C   C62       1.0  0.37960  0.31140  0.67040  1.0000 -0.2092350618
C   C63       1.0  0.37960  0.18860  0.17040  1.0000 -0.2092350618
C   C64       1.0  0.62040  0.68860  0.32960  1.0000 -0.2092350618
C   C65       1.0  0.54760  0.85780  0.81610  1.0000 0.0786164319
C   C66       1.0  0.45240  0.35780  0.68390  1.0000 0.0786164319
C   C67       1.0  0.45240  0.14220  0.18390  1.0000 0.0786164319
C   C68       1.0  0.54760  0.64220  0.31610  1.0000 0.0786164319
C   C69       1.0  0.80090  0.76730  0.89710  1.0000 -0.1000876515
C   C70       1.0  0.19910  0.26730  0.60290  1.0000 -0.1000876515
C   C71       1.0  0.19910  0.23270  0.10290  1.0000 -0.1000876515
C   C72       1.0  0.80090  0.73270  0.39710  1.0000 -0.1000876515
C   C73       1.0  0.62650  0.59990  0.79240  1.0000 0.0786164319
C   C74       1.0  0.37350  0.09990  0.70760  1.0000 0.0786164319
C   C75       1.0  0.37350  0.40010  0.20760  1.0000 0.0786164319
C   C76       1.0  0.62650  0.90010  0.29240  1.0000 0.0786164319
C   C77       1.0  0.67750  0.65240  0.82350  1.0000 -0.2012278118
C   C78       1.0  0.32250  0.15240  0.67650  1.0000 -0.2012278118
C   C79       1.0  0.32250  0.34760  0.17650  1.0000 -0.2012278118
C   C80       1.0  0.67750  0.84760  0.32350  1.0000 -0.2012278118
C   C81       1.0  0.75780  0.67680  0.81120  1.0000 0.138408063
C   C82       1.0  0.24220  0.17680  0.68880  1.0000 0.138408063
C   C83       1.0  0.24220  0.32320  0.18880  1.0000 0.138408063
C   C84       1.0  0.75780  0.82320  0.31120  1.0000 0.138408063
C   C85       1.0  0.78410  0.64430  0.76810  1.0000 -0.2092350618
C   C86       1.0  0.21590  0.14430  0.73190  1.0000 -0.2092350618
C   C87       1.0  0.21590  0.35570  0.23190  1.0000 -0.2092350618
C   C88       1.0  0.78410  0.85570  0.26810  1.0000 -0.2092350618
C   C89       1.0  0.73110  0.59180  0.73990  1.0000 0.0713828152
C   C90       1.0  0.26890  0.09180  0.76010  1.0000 0.0713828152
C   C91       1.0  0.26890  0.40820  0.26010  1.0000 0.0713828152
C   C92       1.0  0.73110  0.90820  0.23990  1.0000 0.0713828152
C   C93       1.0  0.81300  0.73520  0.84060  1.0000 -0.1104404296
C   C94       1.0  0.18700  0.23520  0.65940  1.0000 -0.1104404296
C   C95       1.0  0.18700  0.26480  0.15940  1.0000 -0.1104404296
C   C96       1.0  0.81300  0.76480  0.34060  1.0000 -0.1104404296
C   C97       1.0  0.36690  0.80220  0.65570  1.0000 0.0786164319
C   C98       1.0  0.63310  0.30220  0.84430  1.0000 0.0786164319
C   C99       1.0  0.63310  0.19780  0.34430  1.0000 0.0786164319
C   C100      1.0  0.36690  0.69780  0.15570  1.0000 0.0786164319
C   C101      1.0  0.43180  0.81160  0.62520  1.0000 -0.2012278118
C   C102      1.0  0.56820  0.31160  0.87480  1.0000 -0.2012278118
C   C103      1.0  0.56820  0.18840  0.37480  1.0000 -0.2012278118
C   C104      1.0  0.43180  0.68840  0.12520  1.0000 -0.2012278118
C   C105      1.0  0.49900  0.76570  0.62510  1.0000 0.138408063
C   C106      1.0  0.50100  0.26570  0.87490  1.0000 0.138408063
C   C107      1.0  0.50100  0.23430  0.37490  1.0000 0.138408063
C   C108      1.0  0.49900  0.73430  0.12510  1.0000 0.138408063
C   C109      1.0  0.49860  0.71240  0.65730  1.0000 -0.1897702798
C   C110      1.0  0.50140  0.21240  0.84270  1.0000 -0.1897702798
C   C111      1.0  0.50140  0.28760  0.34270  1.0000 -0.1897702798
C   C112      1.0  0.49860  0.78760  0.15730  1.0000 -0.1897702798
C   C113      1.0  0.43290  0.70760  0.68780  1.0000 0.0713828152
C   C114      1.0  0.56710  0.20760  0.81220  1.0000 0.0713828152
C   C115      1.0  0.56710  0.29240  0.31220  1.0000 0.0713828152
C   C116      1.0  0.43290  0.79240  0.18780  1.0000 0.0713828152
C   C117      1.0  0.57090  0.77560  0.59300  1.0000 -0.083479619
C   C118      1.0  0.42910  0.27560  0.90700  1.0000 -0.083479619
C   C119      1.0  0.42910  0.22440  0.40700  1.0000 -0.083479619
C   C120      1.0  0.57090  0.72440  0.09300  1.0000 -0.083479619
C   C121      1.0  0.38620  0.69200  0.37550  1.0000 0.0990630804
C   C122      1.0  0.61380  0.19200  0.12450  1.0000 0.0990630804
C   C123      1.0  0.61380  0.30800  0.62450  1.0000 0.0990630804
C   C124      1.0  0.38620  0.80800  0.87550  1.0000 0.0990630804
C   C125      1.0  0.45130  0.68490  0.44110  1.0000 -0.177098554
C   C126      1.0  0.54870  0.18490  0.05890  1.0000 -0.177098554
C   C127      1.0  0.54870  0.31510  0.55890  1.0000 -0.177098554
C   C128      1.0  0.45130  0.81510  0.94110  1.0000 -0.177098554
C   C129      1.0  0.51650  0.73080  0.47670  1.0000 0.138408063
C   C130      1.0  0.48350  0.23080  0.02330  1.0000 0.138408063
C   C131      1.0  0.48350  0.26920  0.52330  1.0000 0.138408063
C   C132      1.0  0.51650  0.76920  0.97670  1.0000 0.138408063
C   C133      1.0  0.51620  0.78320  0.44270  1.0000 -0.2092350618
C   C134      1.0  0.48380  0.28320  0.05730  1.0000 -0.2092350618
C   C135      1.0  0.48380  0.21680  0.55730  1.0000 -0.2092350618
C   C136      1.0  0.51620  0.71680  0.94270  1.0000 -0.2092350618
C   C137      1.0  0.44970  0.78760  0.37740  1.0000 0.0713828152
C   C138      1.0  0.55030  0.28760  0.12260  1.0000 0.0713828152
C   C139      1.0  0.55030  0.21240  0.62260  1.0000 0.0713828152
C   C140      1.0  0.44970  0.71240  0.87740  1.0000 0.0713828152
C   C141      1.0  0.58130  0.72500  0.54860  1.0000 -0.0949866589
C   C142      1.0  0.41870  0.22500  0.95140  1.0000 -0.0949866589
C   C143      1.0  0.41870  0.27500  0.45140  1.0000 -0.1000876515
C   C144      1.0  0.58130  0.77500  0.04860  1.0000 -0.1000876515
C   C145      1.0  0.94680  0.64020  0.66300  1.0000 0.0786164319
C   C146      1.0  0.05320  0.14020  0.83700  1.0000 0.0786164319
C   C147      1.0  0.05320  0.35980  0.33700  1.0000 0.0786164319
C   C148      1.0  0.94680  0.85980  0.16300  1.0000 0.0786164319
C   C149      1.0  0.88160  0.69030  0.64300  1.0000 -0.2092350618
C   C150      1.0  0.11840  0.19030  0.85700  1.0000 -0.2092350618
C   C151      1.0  0.11840  0.30970  0.35700  1.0000 -0.2092350618
C   C152      1.0  0.88160  0.80970  0.14300  1.0000 -0.2092350618
C   C153      1.0  0.77670  0.68420  0.59810  1.0000 0.138408063
C   C154      1.0  0.22330  0.18420  0.90190  1.0000 0.138408063
C   C155      1.0  0.22330  0.31580  0.40190  1.0000 0.138408063
C   C156      1.0  0.77670  0.81580  0.09810  1.0000 0.138408063
C   C157      1.0  0.74540  0.62670  0.57420  1.0000 -0.2092350618
C   C158      1.0  0.25460  0.12670  0.92580  1.0000 -0.2092350618
C   C159      1.0  0.25460  0.37330  0.42580  1.0000 -0.2092350618
C   C160      1.0  0.74540  0.87330  0.07420  1.0000 -0.2092350618
C   C161      1.0  0.81470  0.57820  0.59670  1.0000 0.0912542099
C   C162      1.0  0.18530  0.07820  0.90330  1.0000 0.0912542099
C   C163      1.0  0.18530  0.42180  0.40330  1.0000 0.0912542099
C   C164      1.0  0.81470  0.92180  0.09670  1.0000 0.0912542099
C   C165      1.0  0.70300  0.73760  0.57970  1.0000 -0.1000876515
C   C166      1.0  0.29700  0.23760  0.92030  1.0000 -0.1000876515
C   C167      1.0  0.29700  0.26240  0.42030  1.0000 -0.1000876515
C   C168      1.0  0.70300  0.76240  0.07970  1.0000 -0.1000876515
C   C169      1.0  0.89180  0.89900  0.69310  1.0000 0.0786164319
C   C170      1.0  0.10820  0.39900  0.80690  1.0000 0.0786164319
C   C171      1.0  0.10820  0.10100  0.30690  1.0000 0.0713828152
C   C172      1.0  0.89180  0.60100  0.19310  1.0000 0.0713828152
C   C173      1.0  0.83500  0.84960  0.65780  1.0000 -0.2012278118
C   C174      1.0  0.16500  0.34960  0.84220  1.0000 -0.2012278118
C   C175      1.0  0.16500  0.15040  0.34220  1.0000 -0.2012278118
C   C176      1.0  0.83500  0.65040  0.15780  1.0000 -0.2012278118
C   C177      1.0  0.75210  0.82670  0.66850  1.0000 0.138408063
C   C178      1.0  0.24790  0.32670  0.83150  1.0000 0.138408063
C   C179      1.0  0.24790  0.17330  0.33150  1.0000 0.138408063
C   C180      1.0  0.75210  0.67330  0.16850  1.0000 0.138408063
C   C181      1.0  0.72800  0.85840  0.71280  1.0000 -0.1897702798
C   C182      1.0  0.27200  0.35840  0.78720  1.0000 -0.1897702798
C   C183      1.0  0.27200  0.14160  0.28720  1.0000 -0.1897702798
C   C184      1.0  0.72800  0.64160  0.21280  1.0000 -0.1897702798
C   C185      1.0  0.78710  0.90760  0.74550  1.0000 0.0713828152
C   C186      1.0  0.21290  0.40760  0.75450  1.0000 0.0713828152
C   C187      1.0  0.21290  0.09240  0.25450  1.0000 0.0713828152
C   C188      1.0  0.78710  0.59240  0.24550  1.0000 0.0713828152
C   C189      1.0  0.69230  0.77010  0.63730  1.0000 -0.1104404296
C   C190      1.0  0.30770  0.27010  0.86270  1.0000 -0.1104404296
C   C191      1.0  0.30770  0.22990  0.36270  1.0000 -0.1104404296
C   C192      1.0  0.69230  0.72990  0.13730  1.0000 -0.1104404296
S   S1        1.0  0.23198  0.91389  0.71718  1.0000 1.3905213857
S   S2        1.0  0.76802  0.41389  0.78282  1.0000 1.3905213857
S   S3        1.0  0.76802  0.08611  0.28282  1.0000 1.3905213857
S   S4        1.0  0.23198  0.58611  0.21718  1.0000 1.3905213857
S   S5        1.0  0.26462  0.57758  0.75454  1.0000 1.3905213857
S   S6        1.0  0.73538  0.07758  0.74546  1.0000 1.3905213857
S   S7        1.0  0.73538  0.42242  0.24546  1.0000 1.3905213857
S   S8        1.0  0.26462  0.92242  0.25454  1.0000 1.3905213857
S   S9        1.0  0.71730  0.08264  0.01162  1.0000 1.3905213857
S   S10       1.0  0.28270  0.58264  0.48838  1.0000 1.3905213857
S   S11       1.0  0.28270  0.91736  0.98838  1.0000 1.3905213857
S   S12       1.0  0.71730  0.41736  0.51162  1.0000 1.3905213857
N   N1        1.0  0.13770  0.74340  0.78860  1.0000 -0.24089825
N   N2        1.0  0.86230  0.24340  0.71140  1.0000 -0.24089825
N   N3        1.0  0.86230  0.25660  0.21140  1.0000 -0.24089825
N   N4        1.0  0.13770  0.75660  0.28860  1.0000 -0.24089825
N   N5        1.0  0.12270  0.77010  0.13160  1.0000 -0.2319564339
N   N6        1.0  0.87730  0.27010  0.36840  1.0000 -0.2319564339
N   N7        1.0  0.87730  0.22990  0.86840  1.0000 -0.2319564339
N   N8        1.0  0.12270  0.72990  0.63160  1.0000 -0.2319564339
N   N9        1.0  0.56730  0.90870  0.85110  1.0000 -0.2612885762
N   N10       1.0  0.43270  0.40870  0.64890  1.0000 -0.2612885762
N   N11       1.0  0.43270  0.09130  0.14890  1.0000 -0.2612885762
N   N12       1.0  0.56730  0.59130  0.35110  1.0000 -0.2612885762
N   N13       1.0  0.65140  0.56963  0.75040  1.0000 -0.24089825
N   N14       1.0  0.34860  0.06963  0.74960  1.0000 -0.24089825
N   N15       1.0  0.34860  0.43037  0.24960  1.0000 -0.24089825
N   N16       1.0  0.65140  0.93037  0.25040  1.0000 -0.24089825
N   N17       1.0  0.36830  0.75166  0.68800  1.0000 -0.24089825
N   N18       1.0  0.63170  0.25166  0.81200  1.0000 -0.24089825
N   N19       1.0  0.63170  0.24834  0.31200  1.0000 -0.24089825
N   N20       1.0  0.36830  0.74834  0.18800  1.0000 -0.24089825
N   N21       1.0  0.38450  0.74300  0.34370  1.0000 -0.24089825
N   N22       1.0  0.61550  0.24300  0.15630  1.0000 -0.24089825
N   N23       1.0  0.61550  0.25700  0.65630  1.0000 -0.24089825
N   N24       1.0  0.38450  0.75700  0.84370  1.0000 -0.24089825
N   N25       1.0  0.91410  0.58423  0.64130  1.0000 -0.2463240291
N   N26       1.0  0.08590  0.08423  0.85870  1.0000 -0.2463240291
N   N27       1.0  0.08590  0.41577  0.35870  1.0000 -0.2463240291
N   N28       1.0  0.91410  0.91577  0.14130  1.0000 -0.2463240291
N   N29       1.0  0.87020  0.92773  0.73720  1.0000 -0.2612885762
N   N30       1.0  0.12980  0.42773  0.76280  1.0000 -0.2612885762
N   N31       1.0  0.12980  0.07227  0.26280  1.0000 -0.2612885762
N   N32       1.0  0.87020  0.57227  0.23720  1.0000 -0.2612885762
O   O1        1.0  0.22040  0.84829  0.72200  1.0000 -0.6796214244
O   O2        1.0  0.77960  0.34829  0.77800  1.0000 -0.6796214244
O   O3        1.0  0.77960  0.15171  0.27800  1.0000 -0.6796214244
O   O4        1.0  0.22040  0.65171  0.22200  1.0000 -0.6796214244
O   O5        1.0  0.13000  0.94220  0.69140  1.0000 -0.6398466047
O   O6        1.0  0.87000  0.44220  0.80860  1.0000 -0.6398466047
O   O7        1.0  0.87000  0.05780  0.30860  1.0000 -0.6398466047
O   O8        1.0  0.13000  0.55780  0.19140  1.0000 -0.6398466047
O   O9        1.0  0.28650  0.92890  0.67910  1.0000 -0.6796214244
O   O10       1.0  0.71350  0.42890  0.82090  1.0000 -0.6796214244
O   O11       1.0  0.71350  0.07110  0.32090  1.0000 -0.6796214244
O   O12       1.0  0.28650  0.57110  0.17910  1.0000 -0.6796214244
O   O13       1.0  0.29290  0.93920  0.78370  1.0000 -0.6704825576
O   O14       1.0  0.70710  0.43920  0.71630  1.0000 -0.6704825576
O   O15       1.0  0.70710  0.06080  0.21630  1.0000 -0.6704825576
O   O16       1.0  0.29290  0.56080  0.28370  1.0000 -0.6704825576
O   O17       1.0  0.28770  0.64097  0.74730  1.0000 -0.6796214244
O   O18       1.0  0.71230  0.14097  0.75270  1.0000 -0.6796214244
O   O19       1.0  0.71230  0.35903  0.25270  1.0000 -0.6796214244
O   O20       1.0  0.28770  0.85903  0.24730  1.0000 -0.6796214244
O   O21       1.0  0.15320  0.57090  0.73520  1.0000 -0.6796214244
O   O22       1.0  0.84680  0.07090  0.76480  1.0000 -0.6796214244
O   O23       1.0  0.84680  0.42910  0.26480  1.0000 -0.6796214244
O   O24       1.0  0.15320  0.92910  0.23520  1.0000 -0.686870199
O   O25       1.0  0.29450  0.53770  0.71540  1.0000 -0.6287003424
O   O26       1.0  0.70550  0.03770  0.78460  1.0000 -0.6287003424
O   O27       1.0  0.70550  0.46230  0.28460  1.0000 -0.6287003424
O   O28       1.0  0.29450  0.96230  0.21540  1.0000 -0.6287003424
O   O29       1.0  0.32050  0.55940  0.82100  1.0000 -0.6287003424
O   O30       1.0  0.67950  0.05940  0.67900  1.0000 -0.6287003424
O   O31       1.0  0.67950  0.44060  0.17900  1.0000 -0.6287003424
O   O32       1.0  0.32050  0.94060  0.32100  1.0000 -0.6287003424
O   O33       1.0  0.50560  0.97260  0.72470  1.0000 -0.6796214244
O   O34       1.0  0.49440  0.47260  0.77530  1.0000 -0.6796214244
O   O35       1.0  0.49440  0.02740  0.27530  1.0000 -0.6796214244
O   O36       1.0  0.50560  0.52740  0.22470  1.0000 -0.6796214244
O   O37       1.0  0.58280  0.05839  0.84410  1.0000 -0.6981531199
O   O38       1.0  0.41720  0.55839  0.65590  1.0000 -0.6981531199
O   O39       1.0  0.41720  0.94161  0.15590  1.0000 -0.6981531199
O   O40       1.0  0.58280  0.44161  0.34410  1.0000 -0.6981531199
O   O41       1.0  0.44530  0.01200  0.90670  1.0000 -0.6704825576
O   O42       1.0  0.55470  0.51200  0.59330  1.0000 -0.6704825576
O   O43       1.0  0.55470  0.98800  0.09330  1.0000 -0.6704825576
O   O44       1.0  0.44530  0.48800  0.40670  1.0000 -0.6704825576
O   O45       1.0  0.00694  0.45190  0.60674  1.0000 -0.6796214244
O   O46       1.0  0.99306  0.95190  0.89326  1.0000 -0.6796214244
O   O47       1.0  0.99306  0.54810  0.39326  1.0000 -0.6796214244
O   O48       1.0  0.00694  0.04810  0.10674  1.0000 -0.6796214244
O   O49       1.0  0.87260  0.44450  0.67540  1.0000 -0.6981531199
O   O50       1.0  0.12740  0.94450  0.82460  1.0000 -0.6981531199
O   O51       1.0  0.12740  0.55550  0.32460  1.0000 -0.6981531199
O   O52       1.0  0.87260  0.05550  0.17540  1.0000 -0.6981531199
O   O53       1.0  0.98710  0.53400  0.78600  1.0000 -0.6796214244
O   O54       1.0  0.01290  0.03400  0.71400  1.0000 -0.6796214244
O   O55       1.0  0.01290  0.46600  0.21400  1.0000 -0.6796214244
O   O56       1.0  0.98710  0.96600  0.28600  1.0000 -0.6796214244
O   O57       1.0  0.67320  0.12108  0.95330  1.0000 -0.6612706597
O   O58       1.0  0.76370  0.12140  0.06990  1.0000 -0.6544381942
O   O59       1.0  0.63340  0.04480  0.01330  1.0000 -0.6796214244
O   O60       1.0  0.80060  0.04390  0.01030  1.0000 -0.686870199
O   O61       1.0  0.32680  0.62108  0.54670  1.0000 -0.6612706597
O   O62       1.0  0.23630  0.62140  0.43010  1.0000 -0.6544381942
O   O63       1.0  0.36660  0.54480  0.48670  1.0000 -0.6796214244
O   O64       1.0  0.19940  0.54390  0.48970  1.0000 -0.686870199
O   O65       1.0  0.32680  0.87892  0.04670  1.0000 -0.6612706597
O   O66       1.0  0.23630  0.87860  0.93010  1.0000 -0.6544381942
O   O67       1.0  0.36660  0.95520  0.98670  1.0000 -0.6796214244
O   O68       1.0  0.19940  0.95610  0.98970  1.0000 -0.686870199
O   O69       1.0  0.67320  0.37892  0.45330  1.0000 -0.6612706597
O   O70       1.0  0.76370  0.37860  0.56990  1.0000 -0.6544381942
O   O71       1.0  0.63340  0.45520  0.51330  1.0000 -0.6796214244
O   O72       1.0  0.80060  0.45610  0.51030  1.0000 -0.686870199
