# DDEC6 charges by PACMAN v1.1 (https://github.com/mtap-research/PACMAN-charge/)
data_2014[Mn][nan]3[ION]1
_chemical_formula_sum              "Mn5 P2 H18 C12 N6 O28"
_cell_length_a       9.7205
_cell_length_b       9.7468
_cell_length_c       10.8926
_cell_angle_alpha    83.989
_cell_angle_beta     75.467
_cell_angle_gamma    78.545

_symmetry_space_group_name_H-M    "P 1"
_symmetry_Int_Tables_number       1

loop_
  _symmetry_equiv_pos_as_xyz
  'x, y, z'

loop_
  _atom_site_type_symbol
  _atom_site_label
  _atom_site_symmetry_multiplicity
  _atom_site_fract_x
  _atom_site_fract_y
  _atom_site_fract_z
  _atom_site_occupancy
  _atom_site_charge
Mn  Mn1       1.0  0.50000  0.00000  0.00000  1.0000 1.0528258384
Mn  Mn2       1.0  0.36465  0.25534  0.52307  1.0000 1.0329712929
Mn  Mn3       1.0  0.63535  0.74466  0.47693  1.0000 1.0329712929
Mn  Mn4       1.0  0.24086  0.55013  0.28165  1.0000 1.0166411699
Mn  Mn5       1.0  0.75914  0.44987  0.71835  1.0000 1.0166411699
P   P1        1.0  0.47556  0.97749  0.69689  1.0000 1.190357119
P   P2        1.0  0.52444  0.02251  0.30311  1.0000 1.190357119
H   H1        1.0  0.59300  0.04210  0.66860  1.0000 -0.1206501311
H   H2        1.0  0.40700  0.95790  0.33140  1.0000 -0.1206501311
H   H3        1.0  0.35230  0.28090  0.24360  1.0000 0.3647459448
H   H4        1.0  0.64770  0.71910  0.75640  1.0000 0.3647459448
H   H5        1.0  0.34040  0.32880  0.12530  1.0000 0.373417169
H   H6        1.0  0.65960  0.67120  0.87470  1.0000 0.373417169
H   H7        1.0  0.00350  0.07500  0.75770  1.0000 0.3313596122
H   H8        1.0  0.15940  0.04740  0.69150  1.0000 0.3364487112
H   H9        1.0  0.15180  0.77010  0.54700  1.0000 0.3364487112
H   H10       1.0  0.24920  0.86320  0.56410  1.0000 0.3364487112
H   H11       1.0  0.85370  0.93510  0.72920  1.0000 0.3313596122
H   H12       1.0  0.91150  0.81610  0.64430  1.0000 0.3313596122
H   H13       1.0  0.99650  0.92500  0.24230  1.0000 0.3313596122
H   H14       1.0  0.84060  0.95260  0.30850  1.0000 0.3313596122
H   H15       1.0  0.84820  0.22990  0.45300  1.0000 0.3364487112
H   H16       1.0  0.75080  0.13680  0.43590  1.0000 0.3364487112
H   H17       1.0  0.14630  0.06490  0.27080  1.0000 0.3313596122
H   H18       1.0  0.08850  0.18390  0.35570  1.0000 0.3313596122
C   C1        1.0  0.69980  0.17310  0.84320  1.0000 0.4737559782
C   C2        1.0  0.30020  0.82690  0.15680  1.0000 0.4737559782
C   C3        1.0  0.56080  0.27920  0.89370  1.0000 0.4900984914
C   C4        1.0  0.43920  0.72080  0.10630  1.0000 0.4900984914
C   C5        1.0  0.92350  0.61070  0.32190  1.0000 0.4900984914
C   C6        1.0  0.07650  0.38930  0.67810  1.0000 0.4900984914
C   C7        1.0  0.95280  0.65110  0.44520  1.0000 0.4737559782
C   C8        1.0  0.04720  0.34890  0.55480  1.0000 0.4737559782
C   C9        1.0  0.45360  0.54110  0.45470  1.0000 0.4900984914
C   C10       1.0  0.54640  0.45890  0.54530  1.0000 0.4900984914
C   C11       1.0  0.05410  0.91880  0.65460  1.0000 0.6619236768
C   C12       1.0  0.94590  0.08120  0.34540  1.0000 0.6619236768
N   N1        1.0  0.07470  0.02610  0.70740  1.0000 -0.5974158793
N   N2        1.0  0.16460  0.84170  0.57980  1.0000 -0.6133566199
N   N3        1.0  0.92500  0.88630  0.67880  1.0000 -0.5974158793
N   N4        1.0  0.92530  0.97390  0.29260  1.0000 -0.5974158793
N   N5        1.0  0.83540  0.15830  0.42020  1.0000 -0.6133566199
N   N6        1.0  0.07500  0.11370  0.32120  1.0000 -0.5974158793
O   O1        1.0  0.41740  0.97630  0.83980  1.0000 -0.7287414073
O   O2        1.0  0.58260  0.02370  0.16020  1.0000 -0.7287414073
O   O3        1.0  0.36790  0.06080  0.62540  1.0000 -0.7287414073
O   O4        1.0  0.63210  0.93920  0.37460  1.0000 -0.7287414073
O   O5        1.0  0.52760  0.82830  0.65390  1.0000 -0.7287414073
O   O6        1.0  0.47240  0.17170  0.34610  1.0000 -0.7287414073
O   O7        1.0  0.70210  0.04610  0.87820  1.0000 -0.4879885613
O   O8        1.0  0.29790  0.95390  0.12180  1.0000 -0.4879885613
O   O9        1.0  0.80040  0.22210  0.76970  1.0000 -0.4972071199
O   O10       1.0  0.19960  0.77790  0.23030  1.0000 -0.4972071199
O   O11       1.0  0.45710  0.23230  0.96790  1.0000 -0.4790791682
O   O12       1.0  0.54290  0.76770  0.03210  1.0000 -0.4790791682
O   O13       1.0  0.56540  0.40390  0.85800  1.0000 -0.4570157377
O   O14       1.0  0.43460  0.59610  0.14200  1.0000 -0.4570157377
O   O15       1.0  0.02990  0.55400  0.24170  1.0000 -0.4724671243
O   O16       1.0  0.97010  0.44600  0.75830  1.0000 -0.4724671243
O   O17       1.0  0.79540  0.63860  0.31110  1.0000 -0.4790791682
O   O18       1.0  0.20460  0.36140  0.68890  1.0000 -0.4790791682
O   O19       1.0  0.08020  0.62590  0.45530  1.0000 -0.4790791682
O   O20       1.0  0.91980  0.37410  0.54470  1.0000 -0.4790791682
O   O21       1.0  0.84550  0.70890  0.52470  1.0000 -0.4972071199
O   O22       1.0  0.15450  0.29110  0.47530  1.0000 -0.4972071199
O   O23       1.0  0.37550  0.47240  0.41860  1.0000 -0.5088056325
O   O24       1.0  0.62450  0.52760  0.58140  1.0000 -0.5088056325
O   O25       1.0  0.46430  0.66510  0.42370  1.0000 -0.4790791682
O   O26       1.0  0.53570  0.33490  0.57630  1.0000 -0.4790791682
O   O27       1.0  0.30560  0.34480  0.20290  1.0000 -0.6330864428
O   O28       1.0  0.69440  0.65520  0.79710  1.0000 -0.6330864428
