# DDEC6 charges by PACMAN v1.1 (https://github.com/mtap-research/PACMAN-charge/)
data_2014[Zn][nan]3[ION]1
_chemical_formula_sum              "Zn8 H96 C188 N16 O72"
_cell_length_a       20.7551
_cell_length_b       20.7551
_cell_length_c       23.6
_cell_angle_alpha    79.5119
_cell_angle_beta     100.488
_cell_angle_gamma    136.806

_symmetry_space_group_name_H-M    "P 1"
_symmetry_Int_Tables_number       1

loop_
  _symmetry_equiv_pos_as_xyz
  'x, y, z'

loop_
  _atom_site_type_symbol
  _atom_site_label
  _atom_site_symmetry_multiplicity
  _atom_site_fract_x
  _atom_site_fract_y
  _atom_site_fract_z
  _atom_site_occupancy
  _atom_site_charge
Zn  Zn1       1.0  0.86495  0.37701  0.62826  1.0000 0.9292892259
Zn  Zn2       1.0  0.37701  0.86495  0.87174  1.0000 0.9292892259
Zn  Zn3       1.0  0.13505  0.62299  0.37174  1.0000 0.9292892259
Zn  Zn4       1.0  0.62299  0.13505  0.12826  1.0000 0.9292892259
Zn  Zn5       1.0  0.81702  0.19066  0.69532  1.0000 0.9292892259
Zn  Zn6       1.0  0.19066  0.81702  0.80468  1.0000 0.9292892259
Zn  Zn7       1.0  0.18298  0.80934  0.30468  1.0000 0.9292892259
Zn  Zn8       1.0  0.80934  0.18298  0.19532  1.0000 0.9292892259
H   H1        1.0  0.06460  0.55720  0.76400  1.0000 0.1394622397
H   H2        1.0  0.55720  0.06460  0.73600  1.0000 0.1394622397
H   H3        1.0  0.93540  0.44280  0.23600  1.0000 0.1394622397
H   H4        1.0  0.44280  0.93540  0.26400  1.0000 0.1394622397
H   H5        1.0  0.21290  0.57150  0.90480  1.0000 0.1394622397
H   H6        1.0  0.57150  0.21290  0.59520  1.0000 0.1394622397
H   H7        1.0  0.78710  0.42850  0.09520  1.0000 0.1394622397
H   H8        1.0  0.42850  0.78710  0.40480  1.0000 0.1394622397
H   H9        1.0  0.01180  0.33140  0.82830  1.0000 0.158033919
H   H10       1.0  0.33140  0.01180  0.67170  1.0000 0.158033919
H   H11       1.0  0.98820  0.66860  0.17170  1.0000 0.158033919
H   H12       1.0  0.66860  0.98820  0.32830  1.0000 0.158033919
H   H13       1.0  0.97560  0.23500  0.04990  1.0000 0.1300161181
H   H14       1.0  0.23500  0.97560  0.45010  1.0000 0.1300161181
H   H15       1.0  0.02440  0.76500  0.95010  1.0000 0.1300161181
H   H16       1.0  0.76500  0.02440  0.54990  1.0000 0.1300161181
H   H17       1.0  0.99580  0.15400  0.12030  1.0000 0.1300161181
H   H18       1.0  0.15400  0.99580  0.37970  1.0000 0.1300161181
H   H19       1.0  0.00420  0.84600  0.87970  1.0000 0.1300161181
H   H20       1.0  0.84600  0.00420  0.62030  1.0000 0.1300161181
H   H21       1.0  0.34900  0.32820  0.99220  1.0000 0.1394622397
H   H22       1.0  0.32820  0.34900  0.50780  1.0000 0.1394622397
H   H23       1.0  0.65100  0.67180  0.00780  1.0000 0.1394622397
H   H24       1.0  0.67180  0.65100  0.49220  1.0000 0.1394622397
H   H25       1.0  0.32390  0.40350  0.92240  1.0000 0.1300161181
H   H26       1.0  0.40350  0.32390  0.57760  1.0000 0.1300161181
H   H27       1.0  0.67610  0.59650  0.07760  1.0000 0.1300161181
H   H28       1.0  0.59650  0.67610  0.42240  1.0000 0.1300161181
H   H29       1.0  0.30440  0.25940  0.22020  1.0000 0.1394622397
H   H30       1.0  0.25940  0.30440  0.27980  1.0000 0.1394622397
H   H31       1.0  0.69560  0.74060  0.77980  1.0000 0.1394622397
H   H32       1.0  0.74060  0.69560  0.72020  1.0000 0.1394622397
H   H33       1.0  0.30350  0.07450  0.30660  1.0000 0.1215272116
H   H34       1.0  0.07450  0.30350  0.19340  1.0000 0.1215272116
H   H35       1.0  0.69650  0.92550  0.69340  1.0000 0.1215272116
H   H36       1.0  0.92550  0.69650  0.80660  1.0000 0.1215272116
H   H37       1.0  0.15500  0.01460  0.15510  1.0000 0.1300161181
H   H38       1.0  0.01460  0.15500  0.34490  1.0000 0.1300161181
H   H39       1.0  0.84500  0.98540  0.84490  1.0000 0.1300161181
H   H40       1.0  0.98540  0.84500  0.65510  1.0000 0.1300161181
H   H41       1.0  0.93210  0.18030  0.57160  1.0000 0.1300161181
H   H42       1.0  0.18030  0.93210  0.92840  1.0000 0.1300161181
H   H43       1.0  0.06790  0.81970  0.42840  1.0000 0.1300161181
H   H44       1.0  0.81970  0.06790  0.07160  1.0000 0.1300161181
H   H45       1.0  0.08370  0.32430  0.43330  1.0000 0.1463881847
H   H46       1.0  0.32430  0.08370  0.06670  1.0000 0.1463881847
H   H47       1.0  0.91630  0.67570  0.56670  1.0000 0.1463881847
H   H48       1.0  0.67570  0.91630  0.93330  1.0000 0.1463881847
H   H49       1.0  0.00360  0.41480  0.50540  1.0000 0.1394622397
H   H50       1.0  0.41480  0.00360  0.99460  1.0000 0.1394622397
H   H51       1.0  0.99640  0.58520  0.49460  1.0000 0.1394622397
H   H52       1.0  0.58520  0.99640  0.00540  1.0000 0.1394622397
H   H53       1.0  0.16010  0.14670  0.60670  1.0000 0.1394622397
H   H54       1.0  0.14670  0.16010  0.89330  1.0000 0.1394622397
H   H55       1.0  0.83990  0.85330  0.39330  1.0000 0.1394622397
H   H56       1.0  0.85330  0.83990  0.10670  1.0000 0.1394622397
H   H57       1.0  0.85000  0.97440  0.39420  1.0000 0.1394622397
H   H58       1.0  0.97440  0.85000  0.10580  1.0000 0.1394622397
H   H59       1.0  0.15000  0.02560  0.60580  1.0000 0.1394622397
H   H60       1.0  0.02560  0.15000  0.89420  1.0000 0.1394622397
H   H61       1.0  0.44220  0.25600  0.38090  1.0000 0.3604593691
H   H62       1.0  0.25600  0.44220  0.11910  1.0000 0.3604593691
H   H63       1.0  0.55780  0.74400  0.61910  1.0000 0.3604593691
H   H64       1.0  0.74400  0.55780  0.88090  1.0000 0.3604593691
H   H65       1.0  0.42070  0.78010  0.80920  1.0000 0.2703339127
H   H66       1.0  0.37040  0.72520  0.75780  1.0000 0.260448378
H   H67       1.0  0.54350  0.84390  0.72810  1.0000 0.1117899311
H   H68       1.0  0.55420  0.90920  0.76270  1.0000 0.1394622397
H   H69       1.0  0.48540  0.86660  0.70680  1.0000 0.1300161181
H   H70       1.0  0.42270  0.66090  0.78040  1.0000 0.1215272116
H   H71       1.0  0.46280  0.70700  0.83960  1.0000 0.1394622397
H   H72       1.0  0.52600  0.76180  0.78700  1.0000 0.1215272116
H   H73       1.0  0.78010  0.42070  0.69080  1.0000 0.2703339127
H   H74       1.0  0.72520  0.37040  0.74220  1.0000 0.260448378
H   H75       1.0  0.84390  0.54350  0.77190  1.0000 0.1117899311
H   H76       1.0  0.90920  0.55420  0.73730  1.0000 0.1394622397
H   H77       1.0  0.86660  0.48540  0.79320  1.0000 0.1300161181
H   H78       1.0  0.66090  0.42270  0.71960  1.0000 0.1215272116
H   H79       1.0  0.70700  0.46280  0.66040  1.0000 0.1394622397
H   H80       1.0  0.76180  0.52600  0.71300  1.0000 0.1215272116
H   H81       1.0  0.57930  0.21990  0.19080  1.0000 0.2703339127
H   H82       1.0  0.62960  0.27480  0.24220  1.0000 0.260448378
H   H83       1.0  0.45650  0.15610  0.27190  1.0000 0.1117899311
H   H84       1.0  0.44580  0.09080  0.23730  1.0000 0.1394622397
H   H85       1.0  0.51460  0.13340  0.29320  1.0000 0.1300161181
H   H86       1.0  0.57730  0.33910  0.21960  1.0000 0.1215272116
H   H87       1.0  0.53720  0.29300  0.16040  1.0000 0.1394622397
H   H88       1.0  0.47400  0.23820  0.21300  1.0000 0.1215272116
H   H89       1.0  0.21990  0.57930  0.30920  1.0000 0.2703339127
H   H90       1.0  0.27480  0.62960  0.25780  1.0000 0.260448378
H   H91       1.0  0.15610  0.45650  0.22810  1.0000 0.1117899311
H   H92       1.0  0.09080  0.44580  0.26270  1.0000 0.1394622397
H   H93       1.0  0.13340  0.51460  0.20680  1.0000 0.1300161181
H   H94       1.0  0.33910  0.57730  0.28040  1.0000 0.1215272116
H   H95       1.0  0.29300  0.53720  0.33960  1.0000 0.1394622397
H   H96       1.0  0.23820  0.47400  0.28700  1.0000 0.1215272116
C   C1        1.0  0.02735  0.43645  0.78780  1.0000 -0.0039975262
C   C2        1.0  0.43645  0.02735  0.71220  1.0000 -0.0039975262
C   C3        1.0  0.97265  0.56355  0.21220  1.0000 -0.0128105419
C   C4        1.0  0.56355  0.97265  0.28780  1.0000 -0.0039975262
C   C5        1.0  0.07766  0.52894  0.79130  1.0000 -0.1106637488
C   C6        1.0  0.52894  0.07766  0.70870  1.0000 -0.1106637488
C   C7        1.0  0.92234  0.47106  0.20870  1.0000 -0.1106637488
C   C8        1.0  0.47106  0.92234  0.29130  1.0000 -0.1106637488
C   C9        1.0  0.14734  0.58026  0.83500  1.0000 -0.0190638781
C   C10       1.0  0.58026  0.14734  0.66500  1.0000 -0.0190638781
C   C11       1.0  0.85266  0.41974  0.16500  1.0000 -0.0190638781
C   C12       1.0  0.41974  0.85266  0.33500  1.0000 -0.0190638781
C   C13       1.0  0.16544  0.53756  0.87540  1.0000 -0.1409212039
C   C14       1.0  0.53756  0.16544  0.62460  1.0000 -0.1409212039
C   C15       1.0  0.83456  0.46244  0.12460  1.0000 -0.1409212039
C   C16       1.0  0.46244  0.83456  0.37540  1.0000 -0.1409212039
C   C17       1.0  0.11380  0.44560  0.87230  1.0000 0.1686860886
C   C18       1.0  0.44560  0.11380  0.62770  1.0000 0.1686860886
C   C19       1.0  0.88620  0.55440  0.12770  1.0000 0.1686860886
C   C20       1.0  0.55440  0.88620  0.37230  1.0000 0.1686860886
C   C21       1.0  0.04580  0.39420  0.82960  1.0000 -0.1409212039
C   C22       1.0  0.39420  0.04580  0.67040  1.0000 -0.1409212039
C   C23       1.0  0.95420  0.60580  0.17040  1.0000 -0.1409212039
C   C24       1.0  0.60580  0.95420  0.32960  1.0000 -0.1409212039
C   C25       1.0  0.95329  0.38111  0.73950  1.0000 0.6035966915
C   C26       1.0  0.38111  0.95329  0.76050  1.0000 0.6035966915
C   C27       1.0  0.04671  0.61889  0.26050  1.0000 0.6035966915
C   C28       1.0  0.61889  0.04671  0.23950  1.0000 0.6035966915
C   C29       1.0  0.20516  0.68184  0.83700  1.0000 0.6035966915
C   C30       1.0  0.68184  0.20516  0.66300  1.0000 0.6035966915
C   C31       1.0  0.79484  0.31816  0.16300  1.0000 0.6035966915
C   C32       1.0  0.31816  0.79484  0.33700  1.0000 0.6035966915
C   C33       1.0  0.07153  0.34667  0.96190  1.0000 0.4320190997
C   C34       1.0  0.34667  0.07153  0.53810  1.0000 0.4320190997
C   C35       1.0  0.92847  0.65333  0.03810  1.0000 0.4320190997
C   C36       1.0  0.65333  0.92847  0.46190  1.0000 0.4320190997
C   C37       1.0  0.08366  0.29594  0.00560  1.0000 -0.0619402039
C   C38       1.0  0.29594  0.08366  0.49440  1.0000 -0.0619402039
C   C39       1.0  0.91634  0.70406  0.99440  1.0000 -0.0619402039
C   C40       1.0  0.70406  0.91634  0.50560  1.0000 -0.0619402039
C   C41       1.0  0.02402  0.24078  0.04830  1.0000 -0.0884211152
C   C42       1.0  0.24078  0.02402  0.45170  1.0000 -0.0884211152
C   C43       1.0  0.97598  0.75922  0.95170  1.0000 -0.0884211152
C   C44       1.0  0.75922  0.97598  0.54830  1.0000 -0.0884211152
C   C45       1.0  0.03630  0.19170  0.09060  1.0000 -0.0884211152
C   C46       1.0  0.19170  0.03630  0.40940  1.0000 -0.0884211152
C   C47       1.0  0.96370  0.80830  0.90940  1.0000 -0.0884211152
C   C48       1.0  0.80830  0.96370  0.59060  1.0000 -0.0884211152
C   C49       1.0  0.10754  0.19986  0.08810  1.0000 -0.0884211152
C   C50       1.0  0.19986  0.10754  0.41190  1.0000 -0.0884211152
C   C51       1.0  0.89246  0.80014  0.91190  1.0000 -0.0884211152
C   C52       1.0  0.80014  0.89246  0.58810  1.0000 -0.0884211152
C   C53       1.0  0.12372  0.15408  0.13300  1.0000 0.422639826
C   C54       1.0  0.15408  0.12372  0.36700  1.0000 0.422639826
C   C55       1.0  0.87628  0.84592  0.86700  1.0000 0.4320190997
C   C56       1.0  0.84592  0.87628  0.63300  1.0000 0.422639826
C   C57       1.0  0.25817  0.22003  0.08420  1.0000 0.422639826
C   C58       1.0  0.22003  0.25817  0.41580  1.0000 0.422639826
C   C59       1.0  0.74183  0.77997  0.91580  1.0000 0.422639826
C   C60       1.0  0.77997  0.74183  0.58420  1.0000 0.422639826
C   C61       1.0  0.24294  0.26706  0.03930  1.0000 -0.0704297052
C   C62       1.0  0.26706  0.24294  0.46070  1.0000 -0.0704297052
C   C63       1.0  0.75706  0.73294  0.96070  1.0000 -0.0704297052
C   C64       1.0  0.73294  0.75706  0.53930  1.0000 -0.0704297052
C   C65       1.0  0.30025  0.32155  0.99480  1.0000 -0.0793436755
C   C66       1.0  0.32155  0.30025  0.50520  1.0000 -0.0793436755
C   C67       1.0  0.69975  0.67845  0.00520  1.0000 -0.0793436755
C   C68       1.0  0.67845  0.69975  0.49480  1.0000 -0.0793436755
C   C69       1.0  0.28530  0.36750  0.95300  1.0000 -0.0793436755
C   C70       1.0  0.36750  0.28530  0.54700  1.0000 -0.0793436755
C   C71       1.0  0.71470  0.63250  0.04700  1.0000 -0.0793436755
C   C72       1.0  0.63250  0.71470  0.45300  1.0000 -0.0793436755
C   C73       1.0  0.21661  0.36099  0.95590  1.0000 -0.0619402039
C   C74       1.0  0.36099  0.21661  0.54410  1.0000 -0.0619402039
C   C75       1.0  0.78339  0.63901  0.04410  1.0000 -0.0704297052
C   C76       1.0  0.63901  0.78339  0.45590  1.0000 -0.0619402039
C   C77       1.0  0.20699  0.41401  0.91160  1.0000 0.4352284786
C   C78       1.0  0.41401  0.20699  0.58840  1.0000 0.4352284786
C   C79       1.0  0.79301  0.58599  0.08840  1.0000 0.4352284786
C   C80       1.0  0.58599  0.79301  0.41160  1.0000 0.4352284786
C   C81       1.0  0.15575  0.30545  0.00000  1.0000 0.0287110748
C   C82       1.0  0.30545  0.15575  0.50000  1.0000 0.0287110748
C   C83       1.0  0.84425  0.69455  0.00000  1.0000 0.0287110748
C   C84       1.0  0.69455  0.84425  0.50000  1.0000 0.0287110748
C   C85       1.0  0.16823  0.25617  0.04270  1.0000 0.0287110748
C   C86       1.0  0.25617  0.16823  0.45730  1.0000 0.0287110748
C   C87       1.0  0.83177  0.74383  0.95730  1.0000 0.0287110748
C   C88       1.0  0.74383  0.83177  0.54270  1.0000 0.0287110748
C   C89       1.0  0.22933  0.14167  0.18010  1.0000 0.1785928258
C   C90       1.0  0.14167  0.22933  0.31990  1.0000 0.1785928258
C   C91       1.0  0.77067  0.85833  0.81990  1.0000 0.1785928258
C   C92       1.0  0.85833  0.77067  0.68010  1.0000 0.1785928258
C   C93       1.0  0.28602  0.20258  0.22340  1.0000 -0.1409212039
C   C94       1.0  0.20258  0.28602  0.27660  1.0000 -0.1409212039
C   C95       1.0  0.71398  0.79742  0.77660  1.0000 -0.1409212039
C   C96       1.0  0.79742  0.71398  0.72340  1.0000 -0.1409212039
C   C97       1.0  0.31518  0.17842  0.27130  1.0000 -0.042331967
C   C98       1.0  0.17842  0.31518  0.22870  1.0000 -0.042331967
C   C99       1.0  0.68482  0.82158  0.72870  1.0000 -0.042331967
C   C100      1.0  0.82158  0.68482  0.77130  1.0000 -0.042331967
C   C101      1.0  0.28381  0.09159  0.27460  1.0000 -0.1213444765
C   C102      1.0  0.09159  0.28381  0.22540  1.0000 -0.1213444765
C   C103      1.0  0.71619  0.90841  0.72540  1.0000 -0.1213444765
C   C104      1.0  0.90841  0.71619  0.77460  1.0000 -0.1213444765
C   C105      1.0  0.22510  0.03130  0.23220  1.0000 0.0136253354
C   C106      1.0  0.03130  0.22510  0.26780  1.0000 0.0136253354
C   C107      1.0  0.77490  0.96870  0.76780  1.0000 0.0136253354
C   C108      1.0  0.96870  0.77490  0.73220  1.0000 0.0136253354
C   C109      1.0  0.19617  0.05583  0.18410  1.0000 -0.1512379288
C   C110      1.0  0.05583  0.19617  0.31590  1.0000 -0.1512379288
C   C111      1.0  0.80383  0.94417  0.81590  1.0000 -0.1512379288
C   C112      1.0  0.94417  0.80383  0.68410  1.0000 -0.1512379288
C   C113      1.0  0.37570  0.24210  0.31850  1.0000 0.5244221804
C   C114      1.0  0.24210  0.37570  0.18150  1.0000 0.5244221804
C   C115      1.0  0.62430  0.75790  0.68150  1.0000 0.5244221804
C   C116      1.0  0.75790  0.62430  0.81850  1.0000 0.5244221804
C   C117      1.0  0.18820  0.93480  0.23940  1.0000 0.5444033262
C   C118      1.0  0.93480  0.18820  0.26060  1.0000 0.5444033262
C   C119      1.0  0.81180  0.06520  0.76060  1.0000 0.5444033262
C   C120      1.0  0.06520  0.81180  0.73940  1.0000 0.5451458809
C   C121      1.0  0.96273  0.29807  0.54600  1.0000 -0.0128105419
C   C122      1.0  0.29807  0.96273  0.95400  1.0000 -0.0128105419
C   C123      1.0  0.03727  0.70193  0.45400  1.0000 -0.0128105419
C   C124      1.0  0.70193  0.03727  0.04600  1.0000 -0.0128105419
C   C125      1.0  0.96296  0.23204  0.54460  1.0000 -0.1512379288
C   C126      1.0  0.23204  0.96296  0.95540  1.0000 -0.1512379288
C   C127      1.0  0.03704  0.76796  0.45540  1.0000 -0.1512379288
C   C128      1.0  0.76796  0.03704  0.04460  1.0000 -0.1512379288
C   C129      1.0  0.00976  0.24424  0.50230  1.0000 0.1785928258
C   C130      1.0  0.24424  0.00976  0.99770  1.0000 0.1785928258
C   C131      1.0  0.99024  0.75576  0.49770  1.0000 0.1785928258
C   C132      1.0  0.75576  0.99024  0.00230  1.0000 0.1785928258
C   C133      1.0  0.05331  0.31809  0.46160  1.0000 -0.1409212039
C   C134      1.0  0.31809  0.05331  0.03840  1.0000 -0.1409212039
C   C135      1.0  0.94669  0.68191  0.53840  1.0000 -0.1409212039
C   C136      1.0  0.68191  0.94669  0.96160  1.0000 -0.1409212039
C   C137      1.0  0.05258  0.38402  0.46220  1.0000 -0.0190638781
C   C138      1.0  0.38402  0.05258  0.03780  1.0000 -0.0190638781
C   C139      1.0  0.94742  0.61598  0.53780  1.0000 -0.0190638781
C   C140      1.0  0.61598  0.94742  0.96220  1.0000 -0.0190638781
C   C141      1.0  0.00569  0.37171  0.50490  1.0000 -0.0884211152
C   C142      1.0  0.37171  0.00569  0.99510  1.0000 -0.0884211152
C   C143      1.0  0.99431  0.62829  0.49510  1.0000 -0.0884211152
C   C144      1.0  0.62829  0.99431  0.00490  1.0000 -0.0884211152
C   C145      1.0  0.91192  0.28528  0.59140  1.0000 0.6099213478
C   C146      1.0  0.28528  0.91192  0.90860  1.0000 0.6099213478
C   C147      1.0  0.08808  0.71472  0.40860  1.0000 0.6099213478
C   C148      1.0  0.71472  0.08808  0.09140  1.0000 0.6099213478
C   C149      1.0  0.09734  0.46366  0.41820  1.0000 0.5618942496
C   C150      1.0  0.46366  0.09734  0.08180  1.0000 0.5618942496
C   C151      1.0  0.90266  0.53634  0.58180  1.0000 0.5618942496
C   C152      1.0  0.53634  0.90266  0.91820  1.0000 0.5618942496
C   C153      1.0  0.06970  0.17770  0.54030  1.0000 0.422639826
C   C154      1.0  0.17770  0.06970  0.95970  1.0000 0.422639826
C   C155      1.0  0.93030  0.82230  0.45970  1.0000 0.422639826
C   C156      1.0  0.82230  0.93030  0.04030  1.0000 0.422639826
C   C157      1.0  0.06322  0.10318  0.54070  1.0000 -0.0704297052
C   C158      1.0  0.10318  0.06322  0.95930  1.0000 -0.0704297052
C   C159      1.0  0.93678  0.89682  0.45930  1.0000 -0.0704297052
C   C160      1.0  0.89682  0.93678  0.04070  1.0000 -0.0704297052
C   C161      1.0  0.11912  0.10148  0.57980  1.0000 -0.0704297052
C   C162      1.0  0.10148  0.11912  0.92020  1.0000 -0.0704297052
C   C163      1.0  0.88088  0.89852  0.42020  1.0000 -0.0704297052
C   C164      1.0  0.89852  0.88088  0.07980  1.0000 -0.0704297052
C   C165      1.0  0.88654  0.97146  0.42140  1.0000 -0.0793436755
C   C166      1.0  0.97146  0.88654  0.07860  1.0000 -0.0793436755
C   C167      1.0  0.11346  0.02854  0.57860  1.0000 -0.0793436755
C   C168      1.0  0.02854  0.11346  0.92140  1.0000 -0.0793436755
C   C169      1.0  0.94362  0.03518  0.46100  1.0000 -0.0619402039
C   C170      1.0  0.03518  0.94362  0.03900  1.0000 -0.0619402039
C   C171      1.0  0.05638  0.96482  0.53900  1.0000 -0.0619402039
C   C172      1.0  0.96482  0.05638  0.96100  1.0000 -0.0619402039
C   C173      1.0  0.94504  0.10776  0.46140  1.0000 0.4320190997
C   C174      1.0  0.10776  0.94504  0.03860  1.0000 0.4320190997
C   C175      1.0  0.05496  0.89224  0.53860  1.0000 0.4320190997
C   C176      1.0  0.89224  0.05496  0.96140  1.0000 0.4320190997
C   C177      1.0  0.00229  0.03531  0.50100  1.0000 0.0287110748
C   C178      1.0  0.03531  0.00229  0.99900  1.0000 0.0287110748
C   C179      1.0  0.99771  0.96469  0.49900  1.0000 0.0287110748
C   C180      1.0  0.96469  0.99771  0.00100  1.0000 0.0287110748
C   C181      1.0  0.51090  0.85510  0.74020  1.0000 -0.3209431949
C   C182      1.0  0.46290  0.71910  0.79830  1.0000 -0.2859662059
C   C183      1.0  0.85510  0.51090  0.75980  1.0000 -0.3209431949
C   C184      1.0  0.71910  0.46290  0.70170  1.0000 -0.2859662059
C   C185      1.0  0.48910  0.14490  0.25980  1.0000 -0.3209431949
C   C186      1.0  0.53710  0.28090  0.20170  1.0000 -0.2859662059
C   C187      1.0  0.14490  0.48910  0.24020  1.0000 -0.3209431949
C   C188      1.0  0.28090  0.53710  0.29830  1.0000 -0.2859662059
N   N1        1.0  0.13029  0.39871  0.91670  1.0000 -0.2279736768
N   N2        1.0  0.39871  0.13029  0.58330  1.0000 -0.2279736768
N   N3        1.0  0.86971  0.60129  0.08330  1.0000 -0.2279736768
N   N4        1.0  0.60129  0.86971  0.41670  1.0000 -0.2279736768
N   N5        1.0  0.20074  0.17066  0.12930  1.0000 -0.2194374553
N   N6        1.0  0.17066  0.20074  0.37070  1.0000 -0.2194374553
N   N7        1.0  0.79926  0.82934  0.87070  1.0000 -0.2194374553
N   N8        1.0  0.82934  0.79926  0.62930  1.0000 -0.2194374553
N   N9        1.0  0.00838  0.17322  0.50020  1.0000 -0.2194374553
N   N10       1.0  0.17322  0.00838  0.99980  1.0000 -0.2194374553
N   N11       1.0  0.99162  0.82678  0.49980  1.0000 -0.2194374553
N   N12       1.0  0.82678  0.99162  0.00020  1.0000 -0.2194374553
N   N13       1.0  0.42600  0.76380  0.77890  1.0000 -0.1106637488
N   N14       1.0  0.76380  0.42600  0.72110  1.0000 -0.1106637488
N   N15       1.0  0.57400  0.23620  0.22110  1.0000 -0.1213444765
N   N16       1.0  0.23620  0.57400  0.27890  1.0000 -0.1213444765
O   O1        1.0  0.93805  0.42055  0.70232  1.0000 -0.5498088631
O   O2        1.0  0.42055  0.93805  0.79768  1.0000 -0.5498088631
O   O3        1.0  0.06195  0.57945  0.29768  1.0000 -0.5498088631
O   O4        1.0  0.57945  0.06195  0.20232  1.0000 -0.5498088631
O   O5        1.0  0.91273  0.29787  0.73951  1.0000 -0.5498088631
O   O6        1.0  0.29787  0.91273  0.76049  1.0000 -0.5498088631
O   O7        1.0  0.08727  0.70213  0.26049  1.0000 -0.5498088631
O   O8        1.0  0.70213  0.08727  0.23951  1.0000 -0.5498088631
O   O9        1.0  0.28616  0.73404  0.86181  1.0000 -0.5590624395
O   O10       1.0  0.73404  0.28616  0.63819  1.0000 -0.5590624395
O   O11       1.0  0.71384  0.26596  0.13819  1.0000 -0.5590624395
O   O12       1.0  0.26596  0.71384  0.36181  1.0000 -0.5590624395
O   O13       1.0  0.16556  0.70644  0.81370  1.0000 -0.5590624395
O   O14       1.0  0.70644  0.16556  0.68630  1.0000 -0.5590624395
O   O15       1.0  0.83444  0.29356  0.18630  1.0000 -0.5590624395
O   O16       1.0  0.29356  0.83444  0.31370  1.0000 -0.5590624395
O   O17       1.0  0.38625  0.30615  0.32210  1.0000 -0.4807470474
O   O18       1.0  0.30615  0.38625  0.17790  1.0000 -0.4807470474
O   O19       1.0  0.61375  0.69385  0.67790  1.0000 -0.4807470474
O   O20       1.0  0.69385  0.61375  0.82210  1.0000 -0.4807470474
O   O21       1.0  0.40905  0.21815  0.35580  1.0000 -0.4360926929
O   O22       1.0  0.21815  0.40905  0.14420  1.0000 -0.4360926929
O   O23       1.0  0.59095  0.78185  0.64420  1.0000 -0.4333339217
O   O24       1.0  0.78185  0.59095  0.85580  1.0000 -0.4360926929
O   O25       1.0  0.23003  0.92577  0.27860  1.0000 -0.5222628298
O   O26       1.0  0.92577  0.23003  0.22140  1.0000 -0.5222628298
O   O27       1.0  0.76997  0.07423  0.72140  1.0000 -0.5222628298
O   O28       1.0  0.07423  0.76997  0.77860  1.0000 -0.5222628298
O   O29       1.0  0.12260  0.87380  0.20940  1.0000 -0.4807470474
O   O30       1.0  0.87380  0.12260  0.29060  1.0000 -0.4807470474
O   O31       1.0  0.87740  0.12620  0.79060  1.0000 -0.4807470474
O   O32       1.0  0.12620  0.87740  0.70940  1.0000 -0.4807470474
O   O33       1.0  0.25692  0.46468  0.87300  1.0000 -0.4069763306
O   O34       1.0  0.46468  0.25692  0.62700  1.0000 -0.4069763306
O   O35       1.0  0.74308  0.53532  0.12700  1.0000 -0.4069763306
O   O36       1.0  0.53532  0.74308  0.37300  1.0000 -0.4069763306
O   O37       1.0  0.01127  0.34253  0.96370  1.0000 -0.3897694046
O   O38       1.0  0.34253  0.01127  0.53630  1.0000 -0.3897694046
O   O39       1.0  0.98873  0.65747  0.03630  1.0000 -0.3897694046
O   O40       1.0  0.65747  0.98873  0.46370  1.0000 -0.3897694046
O   O41       1.0  0.07266  0.10354  0.17180  1.0000 -0.3897694046
O   O42       1.0  0.10354  0.07266  0.32820  1.0000 -0.3897694046
O   O43       1.0  0.92734  0.89646  0.82820  1.0000 -0.3897694046
O   O44       1.0  0.89646  0.92734  0.67180  1.0000 -0.3897694046
O   O45       1.0  0.31877  0.22463  0.08280  1.0000 -0.4069763306
O   O46       1.0  0.22463  0.31877  0.41720  1.0000 -0.4069763306
O   O47       1.0  0.68123  0.77537  0.91720  1.0000 -0.4069763306
O   O48       1.0  0.77537  0.68123  0.58280  1.0000 -0.4069763306
O   O49       1.0  0.91334  0.34626  0.59069  1.0000 -0.5390574708
O   O50       1.0  0.34626  0.91334  0.90931  1.0000 -0.5390574708
O   O51       1.0  0.08666  0.65374  0.40931  1.0000 -0.5390574708
O   O52       1.0  0.65374  0.08666  0.09069  1.0000 -0.5390574708
O   O53       1.0  0.87017  0.21523  0.62630  1.0000 -0.5390574708
O   O54       1.0  0.21523  0.87017  0.87370  1.0000 -0.5390574708
O   O55       1.0  0.12983  0.78477  0.37370  1.0000 -0.5390574708
O   O56       1.0  0.78477  0.12983  0.12630  1.0000 -0.5390574708
O   O57       1.0  0.08739  0.51561  0.42051  1.0000 -0.5222628298
O   O58       1.0  0.51561  0.08739  0.07949  1.0000 -0.5222628298
O   O59       1.0  0.91261  0.48439  0.57949  1.0000 -0.5222628298
O   O60       1.0  0.48439  0.91261  0.92051  1.0000 -0.5222628298
O   O61       1.0  0.14105  0.47635  0.38150  1.0000 -0.5390574708
O   O62       1.0  0.47635  0.14105  0.11850  1.0000 -0.5347781065
O   O63       1.0  0.85895  0.52365  0.61850  1.0000 -0.5390574708
O   O64       1.0  0.52365  0.85895  0.88150  1.0000 -0.5390574708
O   O65       1.0  0.89207  0.10733  0.43080  1.0000 -0.3809715058
O   O66       1.0  0.10733  0.89207  0.06920  1.0000 -0.3809715058
O   O67       1.0  0.10793  0.89267  0.56920  1.0000 -0.3809715058
O   O68       1.0  0.89267  0.10793  0.93080  1.0000 -0.3809715058
O   O69       1.0  0.12214  0.23806  0.57320  1.0000 -0.3809715058
O   O70       1.0  0.23806  0.12214  0.92680  1.0000 -0.3809715058
O   O71       1.0  0.87786  0.76194  0.42680  1.0000 -0.3809715058
O   O72       1.0  0.76194  0.87786  0.07320  1.0000 -0.3809715058
