# DDEC6 charges by PACMAN v1.1 (https://github.com/mtap-research/PACMAN-charge/)
data_2014[Ho][nan]3[ION]1
_chemical_formula_sum              "Ho6 H192 C248 S8 N48 O72 F24"
_cell_length_a       24.03
_cell_length_b       24.1348
_cell_length_c       24.3922
_cell_angle_alpha    85.032
_cell_angle_beta     118.675
_cell_angle_gamma    118.735

_symmetry_space_group_name_H-M    "P 1"
_symmetry_Int_Tables_number       1

loop_
  _symmetry_equiv_pos_as_xyz
  'x, y, z'

loop_
  _atom_site_type_symbol
  _atom_site_label
  _atom_site_symmetry_multiplicity
  _atom_site_fract_x
  _atom_site_fract_y
  _atom_site_fract_z
  _atom_site_occupancy
  _atom_site_charge
Ho  Ho1       1.0  0.36089  0.15311  0.79844  1.0000 1.9324032851
Ho  Ho2       1.0  0.63911  0.84689  0.20156  1.0000 1.9324032851
Ho  Ho3       1.0  0.84706  0.28303  0.64067  1.0000 1.9207929858
Ho  Ho4       1.0  0.15294  0.71697  0.35933  1.0000 1.9207929858
Ho  Ho5       1.0  0.74664  0.72003  0.76377  1.0000 1.9207929858
Ho  Ho6       1.0  0.25336  0.27997  0.23623  1.0000 1.9207929858
H   H1        1.0  0.27450  0.22560  0.84400  1.0000 0.1219354503
H   H2        1.0  0.72550  0.77440  0.15600  1.0000 0.1219354503
H   H3        1.0  0.14070  0.09170  0.68680  1.0000 0.1105691937
H   H4        1.0  0.85930  0.90830  0.31320  1.0000 0.1105691937
H   H5        1.0  0.27460  0.99230  0.86690  1.0000 0.1291684752
H   H6        1.0  0.72540  0.00770  0.13310  1.0000 0.1291684752
H   H7        1.0  0.17280  0.99680  0.68420  1.0000 0.1008670681
H   H8        1.0  0.82720  0.00320  0.31580  1.0000 0.1008670681
H   H9        1.0  0.25970  0.08370  0.89420  1.0000 0.1219354503
H   H10       1.0  0.74030  0.91630  0.10580  1.0000 0.1219354503
H   H11       1.0  0.46760  0.22040  0.99240  1.0000 0.1219354503
H   H12       1.0  0.53240  0.77960  0.00760  1.0000 0.1219354503
H   H13       1.0  0.38950  0.00510  0.82160  1.0000 0.1219354503
H   H14       1.0  0.61050  0.99490  0.17840  1.0000 0.1219354503
H   H15       1.0  0.54310  0.16610  0.95030  1.0000 0.1219354503
H   H16       1.0  0.45690  0.83390  0.04970  1.0000 0.1219354503
H   H17       1.0  0.36370  0.31910  0.79490  1.0000 0.1219354503
H   H18       1.0  0.63630  0.68090  0.20510  1.0000 0.1219354503
H   H19       1.0  0.53510  0.30760  0.92690  1.0000 0.1219354503
H   H20       1.0  0.46490  0.69240  0.07310  1.0000 0.1219354503
H   H21       1.0  0.20120  0.27190  0.80530  1.0000 0.1392561728
H   H22       1.0  0.79880  0.72810  0.19470  1.0000 0.1392561728
H   H23       1.0  0.06830  0.13740  0.64240  1.0000 0.1219354503
H   H24       1.0  0.93170  0.86260  0.35760  1.0000 0.1219354503
H   H25       1.0  0.16640  0.93630  0.86730  1.0000 0.1490211893
H   H26       1.0  0.83360  0.06370  0.13270  1.0000 0.1490211893
H   H27       1.0  0.05740  0.93340  0.67700  1.0000 0.1219354503
H   H28       1.0  0.94260  0.06660  0.32300  1.0000 0.1219354503
H   H29       1.0  0.22910  0.11830  0.95320  1.0000 0.1392561728
H   H30       1.0  0.77090  0.88170  0.04680  1.0000 0.1392561728
H   H31       1.0  0.44110  0.26110  0.05430  1.0000 0.1219354503
H   H32       1.0  0.55890  0.73890  0.94570  1.0000 0.1219354503
H   H33       1.0  0.41220  0.94390  0.90160  1.0000 0.1291684752
H   H34       1.0  0.58780  0.05610  0.09840  1.0000 0.1291684752
H   H35       1.0  0.56820  0.10700  0.03050  1.0000 0.1291684752
H   H36       1.0  0.43180  0.89300  0.96950  1.0000 0.1291684752
H   H37       1.0  0.44080  0.41780  0.78050  1.0000 0.1392561728
H   H38       1.0  0.55920  0.58220  0.21950  1.0000 0.1392561728
H   H39       1.0  0.61700  0.40710  0.91910  1.0000 0.1490211893
H   H40       1.0  0.38300  0.59290  0.08090  1.0000 0.1490211893
H   H41       1.0  0.14740  0.32600  0.74910  1.0000 0.1392561728
H   H42       1.0  0.85260  0.67400  0.25090  1.0000 0.1392561728
H   H43       1.0  0.99670  0.16810  0.61550  1.0000 0.1291684752
H   H44       1.0  0.00330  0.83190  0.38450  1.0000 0.1291684752
H   H45       1.0  0.05960  0.93800  0.85560  1.0000 0.1490211893
H   H46       1.0  0.94040  0.06200  0.14440  1.0000 0.1490211893
H   H47       1.0  0.96980  0.83630  0.68320  1.0000 0.1291684752
H   H48       1.0  0.03020  0.16370  0.31680  1.0000 0.1291684752
H   H49       1.0  0.21090  0.13710  0.02080  1.0000 0.1392561728
H   H50       1.0  0.78910  0.86290  0.97920  1.0000 0.1392561728
H   H51       1.0  0.40080  0.30790  0.09000  1.0000 0.1219354503
H   H52       1.0  0.59920  0.69210  0.91000  1.0000 0.1219354503
H   H53       1.0  0.67330  0.51760  0.91730  1.0000 0.1392561728
H   H54       1.0  0.32670  0.48240  0.08270  1.0000 0.1392561728
H   H55       1.0  0.52270  0.45040  0.73070  1.0000 0.1291684752
H   H56       1.0  0.47730  0.54960  0.26930  1.0000 0.1291684752
H   H57       1.0  0.06680  0.36440  0.70820  1.0000 0.1219354503
H   H58       1.0  0.93320  0.63560  0.29180  1.0000 0.1219354503
H   H59       1.0  0.91680  0.20680  0.57170  1.0000 0.1219354503
H   H60       1.0  0.08320  0.79320  0.42830  1.0000 0.1219354503
H   H61       1.0  0.94390  0.89570  0.84180  1.0000 0.1291684752
H   H62       1.0  0.05610  0.10430  0.15820  1.0000 0.1291684752
H   H63       1.0  0.85520  0.79150  0.67470  1.0000 0.1219354503
H   H64       1.0  0.14480  0.20850  0.32530  1.0000 0.1219354503
H   H65       1.0  0.17430  0.17710  0.07400  1.0000 0.1291684752
H   H66       1.0  0.82570  0.82290  0.92600  1.0000 0.1291684752
H   H67       1.0  0.36180  0.34240  0.14060  1.0000 0.1291684752
H   H68       1.0  0.63820  0.65760  0.85940  1.0000 0.1291684752
H   H69       1.0  0.75200  0.60120  0.88890  1.0000 0.1219354503
H   H70       1.0  0.24800  0.39880  0.11110  1.0000 0.1219354503
H   H71       1.0  0.60230  0.53260  0.70730  1.0000 0.1219354503
H   H72       1.0  0.39770  0.46740  0.29270  1.0000 0.1219354503
H   H73       1.0  0.01110  0.46320  0.66090  1.0000 0.1219354503
H   H74       1.0  0.98890  0.53680  0.33910  1.0000 0.1219354503
H   H75       1.0  0.81970  0.37730  0.49770  1.0000 0.1219354503
H   H76       1.0  0.18030  0.62270  0.50230  1.0000 0.1219354503
H   H77       1.0  0.85350  0.25850  0.48330  1.0000 0.1291684752
H   H78       1.0  0.14650  0.74150  0.51670  1.0000 0.1291684752
H   H79       1.0  0.65990  0.16150  0.47280  1.0000 0.1105691937
H   H80       1.0  0.34010  0.83850  0.52720  1.0000 0.1105691937
H   H81       1.0  0.65190  0.14820  0.62700  1.0000 0.1105691937
H   H82       1.0  0.34810  0.85180  0.37300  1.0000 0.1105691937
H   H83       1.0  0.82460  0.26070  0.79640  1.0000 0.1291684752
H   H84       1.0  0.17540  0.73930  0.20360  1.0000 0.1291684752
H   H85       1.0  0.91220  0.15590  0.69250  1.0000 0.1291684752
H   H86       1.0  0.08780  0.84410  0.30750  1.0000 0.1291684752
H   H87       1.0  0.70140  0.09100  0.57640  1.0000 0.1105691937
H   H88       1.0  0.29860  0.90900  0.42360  1.0000 0.1105691937
H   H89       1.0  0.62310  0.20590  0.52590  1.0000 0.1008670681
H   H90       1.0  0.37690  0.79410  0.47410  1.0000 0.1008670681
H   H91       1.0  0.76420  0.39550  0.57850  1.0000 0.1219354503
H   H92       1.0  0.23580  0.60450  0.42150  1.0000 0.1219354503
H   H93       1.0  0.88550  0.18970  0.77820  1.0000 0.1219354503
H   H94       1.0  0.11450  0.81030  0.22180  1.0000 0.1219354503
H   H95       1.0  0.04000  0.37360  0.81620  1.0000 0.1291684752
H   H96       1.0  0.96000  0.62640  0.18380  1.0000 0.1291684752
H   H97       1.0  0.63680  0.81080  0.67880  1.0000 0.1105691937
H   H98       1.0  0.36320  0.18920  0.32120  1.0000 0.1105691937
H   H99       1.0  0.83140  0.90760  0.83810  1.0000 0.1392561728
H   H100      1.0  0.16860  0.09240  0.16190  1.0000 0.1392561728
H   H101      1.0  0.89850  0.70310  0.76020  1.0000 0.1219354503
H   H102      1.0  0.10150  0.29690  0.23980  1.0000 0.1219354503
H   H103      1.0  0.69000  0.57550  0.64340  1.0000 0.1219354503
H   H104      1.0  0.31000  0.42450  0.35660  1.0000 0.1291684752
H   H105      1.0  0.74960  0.83070  0.63840  1.0000 0.1219354503
H   H106      1.0  0.25040  0.16930  0.36160  1.0000 0.1219354503
H   H107      1.0  0.61380  0.64120  0.57070  1.0000 0.1219354503
H   H108      1.0  0.38620  0.35880  0.42930  1.0000 0.1219354503
H   H109      1.0  0.58150  0.72950  0.74940  1.0000 0.1291684752
H   H110      1.0  0.41850  0.27050  0.25060  1.0000 0.1291684752
H   H111      1.0  0.53780  0.58730  0.63580  1.0000 0.1219354503
H   H112      1.0  0.46220  0.41270  0.36420  1.0000 0.1219354503
H   H113      1.0  0.13050  0.35760  0.12750  1.0000 0.1291684752
H   H114      1.0  0.86950  0.64240  0.87250  1.0000 0.1291684752
H   H115      1.0  0.07090  0.17690  0.07730  1.0000 0.1291684752
H   H116      1.0  0.92910  0.82310  0.92270  1.0000 0.1291684752
H   H117      1.0  0.07010  0.51750  0.60870  1.0000 0.1291684752
H   H118      1.0  0.92990  0.48250  0.39130  1.0000 0.1291684752
H   H119      1.0  0.87960  0.42980  0.44220  1.0000 0.1291684752
H   H120      1.0  0.12040  0.57020  0.55780  1.0000 0.1291684752
H   H121      1.0  0.82840  0.17300  0.42920  1.0000 0.1392561728
H   H122      1.0  0.17160  0.82700  0.57080  1.0000 0.1392561728
H   H123      1.0  0.63320  0.07550  0.41450  1.0000 0.1392561728
H   H124      1.0  0.36680  0.92450  0.58550  1.0000 0.1392561728
H   H125      1.0  0.57380  0.14810  0.65770  1.0000 0.1291684752
H   H126      1.0  0.42620  0.85190  0.34230  1.0000 0.1291684752
H   H127      1.0  0.74680  0.26570  0.82300  1.0000 0.1392561728
H   H128      1.0  0.25320  0.73430  0.17700  1.0000 0.1490211893
H   H129      1.0  0.88670  0.06480  0.73660  1.0000 0.1392561728
H   H130      1.0  0.11330  0.93520  0.26340  1.0000 0.1392561728
H   H131      1.0  0.67020  0.99800  0.62000  1.0000 0.1219354503
H   H132      1.0  0.32980  0.00200  0.38000  1.0000 0.1219354503
H   H133      1.0  0.53810  0.22060  0.43690  1.0000 0.1291684752
H   H134      1.0  0.46190  0.77940  0.56310  1.0000 0.1291684752
H   H135      1.0  0.68100  0.41330  0.49400  1.0000 0.1291684752
H   H136      1.0  0.31900  0.58670  0.50600  1.0000 0.1291684752
H   H137      1.0  0.92720  0.18810  0.88290  1.0000 0.1392561728
H   H138      1.0  0.07280  0.81190  0.11710  1.0000 0.1392561728
H   H139      1.0  0.08490  0.37580  0.92330  1.0000 0.1490211893
H   H140      1.0  0.91510  0.62420  0.07670  1.0000 0.1490211893
H   H141      1.0  0.65880  0.90370  0.63660  1.0000 0.1291684752
H   H142      1.0  0.34120  0.09630  0.36340  1.0000 0.1291684752
H   H143      1.0  0.85220  0.00210  0.79830  1.0000 0.1490211893
H   H144      1.0  0.14780  0.99790  0.20170  1.0000 0.1490211893
H   H145      1.0  0.93280  0.62440  0.77790  1.0000 0.1291684752
H   H146      1.0  0.06720  0.37560  0.22210  1.0000 0.1291684752
H   H147      1.0  0.71980  0.49580  0.64860  1.0000 0.1392561728
H   H148      1.0  0.28020  0.50420  0.35140  1.0000 0.1392561728
H   H149      1.0  0.75040  0.84360  0.54270  1.0000 0.1291684752
H   H150      1.0  0.24960  0.15640  0.45730  1.0000 0.1291684752
H   H151      1.0  0.62230  0.65220  0.48010  1.0000 0.1392561728
H   H152      1.0  0.37770  0.34780  0.51990  1.0000 0.1392561728
H   H153      1.0  0.48160  0.73490  0.66590  1.0000 0.1392561728
H   H154      1.0  0.51840  0.26510  0.33410  1.0000 0.1392561728
H   H155      1.0  0.44000  0.59480  0.55270  1.0000 0.1392561728
H   H156      1.0  0.56000  0.40520  0.44730  1.0000 0.1392561728
H   H157      1.0  0.08130  0.36840  0.02250  1.0000 0.1490211893
H   H158      1.0  0.91870  0.63160  0.97750  1.0000 0.1490211893
H   H159      1.0  0.01690  0.18390  0.97080  1.0000 0.1490211893
H   H160      1.0  0.98310  0.81610  0.02920  1.0000 0.1490211893
H   H161      1.0  0.60530  0.02500  0.31500  1.0000 0.1291684752
H   H162      1.0  0.39470  0.97500  0.68500  1.0000 0.1291684752
H   H163      1.0  0.81150  0.05910  0.43880  1.0000 0.1291684752
H   H164      1.0  0.18850  0.94090  0.56120  1.0000 0.1392561728
H   H165      1.0  0.66680  0.24470  0.85170  1.0000 0.1291684752
H   H166      1.0  0.33320  0.75530  0.14830  1.0000 0.1291684752
H   H167      1.0  0.52120  0.19070  0.66600  1.0000 0.1105691937
H   H168      1.0  0.47880  0.80930  0.33400  1.0000 0.1105691937
H   H169      1.0  0.95140  0.54930  0.74160  1.0000 0.1219354503
H   H170      1.0  0.04860  0.45070  0.25840  1.0000 0.1219354503
H   H171      1.0  0.74660  0.42670  0.70830  1.0000 0.1392561728
H   H172      1.0  0.25340  0.57330  0.29170  1.0000 0.1392561728
H   H173      1.0  0.59290  0.68020  0.38510  1.0000 0.1392561728
H   H174      1.0  0.40710  0.31980  0.61490  1.0000 0.1392561728
H   H175      1.0  0.79310  0.84200  0.47780  1.0000 0.1219354503
H   H176      1.0  0.20690  0.15800  0.52220  1.0000 0.1219354503
H   H177      1.0  0.57730  0.92820  0.26800  1.0000 0.1291684752
H   H178      1.0  0.42270  0.07180  0.73200  1.0000 0.1291684752
H   H179      1.0  0.77820  0.96030  0.39290  1.0000 0.1105691937
H   H180      1.0  0.22180  0.03970  0.60710  1.0000 0.1105691937
H   H181      1.0  0.58260  0.25040  0.87120  1.0000 0.1219354503
H   H182      1.0  0.41740  0.74960  0.12880  1.0000 0.1219354503
H   H183      1.0  0.43720  0.20100  0.68400  1.0000 0.1105691937
H   H184      1.0  0.56280  0.79900  0.31600  1.0000 0.1105691937
H   H185      1.0  0.97270  0.46450  0.74840  1.0000 0.1219354503
H   H186      1.0  0.02730  0.53550  0.25160  1.0000 0.1219354503
H   H187      1.0  0.76850  0.34430  0.71260  1.0000 0.1219354503
H   H188      1.0  0.23150  0.65570  0.28740  1.0000 0.1219354503
H   H189      1.0  0.59420  0.70100  0.29120  1.0000 0.1291684752
H   H190      1.0  0.40580  0.29900  0.70880  1.0000 0.1291684752
H   H191      1.0  0.78970  0.85790  0.38270  1.0000 0.1219354503
H   H192      1.0  0.21030  0.14210  0.61730  1.0000 0.1219354503
C   C1        1.0  0.23130  0.20740  0.80330  1.0000 -0.0286655436
C   C2        1.0  0.76870  0.79260  0.19670  1.0000 -0.0286655436
C   C3        1.0  0.15280  0.12900  0.71030  1.0000 -0.0509651641
C   C4        1.0  0.84720  0.87100  0.28970  1.0000 -0.0509651641
C   C5        1.0  0.22980  0.98190  0.82900  1.0000 -0.0416572123
C   C6        1.0  0.77020  0.01810  0.17100  1.0000 -0.0416572123
C   C7        1.0  0.17010  0.98410  0.72120  1.0000 -0.0416572123
C   C8        1.0  0.82990  0.01590  0.27880  1.0000 -0.0416572123
C   C9        1.0  0.29670  0.12050  0.92710  1.0000 -0.0199919143
C   C10       1.0  0.70330  0.87950  0.07290  1.0000 -0.0199919143
C   C11       1.0  0.41870  0.20080  0.98450  1.0000 -0.0416572123
C   C12       1.0  0.58130  0.79920  0.01550  1.0000 -0.0416572123
C   C13       1.0  0.42530  0.02570  0.86460  1.0000 -0.0286655436
C   C14       1.0  0.57470  0.97430  0.13540  1.0000 -0.0286655436
C   C15       1.0  0.51590  0.12040  0.94040  1.0000 -0.0509651641
C   C16       1.0  0.48410  0.87960  0.05960  1.0000 -0.0509651641
C   C17       1.0  0.41540  0.33700  0.81840  1.0000 -0.0286655436
C   C18       1.0  0.58460  0.66300  0.18160  1.0000 -0.0286655436
C   C19       1.0  0.51690  0.33080  0.89660  1.0000 -0.0286655436
C   C20       1.0  0.48310  0.66920  0.10340  1.0000 -0.0286655436
C   C21       1.0  0.18880  0.23600  0.77960  1.0000 -0.1591738632
C   C22       1.0  0.81120  0.76400  0.22040  1.0000 -0.1591738632
C   C23       1.0  0.11010  0.15620  0.68390  1.0000 -0.1811986707
C   C24       1.0  0.88990  0.84380  0.31610  1.0000 -0.1811986707
C   C25       1.0  0.16570  0.94750  0.82870  1.0000 -0.1591738632
C   C26       1.0  0.83430  0.05250  0.17130  1.0000 -0.1591738632
C   C27       1.0  0.10110  0.94630  0.71680  1.0000 -0.2088287584
C   C28       1.0  0.89890  0.05370  0.28320  1.0000 -0.2088287584
C   C29       1.0  0.27850  0.14080  0.96220  1.0000 -0.1508623323
C   C30       1.0  0.72150  0.85920  0.03780  1.0000 -0.1508623323
C   C31       1.0  0.40310  0.22430  0.02160  1.0000 -0.1904211562
C   C32       1.0  0.59690  0.77570  0.97840  1.0000 -0.1904211562
C   C33       1.0  0.43910  0.98950  0.91250  1.0000 -0.1988156668
C   C34       1.0  0.56090  0.01050  0.08750  1.0000 -0.1988156668
C   C35       1.0  0.53030  0.08480  0.98830  1.0000 -0.1904211562
C   C36       1.0  0.46970  0.91520  0.01170  1.0000 -0.1904211562
C   C37       1.0  0.46110  0.39490  0.80960  1.0000 -0.1988156668
C   C38       1.0  0.53890  0.60510  0.19040  1.0000 -0.1988156668
C   C39       1.0  0.56570  0.38890  0.89120  1.0000 -0.1591738632
C   C40       1.0  0.43430  0.61110  0.10880  1.0000 -0.1591738632
C   C41       1.0  0.12730  0.21290  0.71780  1.0000 0.1105691937
C   C42       1.0  0.87270  0.78710  0.28220  1.0000 0.1105691937
C   C43       1.0  0.09750  0.92760  0.77210  1.0000 0.1105691937
C   C44       1.0  0.90250  0.07240  0.22790  1.0000 0.1105691937
C   C45       1.0  0.32970  0.19350  0.01100  1.0000 0.1008670681
C   C46       1.0  0.67030  0.80650  0.98900  1.0000 0.1008670681
C   C47       1.0  0.49210  0.01940  0.97660  1.0000 0.0908351409
C   C48       1.0  0.50790  0.98060  0.02340  1.0000 0.0908351409
C   C49       1.0  0.53840  0.42070  0.84380  1.0000 0.1105691937
C   C50       1.0  0.46160  0.57930  0.15620  1.0000 0.1105691937
C   C51       1.0  0.08010  0.24130  0.69010  1.0000 0.1008670681
C   C52       1.0  0.91990  0.75870  0.30990  1.0000 0.1008670681
C   C53       1.0  0.02770  0.89560  0.77120  1.0000 0.0829191395
C   C54       1.0  0.97230  0.10440  0.22880  1.0000 0.0829191395
C   C55       1.0  0.30910  0.21860  0.04640  1.0000 0.0908351409
C   C56       1.0  0.69090  0.78140  0.95360  1.0000 0.0908351409
C   C57       1.0  0.58860  0.47760  0.82890  1.0000 0.0829191395
C   C58       1.0  0.41140  0.52240  0.17110  1.0000 0.0829191395
C   C59       1.0  0.09960  0.30010  0.71400  1.0000 -0.1591738632
C   C60       1.0  0.90040  0.69990  0.28600  1.0000 -0.1591738632
C   C61       1.0  0.01110  0.20860  0.63530  1.0000 -0.1811986707
C   C62       1.0  0.98890  0.79140  0.36470  1.0000 -0.1811986707
C   C63       1.0  0.01800  0.90970  0.81700  1.0000 -0.1381507776
C   C64       1.0  0.98200  0.09030  0.18300  1.0000 -0.1381507776
C   C65       1.0  0.96490  0.84910  0.71570  1.0000 -0.1904211562
C   C66       1.0  0.03510  0.15090  0.28430  1.0000 -0.1904211562
C   C67       1.0  0.24200  0.17990  0.04410  1.0000 -0.1309592226
C   C68       1.0  0.75800  0.82010  0.95590  1.0000 -0.1309592226
C   C69       1.0  0.35350  0.28030  0.08500  1.0000 -0.1811986707
C   C70       1.0  0.64650  0.71970  0.91500  1.0000 -0.1811986707
C   C71       1.0  0.65710  0.52070  0.87370  1.0000 -0.1591738632
C   C72       1.0  0.34290  0.47930  0.12630  1.0000 -0.1591738632
C   C73       1.0  0.56920  0.48170  0.76400  1.0000 -0.1591738632
C   C74       1.0  0.43080  0.51830  0.23600  1.0000 -0.1591738632
C   C75       1.0  0.05210  0.32370  0.68880  1.0000 -0.0416572123
C   C76       1.0  0.94790  0.67630  0.31120  1.0000 -0.0416572123
C   C77       1.0  0.96350  0.23100  0.60860  1.0000 -0.0509651641
C   C78       1.0  0.03650  0.76900  0.39140  1.0000 -0.0509651641
C   C79       1.0  0.94950  0.88400  0.80930  1.0000 -0.0286655436
C   C80       1.0  0.05050  0.11600  0.19070  1.0000 -0.0286655436
C   C81       1.0  0.89750  0.82330  0.71070  1.0000 -0.0509651641
C   C82       1.0  0.10250  0.17670  0.28930  1.0000 -0.0509651641
C   C83       1.0  0.22020  0.20370  0.07590  1.0000 -0.0116490543
C   C84       1.0  0.77980  0.79630  0.92410  1.0000 -0.0116490543
C   C85       1.0  0.33030  0.30070  0.11470  1.0000 -0.0509651641
C   C86       1.0  0.66970  0.69930  0.88530  1.0000 -0.0509651641
C   C87       1.0  0.70450  0.56980  0.85680  1.0000 -0.0199919143
C   C88       1.0  0.29550  0.43020  0.14320  1.0000 -0.0199919143
C   C89       1.0  0.61660  0.52930  0.75060  1.0000 -0.0199919143
C   C90       1.0  0.38340  0.47070  0.24940  1.0000 -0.0199919143
C   C91       1.0  0.98420  0.45700  0.61580  1.0000 -0.0509651641
C   C92       1.0  0.01580  0.54300  0.38420  1.0000 -0.0509651641
C   C93       1.0  0.87120  0.40580  0.51990  1.0000 -0.055485282
C   C94       1.0  0.12880  0.59420  0.48010  1.0000 -0.055485282
C   C95       1.0  0.80880  0.21940  0.47140  1.0000 -0.0509651641
C   C96       1.0  0.19120  0.78060  0.52860  1.0000 -0.0509651641
C   C97       1.0  0.69590  0.16340  0.46520  1.0000 -0.0509651641
C   C98       1.0  0.30410  0.83660  0.53480  1.0000 -0.0509651641
C   C99       1.0  0.67100  0.17220  0.66680  1.0000 -0.0286655436
C   C100      1.0  0.32900  0.82780  0.33320  1.0000 -0.0286655436
C   C101      1.0  0.77340  0.23980  0.76720  1.0000 -0.0416572123
C   C102      1.0  0.22660  0.76020  0.23280  1.0000 -0.0416572123
C   C103      1.0  0.86260  0.12300  0.67710  1.0000 -0.0699276476
C   C104      1.0  0.13740  0.87700  0.32290  1.0000 -0.0699276476
C   C105      1.0  0.73970  0.08560  0.60960  1.0000 -0.0416572123
C   C106      1.0  0.26030  0.91440  0.39040  1.0000 -0.0416572123
C   C107      1.0  0.63400  0.24850  0.51920  1.0000 -0.0509651641
C   C108      1.0  0.36600  0.75150  0.48080  1.0000 -0.0509651641
C   C109      1.0  0.71710  0.36030  0.55050  1.0000 -0.0509651641
C   C110      1.0  0.28290  0.63970  0.44950  1.0000 -0.055485282
C   C111      1.0  0.92810  0.22680  0.80850  1.0000 -0.0199919143
C   C112      1.0  0.07190  0.77320  0.19150  1.0000 -0.0199919143
C   C113      1.0  0.01940  0.33540  0.83110  1.0000 -0.0416572123
C   C114      1.0  0.98060  0.66460  0.16890  1.0000 -0.0416572123
C   C115      1.0  0.68180  0.84980  0.70230  1.0000 -0.0509651641
C   C116      1.0  0.31820  0.15020  0.29770  1.0000 -0.0509651641
C   C117      1.0  0.79650  0.90710  0.79670  1.0000 -0.0116490543
C   C118      1.0  0.20350  0.09290  0.20330  1.0000 -0.0116490543
C   C119      1.0  0.86250  0.65980  0.73910  1.0000 -0.0286655436
C   C120      1.0  0.13750  0.34020  0.26090  1.0000 -0.0286655436
C   C121      1.0  0.73950  0.58510  0.66880  1.0000 -0.0199919143
C   C122      1.0  0.26050  0.41490  0.33120  1.0000 -0.0199919143
C   C123      1.0  0.72210  0.79450  0.60550  1.0000 -0.0871740467
C   C124      1.0  0.27790  0.20550  0.39450  1.0000 -0.0871740467
C   C125      1.0  0.64320  0.68280  0.56570  1.0000 -0.0509651641
C   C126      1.0  0.35680  0.31720  0.43430  1.0000 -0.0509651641
C   C127      1.0  0.55260  0.70190  0.70920  1.0000 -0.0416572123
C   C128      1.0  0.44740  0.29810  0.29080  1.0000 -0.0416572123
C   C129      1.0  0.52660  0.61830  0.64190  1.0000 -0.0199919143
C   C130      1.0  0.47340  0.38170  0.35810  1.0000 -0.0199919143
C   C131      1.0  0.10710  0.32230  0.09490  1.0000 -0.0509651641
C   C132      1.0  0.89290  0.67770  0.90510  1.0000 -0.0509651641
C   C133      1.0  0.07170  0.21580  0.06570  1.0000 -0.0286655436
C   C134      1.0  0.92830  0.78420  0.93430  1.0000 -0.0286655436
C   C135      1.0  0.01860  0.48900  0.58540  1.0000 -0.1811986707
C   C136      1.0  0.98140  0.51100  0.41460  1.0000 -0.1811986707
C   C137      1.0  0.90690  0.43820  0.48730  1.0000 -0.1811986707
C   C138      1.0  0.09310  0.56180  0.51270  1.0000 -0.1811986707
C   C139      1.0  0.79360  0.17010  0.43910  1.0000 -0.1811986707
C   C140      1.0  0.20640  0.82990  0.56090  1.0000 -0.1811986707
C   C141      1.0  0.68040  0.11280  0.43070  1.0000 -0.1811986707
C   C142      1.0  0.31960  0.88720  0.56930  1.0000 -0.1811986707
C   C143      1.0  0.62530  0.17330  0.68520  1.0000 -0.2088287584
C   C144      1.0  0.37470  0.82670  0.31480  1.0000 -0.2088287584
C   C145      1.0  0.72670  0.24160  0.78290  1.0000 -0.1591738632
C   C146      1.0  0.27330  0.75840  0.21710  1.0000 -0.1591738632
C   C147      1.0  0.84750  0.06920  0.70340  1.0000 -0.1309592226
C   C148      1.0  0.15250  0.93080  0.29660  1.0000 -0.1309592226
C   C149      1.0  0.72020  0.02950  0.63480  1.0000 -0.1988156668
C   C150      1.0  0.27980  0.97050  0.36520  1.0000 -0.1988156668
C   C151      1.0  0.58370  0.25660  0.46580  1.0000 -0.1904211562
C   C152      1.0  0.41630  0.74340  0.53420  1.0000 -0.1904211562
C   C153      1.0  0.66910  0.37040  0.50000  1.0000 -0.1591738632
C   C154      1.0  0.33090  0.62960  0.50000  1.0000 -0.1591738632
C   C155      1.0  0.95200  0.22610  0.86990  1.0000 -0.1591738632
C   C156      1.0  0.04800  0.77390  0.13010  1.0000 -0.1591738632
C   C157      1.0  0.04530  0.33710  0.89380  1.0000 -0.1591738632
C   C158      1.0  0.95470  0.66290  0.10620  1.0000 -0.1591738632
C   C159      1.0  0.69480  0.90490  0.67770  1.0000 -0.1904211562
C   C160      1.0  0.30520  0.09510  0.32230  1.0000 -0.1904211562
C   C161      1.0  0.80900  0.96280  0.77270  1.0000 -0.1508623323
C   C162      1.0  0.19100  0.03720  0.22730  1.0000 -0.1508623323
C   C163      1.0  0.88360  0.61380  0.74870  1.0000 -0.1904211562
C   C164      1.0  0.11640  0.38620  0.25130  1.0000 -0.1904211562
C   C165      1.0  0.75690  0.53770  0.67320  1.0000 -0.1591738632
C   C166      1.0  0.24310  0.46230  0.32680  1.0000 -0.1591738632
C   C167      1.0  0.72480  0.80150  0.54930  1.0000 -0.1704956832
C   C168      1.0  0.27520  0.19850  0.45070  1.0000 -0.1704956832
C   C169      1.0  0.64820  0.68900  0.51200  1.0000 -0.1591738632
C   C170      1.0  0.35180  0.31100  0.48800  1.0000 -0.1591738632
C   C171      1.0  0.49350  0.70510  0.65840  1.0000 -0.1904211562
C   C172      1.0  0.50650  0.29490  0.34160  1.0000 -0.1904211562
C   C173      1.0  0.46890  0.62330  0.59240  1.0000 -0.1988156668
C   C174      1.0  0.53110  0.37670  0.40760  1.0000 -0.1988156668
C   C175      1.0  0.07840  0.32870  0.03340  1.0000 -0.1508623323
C   C176      1.0  0.92160  0.67130  0.96660  1.0000 -0.1508623323
C   C177      1.0  0.04060  0.22040  0.00230  1.0000 -0.1309592226
C   C178      1.0  0.95940  0.77960  0.99770  1.0000 -0.1309592226
C   C179      1.0  0.98000  0.48200  0.51730  1.0000 0.0908351409
C   C180      1.0  0.02000  0.51800  0.48270  1.0000 0.0908351409
C   C181      1.0  0.72770  0.11260  0.41820  1.0000 0.0659775921
C   C182      1.0  0.27230  0.88740  0.58180  1.0000 0.0659775921
C   C183      1.0  0.65170  0.20990  0.74290  1.0000 0.1008670681
C   C184      1.0  0.34830  0.79010  0.25710  1.0000 0.1008670681
C   C185      1.0  0.77700  0.02180  0.68270  1.0000 0.1008670681
C   C186      1.0  0.22300  0.97820  0.31730  1.0000 0.1008670681
C   C187      1.0  0.60040  0.31860  0.45470  1.0000 0.0908351409
C   C188      1.0  0.39960  0.68140  0.54530  1.0000 0.0908351409
C   C189      1.0  0.01260  0.27990  0.91550  1.0000 0.1105691937
C   C190      1.0  0.98740  0.72010  0.08450  1.0000 0.1105691937
C   C191      1.0  0.75940  0.96250  0.71150  1.0000 0.1008670681
C   C192      1.0  0.24060  0.03750  0.28850  1.0000 0.1008670681
C   C193      1.0  0.82970  0.55090  0.71400  1.0000 0.1008670681
C   C194      1.0  0.17030  0.44910  0.28600  1.0000 0.1008670681
C   C195      1.0  0.69230  0.75050  0.50400  1.0000 0.0908351409
C   C196      1.0  0.30770  0.24950  0.49600  1.0000 0.0908351409
C   C197      1.0  0.45260  0.66950  0.60000  1.0000 0.0908351409
C   C198      1.0  0.54740  0.33050  0.40000  1.0000 0.0908351409
C   C199      1.0  0.04320  0.27470  0.98420  1.0000 0.0829191395
C   C200      1.0  0.95680  0.72530  0.01580  1.0000 0.0829191395
C   C201      1.0  0.70970  0.05210  0.38220  1.0000 0.1008670681
C   C202      1.0  0.29030  0.94790  0.61780  1.0000 0.1008670681
C   C203      1.0  0.60030  0.21470  0.75580  1.0000 0.0829191395
C   C204      1.0  0.39970  0.78530  0.24420  1.0000 0.0829191395
C   C205      1.0  0.84550  0.49850  0.72120  1.0000 0.0908351409
C   C206      1.0  0.15450  0.50150  0.27880  1.0000 0.0908351409
C   C207      1.0  0.69310  0.75990  0.44360  1.0000 0.1008670681
C   C208      1.0  0.30690  0.24010  0.55640  1.0000 0.1008670681
C   C209      1.0  0.64160  0.01270  0.33120  1.0000 -0.1811986707
C   C210      1.0  0.35840  0.98730  0.66880  1.0000 -0.1811986707
C   C211      1.0  0.76320  0.03240  0.40460  1.0000 -0.1988156668
C   C212      1.0  0.23680  0.96760  0.59540  1.0000 -0.1988156668
C   C213      1.0  0.61970  0.23450  0.81730  1.0000 -0.1811986707
C   C214      1.0  0.38030  0.76550  0.18270  1.0000 -0.1811986707
C   C215      1.0  0.53460  0.20340  0.70830  1.0000 -0.1704956832
C   C216      1.0  0.46540  0.79660  0.29170  1.0000 -0.1704956832
C   C217      1.0  0.91290  0.50690  0.73490  1.0000 -0.1904211562
C   C218      1.0  0.08710  0.49310  0.26510  1.0000 -0.1904211562
C   C219      1.0  0.79260  0.43540  0.71500  1.0000 -0.1591738632
C   C220      1.0  0.20740  0.56460  0.28500  1.0000 -0.1591738632
C   C221      1.0  0.63360  0.71720  0.38560  1.0000 -0.1591738632
C   C222      1.0  0.36640  0.28280  0.61440  1.0000 -0.1591738632
C   C223      1.0  0.75150  0.81240  0.44010  1.0000 -0.1904211562
C   C224      1.0  0.24850  0.18760  0.55990  1.0000 -0.1904211562
C   C225      1.0  0.62480  0.95560  0.30280  1.0000 -0.0509651641
C   C226      1.0  0.37520  0.04440  0.69720  1.0000 -0.0509651641
C   C227      1.0  0.74400  0.97500  0.37640  1.0000 -0.0509651641
C   C228      1.0  0.25600  0.02500  0.62360  1.0000 -0.0509651641
C   C229      1.0  0.57040  0.23950  0.82890  1.0000 -0.0116490543
C   C230      1.0  0.42960  0.76050  0.17110  1.0000 -0.0116490543
C   C231      1.0  0.48380  0.20960  0.71820  1.0000 -0.0286655436
C   C232      1.0  0.51620  0.79040  0.28180  1.0000 -0.0286655436
C   C233      1.0  0.92620  0.45690  0.73930  1.0000 -0.0416572123
C   C234      1.0  0.07380  0.54310  0.26070  1.0000 -0.0416572123
C   C235      1.0  0.80610  0.38700  0.71850  1.0000 -0.0416572123
C   C236      1.0  0.19390  0.61300  0.28150  1.0000 -0.0416572123
C   C237      1.0  0.63490  0.72940  0.33010  1.0000 -0.0286655436
C   C238      1.0  0.36510  0.27060  0.66990  1.0000 -0.0286655436
C   C239      1.0  0.74970  0.82170  0.38380  1.0000 -0.0509651641
C   C240      1.0  0.25030  0.17830  0.61620  1.0000 -0.0509651641
C   C241      1.0  0.25250  0.56520  0.13910  1.0000 0.4826520869
C   C242      1.0  0.74750  0.43480  0.86090  1.0000 0.4826520869
C   C243      1.0  0.43910  0.67250  0.39220  1.0000 0.4977537084
C   C244      1.0  0.56090  0.32750  0.60780  1.0000 0.4977537084
C   C245      1.0  0.81870  0.06170  0.92440  1.0000 0.4977537084
C   C246      1.0  0.18130  0.93830  0.07560  1.0000 0.4977537084
C   C247      1.0  0.94450  0.92320  0.15350  1.0000 0.4977537084
C   C248      1.0  0.05550  0.07680  0.84650  1.0000 0.4977537084
S   S1        1.0  0.20040  0.53950  0.05310  1.0000 0.9719166943
S   S2        1.0  0.79960  0.46050  0.94690  1.0000 0.9719166943
S   S3        1.0  0.43150  0.61820  0.33720  1.0000 0.976331968
S   S4        1.0  0.56850  0.38180  0.66280  1.0000 0.976331968
S   S5        1.0  0.86020  0.02540  0.98890  1.0000 0.9894842096
S   S6        1.0  0.13980  0.97460  0.01110  1.0000 0.9894842096
S   S7        1.0  0.95580  0.85520  0.14460  1.0000 0.9894842096
S   S8        1.0  0.04420  0.14480  0.85540  1.0000 0.9894842096
N   N1        1.0  0.21220  0.15390  0.76930  1.0000 0.3196846192
N   N2        1.0  0.78780  0.84610  0.23070  1.0000 0.3196846192
N   N3        1.0  0.23030  0.00160  0.77540  1.0000 0.2896518745
N   N4        1.0  0.76970  0.99840  0.22460  1.0000 0.2896518745
N   N5        1.0  0.36410  0.14970  0.93670  1.0000 0.3116538332
N   N6        1.0  0.63590  0.85030  0.06330  1.0000 0.3116538332
N   N7        1.0  0.46380  0.09000  0.88080  1.0000 0.3196846192
N   N8        1.0  0.53620  0.91000  0.11920  1.0000 0.3196846192
N   N9        1.0  0.44530  0.30660  0.86060  1.0000 0.3033859023
N   N10       1.0  0.55470  0.69340  0.13940  1.0000 0.3033859023
N   N11       1.0  0.98540  0.29010  0.63700  1.0000 0.3295446971
N   N12       1.0  0.01460  0.70990  0.36300  1.0000 0.3295446971
N   N13       1.0  0.89020  0.84230  0.75610  1.0000 0.3353489229
N   N14       1.0  0.10980  0.15770  0.24390  1.0000 0.3353489229
N   N15       1.0  0.26390  0.26400  0.10900  1.0000 0.3295446971
N   N16       1.0  0.73610  0.73600  0.89100  1.0000 0.3295446971
N   N17       1.0  0.68370  0.57300  0.79600  1.0000 0.3116538332
N   N18       1.0  0.31630  0.42700  0.20400  1.0000 0.3116538332
N   N19       1.0  0.91080  0.41510  0.58450  1.0000 0.3116538332
N   N20       1.0  0.08920  0.58490  0.41550  1.0000 0.3033859023
N   N21       1.0  0.76120  0.21610  0.48890  1.0000 0.2609399148
N   N22       1.0  0.23880  0.78390  0.51110  1.0000 0.2609399148
N   N23       1.0  0.74430  0.20690  0.70790  1.0000 0.3196846192
N   N24       1.0  0.25570  0.79310  0.29210  1.0000 0.3196846192
N   N25       1.0  0.80660  0.13050  0.62830  1.0000 0.3196846192
N   N26       1.0  0.19340  0.86950  0.37170  1.0000 0.3196846192
N   N27       1.0  0.69820  0.29780  0.56250  1.0000 0.2824453154
N   N28       1.0  0.30180  0.70220  0.43750  1.0000 0.2824453154
N   N29       1.0  0.96290  0.27880  0.78800  1.0000 0.3116538332
N   N30       1.0  0.03710  0.72120  0.21200  1.0000 0.3116538332
N   N31       1.0  0.73360  0.85120  0.76060  1.0000 0.3196846192
N   N32       1.0  0.26640  0.14880  0.23940  1.0000 0.3196846192
N   N33       1.0  0.79270  0.64460  0.70060  1.0000 0.3196846192
N   N34       1.0  0.20730  0.35540  0.29940  1.0000 0.3196846192
N   N35       1.0  0.67860  0.73380  0.61250  1.0000 0.3451406249
N   N36       1.0  0.32140  0.26620  0.38750  1.0000 0.3451406249
N   N37       1.0  0.56610  0.65710  0.69770  1.0000 0.3116538332
N   N38       1.0  0.43390  0.34290  0.30230  1.0000 0.3116538332
N   N39       1.0  0.10260  0.26490  0.11050  1.0000 0.3295446971
N   N40       1.0  0.89740  0.73510  0.88950  1.0000 0.3295446971
N   N41       1.0  0.67780  0.93930  0.32590  1.0000 0.3116538332
N   N42       1.0  0.32220  0.06070  0.67410  1.0000 0.3116538332
N   N43       1.0  0.50620  0.22880  0.77990  1.0000 0.3196846192
N   N44       1.0  0.49380  0.77120  0.22010  1.0000 0.3196846192
N   N45       1.0  0.87180  0.39700  0.73020  1.0000 0.3196846192
N   N46       1.0  0.12820  0.60300  0.26980  1.0000 0.3196846192
N   N47       1.0  0.69200  0.78030  0.32950  1.0000 0.3295446971
N   N48       1.0  0.30800  0.21970  0.67050  1.0000 0.3295446971
O   O1        1.0  0.25170  0.12550  0.79340  1.0000 -0.6005472022
O   O2        1.0  0.74830  0.87450  0.20660  1.0000 -0.5890714935
O   O3        1.0  0.29570  0.03910  0.77820  1.0000 -0.629864741
O   O4        1.0  0.70430  0.96090  0.22180  1.0000 -0.629864741
O   O5        1.0  0.38050  0.12910  0.90050  1.0000 -0.6107280515
O   O6        1.0  0.61950  0.87090  0.09950  1.0000 -0.6107280515
O   O7        1.0  0.45090  0.12450  0.83570  1.0000 -0.6005472022
O   O8        1.0  0.54910  0.87550  0.16430  1.0000 -0.6005472022
O   O9        1.0  0.39980  0.24610  0.86280  1.0000 -0.6398711017
O   O10       1.0  0.60020  0.75390  0.13720  1.0000 -0.6398711017
O   O11       1.0  0.33960  0.11760  0.70090  1.0000 -0.629864741
O   O12       1.0  0.66040  0.88240  0.29910  1.0000 -0.629864741
O   O13       1.0  0.46040  0.23600  0.79140  1.0000 -0.622837793
O   O14       1.0  0.53960  0.76400  0.20860  1.0000 -0.622837793
O   O15       1.0  0.30830  0.20760  0.72450  1.0000 -0.5890714935
O   O16       1.0  0.69170  0.79240  0.27550  1.0000 -0.5890714935
O   O17       1.0  0.94000  0.31260  0.61450  1.0000 -0.5809445194
O   O18       1.0  0.06000  0.68740  0.38550  1.0000 -0.5809445194
O   O19       1.0  0.82430  0.82000  0.74880  1.0000 -0.6005472022
O   O20       1.0  0.17570  0.18000  0.25120  1.0000 -0.6005472022
O   O21       1.0  0.23910  0.28480  0.13500  1.0000 -0.5890714935
O   O22       1.0  0.76090  0.71520  0.86500  1.0000 -0.5809445194
O   O23       1.0  0.73190  0.61700  0.78080  1.0000 -0.6005472022
O   O24       1.0  0.26810  0.38300  0.21920  1.0000 -0.6005472022
O   O25       1.0  0.87810  0.38570  0.61740  1.0000 -0.5809445194
O   O26       1.0  0.12190  0.61430  0.38260  1.0000 -0.5809445194
O   O27       1.0  0.77820  0.26500  0.52650  1.0000 -0.5809445194
O   O28       1.0  0.22180  0.73500  0.47350  1.0000 -0.5809445194
O   O29       1.0  0.79110  0.20660  0.69200  1.0000 -0.629864741
O   O30       1.0  0.20890  0.79340  0.30800  1.0000 -0.629864741
O   O31       1.0  0.82170  0.18230  0.60330  1.0000 -0.5809445194
O   O32       1.0  0.17830  0.81770  0.39670  1.0000 -0.5809445194
O   O33       1.0  0.74350  0.28840  0.61520  1.0000 -0.5809445194
O   O34       1.0  0.25650  0.71160  0.38480  1.0000 -0.5809445194
O   O35       1.0  0.94320  0.27780  0.72590  1.0000 -0.629864741
O   O36       1.0  0.05680  0.72220  0.27410  1.0000 -0.629864741
O   O37       1.0  0.88260  0.34690  0.73220  1.0000 -0.6107280515
O   O38       1.0  0.11740  0.65310  0.26780  1.0000 -0.6107280515
O   O39       1.0  0.72220  0.79720  0.78530  1.0000 -0.622837793
O   O40       1.0  0.27780  0.20280  0.21470  1.0000 -0.622837793
O   O41       1.0  0.77480  0.68990  0.69560  1.0000 -0.622837793
O   O42       1.0  0.22520  0.31010  0.30440  1.0000 -0.622837793
O   O43       1.0  0.66920  0.72560  0.66150  1.0000 -0.5718808782
O   O44       1.0  0.33080  0.27440  0.33850  1.0000 -0.5718808782
O   O45       1.0  0.62480  0.65530  0.74520  1.0000 -0.622837793
O   O46       1.0  0.37520  0.34470  0.25480  1.0000 -0.622837793
O   O47       1.0  0.86770  0.74030  0.82910  1.0000 -0.6005472022
O   O48       1.0  0.13230  0.25970  0.17090  1.0000 -0.6005472022
O   O49       1.0  0.16460  0.46980  0.04110  1.0000 -0.5613439492
O   O50       1.0  0.14950  0.56340  0.02830  1.0000 -0.5462280623
O   O51       1.0  0.25490  0.56930  0.03250  1.0000 -0.5718808782
O   O52       1.0  0.83540  0.53020  0.95890  1.0000 -0.5613439492
O   O53       1.0  0.85050  0.43660  0.97170  1.0000 -0.5462280623
O   O54       1.0  0.74510  0.43070  0.96750  1.0000 -0.5718808782
O   O55       1.0  0.45070  0.65720  0.29380  1.0000 -0.5613439492
O   O56       1.0  0.48530  0.59950  0.37840  1.0000 -0.5809445194
O   O57       1.0  0.35650  0.56630  0.30850  1.0000 -0.5718808782
O   O58       1.0  0.54930  0.34280  0.70620  1.0000 -0.5613439492
O   O59       1.0  0.51470  0.40050  0.62160  1.0000 -0.5809445194
O   O60       1.0  0.64350  0.43370  0.69150  1.0000 -0.5718808782
O   O61       1.0  0.93700  0.07350  0.02620  1.0000 -0.5718808782
O   O62       1.0  0.82100  0.00800  0.02370  1.0000 -0.5809445194
O   O63       1.0  0.84900  0.96890  0.95780  1.0000 -0.5718808782
O   O64       1.0  0.06300  0.92650  0.97380  1.0000 -0.5809445194
O   O65       1.0  0.17900  0.99200  0.97630  1.0000 -0.5809445194
O   O66       1.0  0.15100  0.03110  0.04220  1.0000 -0.5718808782
O   O67       1.0  0.96910  0.83100  0.20300  1.0000 -0.5718808782
O   O68       1.0  0.01840  0.88390  0.13430  1.0000 -0.5718808782
O   O69       1.0  0.88730  0.81030  0.08920  1.0000 -0.5718808782
O   O70       1.0  0.03090  0.16900  0.79700  1.0000 -0.5718808782
O   O71       1.0  0.98160  0.11610  0.86570  1.0000 -0.5718808782
O   O72       1.0  0.11270  0.18970  0.91080  1.0000 -0.5718808782
F   F1        1.0  0.23260  0.59980  0.15680  1.0000 -0.1811986707
F   F2        1.0  0.32390  0.60130  0.15950  1.0000 -0.1811986707
F   F3        1.0  0.24230  0.51490  0.16790  1.0000 -0.1704956832
F   F4        1.0  0.76740  0.40020  0.84320  1.0000 -0.1811986707
F   F5        1.0  0.67610  0.39870  0.84050  1.0000 -0.1811986707
F   F6        1.0  0.75770  0.48510  0.83210  1.0000 -0.1704956832
F   F7        1.0  0.39060  0.69140  0.36070  1.0000 -0.1904211562
F   F8        1.0  0.42600  0.64130  0.43560  1.0000 -0.1988156668
F   F9        1.0  0.50590  0.72390  0.41980  1.0000 -0.1988156668
F   F10       1.0  0.60940  0.30860  0.63930  1.0000 -0.1904211562
F   F11       1.0  0.57400  0.35870  0.56440  1.0000 -0.1988156668
F   F12       1.0  0.49410  0.27610  0.58020  1.0000 -0.1988156668
F   F13       1.0  0.84520  0.07270  0.88550  1.0000 -0.1904211562
F   F14       1.0  0.83180  0.11680  0.94770  1.0000 -0.1988156668
F   F15       1.0  0.74690  0.02280  0.89030  1.0000 -0.1811986707
F   F16       1.0  0.15480  0.92730  0.11450  1.0000 -0.1904211562
F   F17       1.0  0.16820  0.88320  0.05230  1.0000 -0.1988156668
F   F18       1.0  0.25310  0.97720  0.10970  1.0000 -0.1811986707
F   F19       1.0  0.92430  0.94480  0.09910  1.0000 -0.1704956832
F   F20       1.0  0.00750  0.97060  0.19820  1.0000 -0.1988156668
F   F21       1.0  0.89320  0.90460  0.16900  1.0000 -0.1988156668
F   F22       1.0  0.07570  0.05520  0.90090  1.0000 -0.1704956832
F   F23       1.0  0.99250  0.02940  0.80180  1.0000 -0.1988156668
F   F24       1.0  0.10680  0.09540  0.83100  1.0000 -0.1988156668
