# DDEC6 charges by PACMAN v1.1 (https://github.com/mtap-research/PACMAN-charge/)
data_2014[Er][nan]3[ION]1
_chemical_formula_sum              "Er6 H192 C248 S8 N48 O72 F24"
_cell_length_a       24.001
_cell_length_b       24.1423
_cell_length_c       24.3564
_cell_angle_alpha    85.626
_cell_angle_beta     118.681
_cell_angle_gamma    119.056

_symmetry_space_group_name_H-M    "P 1"
_symmetry_Int_Tables_number       1

loop_
  _symmetry_equiv_pos_as_xyz
  'x, y, z'

loop_
  _atom_site_type_symbol
  _atom_site_label
  _atom_site_symmetry_multiplicity
  _atom_site_fract_x
  _atom_site_fract_y
  _atom_site_fract_z
  _atom_site_occupancy
  _atom_site_charge
Er  Er1       1.0  0.36359  0.15476  0.80109  1.0000 1.917220402
Er  Er2       1.0  0.63641  0.84524  0.19891  1.0000 1.917220402
Er  Er3       1.0  0.85074  0.28508  0.64381  1.0000 1.914467919
Er  Er4       1.0  0.14926  0.71492  0.35619  1.0000 1.914467919
Er  Er5       1.0  0.74470  0.71940  0.76039  1.0000 1.9035150291
Er  Er6       1.0  0.25530  0.28060  0.23961  1.0000 1.9035150291
H   H1        1.0  0.27600  0.22620  0.84810  1.0000 0.1208139641
H   H2        1.0  0.72400  0.77380  0.15190  1.0000 0.1208139641
H   H3        1.0  0.14350  0.09200  0.68700  1.0000 0.1103797027
H   H4        1.0  0.85650  0.90800  0.31300  1.0000 0.1103797027
H   H5        1.0  0.27730  0.99440  0.86680  1.0000 0.1299461669
H   H6        1.0  0.72270  0.00560  0.13320  1.0000 0.1299461669
H   H7        1.0  0.17430  0.00030  0.68430  1.0000 0.1103797027
H   H8        1.0  0.82570  0.99970  0.31570  1.0000 0.1103797027
H   H9        1.0  0.25920  0.08490  0.89140  1.0000 0.1208139641
H   H10       1.0  0.74080  0.91510  0.10860  1.0000 0.1208139641
H   H11       1.0  0.46970  0.22360  0.99440  1.0000 0.1208139641
H   H12       1.0  0.53030  0.77640  0.00560  1.0000 0.1208139641
H   H13       1.0  0.39290  0.00440  0.82140  1.0000 0.1299461669
H   H14       1.0  0.60710  0.99560  0.17860  1.0000 0.1299461669
H   H15       1.0  0.54330  0.16860  0.95250  1.0000 0.1208139641
H   H16       1.0  0.45670  0.83140  0.04750  1.0000 0.1208139641
H   H17       1.0  0.36500  0.32000  0.79880  1.0000 0.1299461669
H   H18       1.0  0.63500  0.68000  0.20120  1.0000 0.1208139641
H   H19       1.0  0.54040  0.31390  0.93170  1.0000 0.1208139641
H   H20       1.0  0.45960  0.68610  0.06830  1.0000 0.1208139641
H   H21       1.0  0.20230  0.27320  0.80700  1.0000 0.1299461669
H   H22       1.0  0.79770  0.72680  0.19300  1.0000 0.1299461669
H   H23       1.0  0.07140  0.13810  0.64350  1.0000 0.1208139641
H   H24       1.0  0.92860  0.86190  0.35650  1.0000 0.1208139641
H   H25       1.0  0.16590  0.93020  0.86330  1.0000 0.1556402029
H   H26       1.0  0.83410  0.06980  0.13670  1.0000 0.1556402029
H   H27       1.0  0.05840  0.93470  0.67620  1.0000 0.1299461669
H   H28       1.0  0.94160  0.06530  0.32380  1.0000 0.1299461669
H   H29       1.0  0.22960  0.11710  0.95500  1.0000 0.1400389479
H   H30       1.0  0.77040  0.88290  0.04500  1.0000 0.1400389479
H   H31       1.0  0.44230  0.25960  0.05930  1.0000 0.1208139641
H   H32       1.0  0.55770  0.74040  0.94070  1.0000 0.1208139641
H   H33       1.0  0.41500  0.94500  0.90010  1.0000 0.1299461669
H   H34       1.0  0.58500  0.05500  0.09990  1.0000 0.1299461669
H   H35       1.0  0.56960  0.10940  0.03510  1.0000 0.1299461669
H   H36       1.0  0.43040  0.89060  0.96490  1.0000 0.1299461669
H   H37       1.0  0.43990  0.41770  0.78420  1.0000 0.1400389479
H   H38       1.0  0.56010  0.58230  0.21580  1.0000 0.1400389479
H   H39       1.0  0.61850  0.40910  0.91930  1.0000 0.1299461669
H   H40       1.0  0.38150  0.59090  0.08070  1.0000 0.1299461669
H   H41       1.0  0.14860  0.32420  0.75700  1.0000 0.1400389479
H   H42       1.0  0.85140  0.67580  0.24300  1.0000 0.1400389479
H   H43       1.0  0.99380  0.16530  0.61730  1.0000 0.1299461669
H   H44       1.0  0.00620  0.83470  0.38270  1.0000 0.1299461669
H   H45       1.0  0.05990  0.94040  0.85490  1.0000 0.1501016052
H   H46       1.0  0.94010  0.05960  0.14510  1.0000 0.1501016052
H   H47       1.0  0.96400  0.83470  0.68000  1.0000 0.1299461669
H   H48       1.0  0.03600  0.16530  0.32000  1.0000 0.1299461669
H   H49       1.0  0.21290  0.13400  0.02460  1.0000 0.1400389479
H   H50       1.0  0.78710  0.86600  0.97540  1.0000 0.1400389479
H   H51       1.0  0.40480  0.31280  0.09540  1.0000 0.1299461669
H   H52       1.0  0.59520  0.68720  0.90460  1.0000 0.1299461669
H   H53       1.0  0.67390  0.52230  0.91630  1.0000 0.1299461669
H   H54       1.0  0.32610  0.47770  0.08370  1.0000 0.1299461669
H   H55       1.0  0.51890  0.44970  0.73370  1.0000 0.1400389479
H   H56       1.0  0.48110  0.55030  0.26630  1.0000 0.1400389479
H   H57       1.0  0.07240  0.36640  0.71110  1.0000 0.1208139641
H   H58       1.0  0.92760  0.63360  0.28890  1.0000 0.1208139641
H   H59       1.0  0.91940  0.20640  0.57470  1.0000 0.1208139641
H   H60       1.0  0.08060  0.79360  0.42530  1.0000 0.1208139641
H   H61       1.0  0.94560  0.89230  0.84270  1.0000 0.1299461669
H   H62       1.0  0.05440  0.10770  0.15730  1.0000 0.1299461669
H   H63       1.0  0.85350  0.79260  0.67210  1.0000 0.1208139641
H   H64       1.0  0.14650  0.20740  0.32790  1.0000 0.1299461669
H   H65       1.0  0.17360  0.17370  0.07450  1.0000 0.1299461669
H   H66       1.0  0.82640  0.82630  0.92550  1.0000 0.1299461669
H   H67       1.0  0.36150  0.34400  0.14280  1.0000 0.1208139641
H   H68       1.0  0.63850  0.65600  0.85720  1.0000 0.1208139641
H   H69       1.0  0.75270  0.60610  0.88890  1.0000 0.1208139641
H   H70       1.0  0.24730  0.39390  0.11110  1.0000 0.1208139641
H   H71       1.0  0.59670  0.52950  0.70430  1.0000 0.1299461669
H   H72       1.0  0.40330  0.47050  0.29570  1.0000 0.1299461669
H   H73       1.0  0.01760  0.46250  0.66260  1.0000 0.1299461669
H   H74       1.0  0.98240  0.53750  0.33740  1.0000 0.1299461669
H   H75       1.0  0.82160  0.37810  0.50150  1.0000 0.1299461669
H   H76       1.0  0.17840  0.62190  0.49850  1.0000 0.1299461669
H   H77       1.0  0.85850  0.25990  0.49000  1.0000 0.1208139641
H   H78       1.0  0.14150  0.74010  0.51000  1.0000 0.1208139641
H   H79       1.0  0.66190  0.16150  0.47720  1.0000 0.1208139641
H   H80       1.0  0.33810  0.83850  0.52280  1.0000 0.1208139641
H   H81       1.0  0.65690  0.15070  0.63210  1.0000 0.1299461669
H   H82       1.0  0.34310  0.84930  0.36790  1.0000 0.1299461669
H   H83       1.0  0.82760  0.26300  0.79790  1.0000 0.1299461669
H   H84       1.0  0.17240  0.73700  0.20210  1.0000 0.1299461669
H   H85       1.0  0.91210  0.15790  0.69090  1.0000 0.1208139641
H   H86       1.0  0.08790  0.84210  0.30910  1.0000 0.1208139641
H   H87       1.0  0.69890  0.08880  0.57380  1.0000 0.1103797027
H   H88       1.0  0.30110  0.91120  0.42620  1.0000 0.1103797027
H   H89       1.0  0.62440  0.20580  0.52620  1.0000 0.1208139641
H   H90       1.0  0.37560  0.79420  0.47380  1.0000 0.1208139641
H   H91       1.0  0.76920  0.39790  0.58830  1.0000 0.1103797027
H   H92       1.0  0.23080  0.60210  0.41170  1.0000 0.1103797027
H   H93       1.0  0.88750  0.19190  0.77640  1.0000 0.1208139641
H   H94       1.0  0.11250  0.80810  0.22360  1.0000 0.1208139641
H   H95       1.0  0.04330  0.37620  0.82090  1.0000 0.1299461669
H   H96       1.0  0.95670  0.62380  0.17910  1.0000 0.1299461669
H   H97       1.0  0.63640  0.80750  0.67600  1.0000 0.1208139641
H   H98       1.0  0.36360  0.19250  0.32400  1.0000 0.1208139641
H   H99       1.0  0.82880  0.90670  0.83740  1.0000 0.1400389479
H   H100      1.0  0.17120  0.09330  0.16260  1.0000 0.1400389479
H   H101      1.0  0.90070  0.70670  0.75510  1.0000 0.1208139641
H   H102      1.0  0.09930  0.29330  0.24490  1.0000 0.1208139641
H   H103      1.0  0.68940  0.57450  0.64090  1.0000 0.1299461669
H   H104      1.0  0.31060  0.42550  0.35910  1.0000 0.1299461669
H   H105      1.0  0.74700  0.83080  0.63700  1.0000 0.1208139641
H   H106      1.0  0.25300  0.16920  0.36300  1.0000 0.1208139641
H   H107      1.0  0.61590  0.63810  0.56940  1.0000 0.1208139641
H   H108      1.0  0.38410  0.36190  0.43060  1.0000 0.1208139641
H   H109      1.0  0.57810  0.72510  0.74710  1.0000 0.1299461669
H   H110      1.0  0.42190  0.27490  0.25290  1.0000 0.1299461669
H   H111      1.0  0.53550  0.58600  0.63170  1.0000 0.1208139641
H   H112      1.0  0.46450  0.41400  0.36830  1.0000 0.1208139641
H   H113      1.0  0.12920  0.35870  0.13050  1.0000 0.1299461669
H   H114      1.0  0.87080  0.64130  0.86950  1.0000 0.1299461669
H   H115      1.0  0.07320  0.17720  0.07850  1.0000 0.1299461669
H   H116      1.0  0.92680  0.82280  0.92150  1.0000 0.1299461669
H   H117      1.0  0.07290  0.51320  0.60680  1.0000 0.1299461669
H   H118      1.0  0.92710  0.48680  0.39320  1.0000 0.1299461669
H   H119      1.0  0.87850  0.43030  0.44410  1.0000 0.1299461669
H   H120      1.0  0.12150  0.56970  0.55590  1.0000 0.1299461669
H   H121      1.0  0.82940  0.17270  0.42930  1.0000 0.1400389479
H   H122      1.0  0.17060  0.82730  0.57070  1.0000 0.1400389479
H   H123      1.0  0.63220  0.07520  0.41340  1.0000 0.1400389479
H   H124      1.0  0.36780  0.92480  0.58660  1.0000 0.1400389479
H   H125      1.0  0.57660  0.15190  0.65700  1.0000 0.1400389479
H   H126      1.0  0.42340  0.84810  0.34300  1.0000 0.1400389479
H   H127      1.0  0.75300  0.26800  0.82820  1.0000 0.1400389479
H   H128      1.0  0.24700  0.73200  0.17180  1.0000 0.1400389479
H   H129      1.0  0.89040  0.06930  0.73800  1.0000 0.1299461669
H   H130      1.0  0.10960  0.93070  0.26200  1.0000 0.1299461669
H   H131      1.0  0.66820  0.99610  0.61760  1.0000 0.1400389479
H   H132      1.0  0.33180  0.00390  0.38240  1.0000 0.1400389479
H   H133      1.0  0.54240  0.22370  0.43850  1.0000 0.1299461669
H   H134      1.0  0.45760  0.77630  0.56150  1.0000 0.1299461669
H   H135      1.0  0.68470  0.41540  0.49720  1.0000 0.1299461669
H   H136      1.0  0.31530  0.58460  0.50280  1.0000 0.1299461669
H   H137      1.0  0.93150  0.18940  0.88560  1.0000 0.1400389479
H   H138      1.0  0.06850  0.81060  0.11440  1.0000 0.1400389479
H   H139      1.0  0.09000  0.37830  0.92910  1.0000 0.1208139641
H   H140      1.0  0.91000  0.62170  0.07090  1.0000 0.1208139641
H   H141      1.0  0.65540  0.90040  0.63380  1.0000 0.1299461669
H   H142      1.0  0.34460  0.09960  0.36620  1.0000 0.1299461669
H   H143      1.0  0.85540  0.00120  0.79750  1.0000 0.1400389479
H   H144      1.0  0.14460  0.99880  0.20250  1.0000 0.1400389479
H   H145      1.0  0.93510  0.62840  0.77510  1.0000 0.1299461669
H   H146      1.0  0.06490  0.37160  0.22490  1.0000 0.1299461669
H   H147      1.0  0.72020  0.49170  0.65270  1.0000 0.1400389479
H   H148      1.0  0.27980  0.50830  0.34730  1.0000 0.1400389479
H   H149      1.0  0.75080  0.84390  0.54100  1.0000 0.1208139641
H   H150      1.0  0.24920  0.15610  0.45900  1.0000 0.1208139641
H   H151      1.0  0.62570  0.65010  0.47660  1.0000 0.1299461669
H   H152      1.0  0.37430  0.34990  0.52340  1.0000 0.1299461669
H   H153      1.0  0.48170  0.73530  0.66400  1.0000 0.1400389479
H   H154      1.0  0.51830  0.26470  0.33600  1.0000 0.1400389479
H   H155      1.0  0.43640  0.59410  0.54520  1.0000 0.1400389479
H   H156      1.0  0.56360  0.40590  0.45480  1.0000 0.1400389479
H   H157      1.0  0.08770  0.37010  0.02690  1.0000 0.1299461669
H   H158      1.0  0.91230  0.62990  0.97310  1.0000 0.1299461669
H   H159      1.0  0.01790  0.18450  0.97150  1.0000 0.1501016052
H   H160      1.0  0.98210  0.81550  0.02850  1.0000 0.1501016052
H   H161      1.0  0.60370  0.02300  0.31280  1.0000 0.1400389479
H   H162      1.0  0.39630  0.97700  0.68720  1.0000 0.1400389479
H   H163      1.0  0.81010  0.06020  0.43750  1.0000 0.1299461669
H   H164      1.0  0.18990  0.93980  0.56250  1.0000 0.1299461669
H   H165      1.0  0.67230  0.25020  0.85590  1.0000 0.1208139641
H   H166      1.0  0.32770  0.74980  0.14410  1.0000 0.1208139641
H   H167      1.0  0.52020  0.19050  0.66700  1.0000 0.1299461669
H   H168      1.0  0.47980  0.80950  0.33300  1.0000 0.1299461669
H   H169      1.0  0.95120  0.55260  0.73780  1.0000 0.1208139641
H   H170      1.0  0.04880  0.44740  0.26220  1.0000 0.1208139641
H   H171      1.0  0.75110  0.43010  0.71300  1.0000 0.2342672677
H   H172      1.0  0.24890  0.56990  0.28700  1.0000 0.2342672677
H   H173      1.0  0.59070  0.67860  0.38370  1.0000 0.1400389479
H   H174      1.0  0.40930  0.32140  0.61630  1.0000 0.1400389479
H   H175      1.0  0.79170  0.83950  0.47650  1.0000 0.1299461669
H   H176      1.0  0.20830  0.16050  0.52350  1.0000 0.1299461669
H   H177      1.0  0.57730  0.92970  0.26300  1.0000 0.1208139641
H   H178      1.0  0.42270  0.07030  0.73700  1.0000 0.1208139641
H   H179      1.0  0.78120  0.96380  0.39340  1.0000 0.1103797027
H   H180      1.0  0.21880  0.03620  0.60660  1.0000 0.1103797027
H   H181      1.0  0.58610  0.24940  0.87580  1.0000 0.1103797027
H   H182      1.0  0.41390  0.75060  0.12420  1.0000 0.1103797027
H   H183      1.0  0.44240  0.20670  0.68690  1.0000 0.1208139641
H   H184      1.0  0.55760  0.79330  0.31310  1.0000 0.1208139641
H   H185      1.0  0.97680  0.46910  0.75070  1.0000 0.1208139641
H   H186      1.0  0.02320  0.53090  0.24930  1.0000 0.1208139641
H   H187      1.0  0.77240  0.34470  0.71780  1.0000 0.1208139641
H   H188      1.0  0.22760  0.65530  0.28220  1.0000 0.1208139641
H   H189      1.0  0.59110  0.70120  0.28660  1.0000 0.1208139641
H   H190      1.0  0.40890  0.29880  0.71340  1.0000 0.1208139641
H   H191      1.0  0.79080  0.85510  0.38280  1.0000 0.1208139641
H   H192      1.0  0.20920  0.14490  0.61720  1.0000 0.1208139641
C   C1        1.0  0.23330  0.20820  0.80650  1.0000 -0.0095700153
C   C2        1.0  0.76670  0.79180  0.19350  1.0000 -0.0095700153
C   C3        1.0  0.15510  0.12900  0.71110  1.0000 -0.0493915666
C   C4        1.0  0.84490  0.87100  0.28890  1.0000 -0.0493915666
C   C5        1.0  0.23220  0.98270  0.82830  1.0000 -0.0304131574
C   C6        1.0  0.76780  0.01730  0.17170  1.0000 -0.0304131574
C   C7        1.0  0.17140  0.98610  0.72080  1.0000 -0.0569556013
C   C8        1.0  0.82860  0.01390  0.27920  1.0000 -0.0569556013
C   C9        1.0  0.29670  0.12050  0.92650  1.0000 -0.0304131574
C   C10       1.0  0.70330  0.87950  0.07350  1.0000 -0.0304131574
C   C11       1.0  0.42060  0.20210  0.98660  1.0000 -0.0396309917
C   C12       1.0  0.57940  0.79790  0.01340  1.0000 -0.0396309917
C   C13       1.0  0.42770  0.02550  0.86500  1.0000 -0.0686763047
C   C14       1.0  0.57230  0.97450  0.13500  1.0000 -0.0686763047
C   C15       1.0  0.51660  0.12270  0.94220  1.0000 -0.0200266047
C   C16       1.0  0.48340  0.87730  0.05780  1.0000 -0.0200266047
C   C17       1.0  0.41710  0.33830  0.82170  1.0000 -0.0200266047
C   C18       1.0  0.58290  0.66170  0.17830  1.0000 -0.0200266047
C   C19       1.0  0.52090  0.33500  0.89990  1.0000 -0.0396309917
C   C20       1.0  0.47910  0.66500  0.10010  1.0000 -0.0396309917
C   C21       1.0  0.19020  0.23690  0.78140  1.0000 -0.1706429146
C   C22       1.0  0.80980  0.76310  0.21860  1.0000 -0.1706429146
C   C23       1.0  0.11320  0.15690  0.68550  1.0000 -0.1892212463
C   C24       1.0  0.88680  0.84310  0.31450  1.0000 -0.1892212463
C   C25       1.0  0.16590  0.94500  0.82600  1.0000 -0.1800934551
C   C26       1.0  0.83410  0.05500  0.17400  1.0000 -0.1800934551
C   C27       1.0  0.10250  0.94750  0.71620  1.0000 -0.2011788152
C   C28       1.0  0.89750  0.05250  0.28380  1.0000 -0.2011788152
C   C29       1.0  0.27910  0.14070  0.96360  1.0000 -0.1522986574
C   C30       1.0  0.72090  0.85930  0.03640  1.0000 -0.1522986574
C   C31       1.0  0.40360  0.22380  0.02460  1.0000 -0.2011788152
C   C32       1.0  0.59640  0.77620  0.97540  1.0000 -0.2011788152
C   C33       1.0  0.44140  0.99080  0.91210  1.0000 -0.1800934551
C   C34       1.0  0.55860  0.00920  0.08790  1.0000 -0.1800934551
C   C35       1.0  0.53240  0.08720  0.99220  1.0000 -0.2086196958
C   C36       1.0  0.46760  0.91280  0.00780  1.0000 -0.2086196958
C   C37       1.0  0.46170  0.39590  0.81300  1.0000 -0.2011788152
C   C38       1.0  0.53830  0.60410  0.18700  1.0000 -0.2011788152
C   C39       1.0  0.56660  0.39090  0.89270  1.0000 -0.1800934551
C   C40       1.0  0.43340  0.60910  0.10730  1.0000 -0.1800934551
C   C41       1.0  0.12930  0.21300  0.71900  1.0000 0.1103797027
C   C42       1.0  0.87070  0.78700  0.28100  1.0000 0.1103797027
C   C43       1.0  0.09830  0.92760  0.77060  1.0000 0.0996847838
C   C44       1.0  0.90170  0.07240  0.22940  1.0000 0.0996847838
C   C45       1.0  0.33070  0.19430  0.01310  1.0000 0.0919889947
C   C46       1.0  0.66930  0.80570  0.98690  1.0000 0.0919889947
C   C47       1.0  0.49190  0.01940  0.97640  1.0000 0.0919889947
C   C48       1.0  0.50810  0.98060  0.02360  1.0000 0.0919889947
C   C49       1.0  0.53870  0.42400  0.84540  1.0000 0.1103797027
C   C50       1.0  0.46130  0.57600  0.15460  1.0000 0.1103797027
C   C51       1.0  0.08070  0.24190  0.69230  1.0000 0.0996847838
C   C52       1.0  0.91930  0.75810  0.30770  1.0000 0.0996847838
C   C53       1.0  0.02800  0.89430  0.76970  1.0000 0.0919889947
C   C54       1.0  0.97200  0.10570  0.23030  1.0000 0.0919889947
C   C55       1.0  0.31060  0.21820  0.04930  1.0000 0.0919889947
C   C56       1.0  0.68940  0.78180  0.95070  1.0000 0.0919889947
C   C57       1.0  0.58840  0.47950  0.82930  1.0000 0.0828590834
C   C58       1.0  0.41160  0.52050  0.17070  1.0000 0.0828590834
C   C59       1.0  0.10180  0.29990  0.71930  1.0000 -0.1522986574
C   C60       1.0  0.89820  0.70010  0.28070  1.0000 -0.1522986574
C   C61       1.0  0.00990  0.20690  0.63700  1.0000 -0.1598568031
C   C62       1.0  0.99010  0.79310  0.36300  1.0000 -0.1598568031
C   C63       1.0  0.01820  0.90990  0.81680  1.0000 -0.1598568031
C   C64       1.0  0.98180  0.09010  0.18320  1.0000 -0.1598568031
C   C65       1.0  0.96120  0.84790  0.71400  1.0000 -0.1892212463
C   C66       1.0  0.03880  0.15210  0.28600  1.0000 -0.1892212463
C   C67       1.0  0.24310  0.17770  0.04710  1.0000 -0.1322703479
C   C68       1.0  0.75690  0.82230  0.95290  1.0000 -0.1322703479
C   C69       1.0  0.35710  0.28390  0.08970  1.0000 -0.1800934551
C   C70       1.0  0.64290  0.71610  0.91030  1.0000 -0.1800934551
C   C71       1.0  0.65700  0.52420  0.87240  1.0000 -0.1800934551
C   C72       1.0  0.34300  0.47580  0.12760  1.0000 -0.1800934551
C   C73       1.0  0.56710  0.48170  0.76590  1.0000 -0.1800934551
C   C74       1.0  0.43290  0.51830  0.23410  1.0000 -0.1800934551
C   C75       1.0  0.05580  0.32430  0.69250  1.0000 -0.0396309917
C   C76       1.0  0.94420  0.67570  0.30750  1.0000 -0.0304131574
C   C77       1.0  0.96640  0.23050  0.61240  1.0000 -0.0569556013
C   C78       1.0  0.03360  0.76950  0.38760  1.0000 -0.0569556013
C   C79       1.0  0.95060  0.88240  0.80890  1.0000 -0.0095700153
C   C80       1.0  0.04940  0.11760  0.19110  1.0000 -0.0095700153
C   C81       1.0  0.89680  0.82370  0.70920  1.0000 -0.0396309917
C   C82       1.0  0.10320  0.17630  0.29080  1.0000 -0.0396309917
C   C83       1.0  0.22020  0.20090  0.07750  1.0000 -0.0200266047
C   C84       1.0  0.77980  0.79910  0.92250  1.0000 -0.0200266047
C   C85       1.0  0.33140  0.30160  0.11730  1.0000 -0.0493915666
C   C86       1.0  0.66860  0.69840  0.88270  1.0000 -0.0493915666
C   C87       1.0  0.70520  0.57350  0.85660  1.0000 -0.0569556013
C   C88       1.0  0.29480  0.42650  0.14340  1.0000 -0.0493915666
C   C89       1.0  0.61300  0.52840  0.74820  1.0000 -0.0396309917
C   C90       1.0  0.38700  0.47160  0.25180  1.0000 -0.0396309917
C   C91       1.0  0.98860  0.45650  0.61750  1.0000 -0.0569556013
C   C92       1.0  0.01140  0.54350  0.38250  1.0000 -0.0569556013
C   C93       1.0  0.87370  0.40690  0.52320  1.0000 -0.0493915666
C   C94       1.0  0.12630  0.59310  0.47680  1.0000 -0.0493915666
C   C95       1.0  0.81220  0.22100  0.47530  1.0000 -0.0304131574
C   C96       1.0  0.18780  0.77900  0.52470  1.0000 -0.0304131574
C   C97       1.0  0.69680  0.16370  0.46760  1.0000 -0.0304131574
C   C98       1.0  0.30320  0.83630  0.53240  1.0000 -0.0304131574
C   C99       1.0  0.67610  0.17590  0.67170  1.0000 -0.0095700153
C   C100      1.0  0.32390  0.82410  0.32830  1.0000 -0.0200266047
C   C101      1.0  0.77580  0.24170  0.76880  1.0000 -0.0396309917
C   C102      1.0  0.22420  0.75830  0.23120  1.0000 -0.0396309917
C   C103      1.0  0.86260  0.12450  0.67690  1.0000 -0.0396309917
C   C104      1.0  0.13740  0.87550  0.32310  1.0000 -0.0396309917
C   C105      1.0  0.73710  0.08410  0.60800  1.0000 -0.0304131574
C   C106      1.0  0.26290  0.91590  0.39200  1.0000 -0.0304131574
C   C107      1.0  0.63650  0.24880  0.52070  1.0000 -0.0304131574
C   C108      1.0  0.36350  0.75120  0.47930  1.0000 -0.0304131574
C   C109      1.0  0.72270  0.36250  0.55780  1.0000 -0.0304131574
C   C110      1.0  0.27730  0.63750  0.44220  1.0000 -0.0304131574
C   C111      1.0  0.93030  0.22900  0.80800  1.0000 0.0038682924
C   C112      1.0  0.06970  0.77100  0.19200  1.0000 0.0038682924
C   C113      1.0  0.02240  0.33760  0.83510  1.0000 -0.0396309917
C   C114      1.0  0.97760  0.66240  0.16490  1.0000 -0.0396309917
C   C115      1.0  0.68080  0.84760  0.70020  1.0000 -0.0200266047
C   C116      1.0  0.31920  0.15240  0.29980  1.0000 -0.0200266047
C   C117      1.0  0.79490  0.90620  0.79540  1.0000 -0.0200266047
C   C118      1.0  0.20510  0.09380  0.20460  1.0000 -0.0200266047
C   C119      1.0  0.86400  0.66240  0.73600  1.0000 -0.0304131574
C   C120      1.0  0.13600  0.33760  0.26400  1.0000 -0.0304131574
C   C121      1.0  0.73910  0.58460  0.66770  1.0000 -0.0095700153
C   C122      1.0  0.26090  0.41540  0.33230  1.0000 -0.0095700153
C   C123      1.0  0.72070  0.79450  0.60380  1.0000 -0.0304131574
C   C124      1.0  0.27930  0.20550  0.39620  1.0000 -0.0304131574
C   C125      1.0  0.64370  0.68010  0.56370  1.0000 -0.0200266047
C   C126      1.0  0.35630  0.31990  0.43630  1.0000 -0.0200266047
C   C127      1.0  0.54960  0.69850  0.70590  1.0000 -0.0304131574
C   C128      1.0  0.45040  0.30150  0.29410  1.0000 -0.0304131574
C   C129      1.0  0.52430  0.61690  0.63790  1.0000 -0.0304131574
C   C130      1.0  0.47570  0.38310  0.36210  1.0000 -0.0304131574
C   C131      1.0  0.10840  0.32360  0.09810  1.0000 -0.0569556013
C   C132      1.0  0.89160  0.67640  0.90190  1.0000 -0.0569556013
C   C133      1.0  0.07380  0.21600  0.06740  1.0000 -0.0304131574
C   C134      1.0  0.92620  0.78400  0.93260  1.0000 -0.0304131574
C   C135      1.0  0.02050  0.48710  0.58470  1.0000 -0.1892212463
C   C136      1.0  0.97950  0.51290  0.41530  1.0000 -0.1892212463
C   C137      1.0  0.90730  0.43900  0.48940  1.0000 -0.1892212463
C   C138      1.0  0.09270  0.56100  0.51060  1.0000 -0.1892212463
C   C139      1.0  0.79440  0.16940  0.43930  1.0000 -0.2011788152
C   C140      1.0  0.20560  0.83060  0.56070  1.0000 -0.2011788152
C   C141      1.0  0.68010  0.11260  0.43040  1.0000 -0.1892212463
C   C142      1.0  0.31990  0.88740  0.56960  1.0000 -0.1892212463
C   C143      1.0  0.62820  0.17660  0.68670  1.0000 -0.1598568031
C   C144      1.0  0.37180  0.82340  0.31330  1.0000 -0.1598568031
C   C145      1.0  0.73180  0.24460  0.78700  1.0000 -0.1800934551
C   C146      1.0  0.26820  0.75540  0.21300  1.0000 -0.1800934551
C   C147      1.0  0.84990  0.07170  0.70440  1.0000 -0.1598568031
C   C148      1.0  0.15010  0.92830  0.29560  1.0000 -0.1598568031
C   C149      1.0  0.71850  0.02850  0.63310  1.0000 -0.1892212463
C   C150      1.0  0.28150  0.97150  0.36690  1.0000 -0.1892212463
C   C151      1.0  0.58860  0.25950  0.46880  1.0000 -0.1522986574
C   C152      1.0  0.41140  0.74050  0.53120  1.0000 -0.1522986574
C   C153      1.0  0.67190  0.37240  0.50310  1.0000 -0.1598568031
C   C154      1.0  0.32810  0.62760  0.49690  1.0000 -0.1598568031
C   C155      1.0  0.95570  0.22800  0.87300  1.0000 -0.1706429146
C   C156      1.0  0.04430  0.77200  0.12700  1.0000 -0.1706429146
C   C157      1.0  0.04920  0.33940  0.89880  1.0000 -0.1800934551
C   C158      1.0  0.95080  0.66060  0.10120  1.0000 -0.1800934551
C   C159      1.0  0.69200  0.90270  0.67510  1.0000 -0.1800934551
C   C160      1.0  0.30800  0.09730  0.32490  1.0000 -0.1800934551
C   C161      1.0  0.80980  0.96230  0.77200  1.0000 -0.1598568031
C   C162      1.0  0.19020  0.03770  0.22800  1.0000 -0.1598568031
C   C163      1.0  0.88500  0.61630  0.74660  1.0000 -0.2011788152
C   C164      1.0  0.11500  0.38370  0.25340  1.0000 -0.2011788152
C   C165      1.0  0.75750  0.53510  0.67480  1.0000 -0.2011788152
C   C166      1.0  0.24250  0.46490  0.32520  1.0000 -0.2011788152
C   C167      1.0  0.72390  0.80180  0.54720  1.0000 -0.1706429146
C   C168      1.0  0.27610  0.19820  0.45280  1.0000 -0.1706429146
C   C169      1.0  0.64890  0.68700  0.50810  1.0000 -0.1522986574
C   C170      1.0  0.35110  0.31300  0.49190  1.0000 -0.1522986574
C   C171      1.0  0.49210  0.70470  0.65560  1.0000 -0.1892212463
C   C172      1.0  0.50790  0.29530  0.34440  1.0000 -0.1892212463
C   C173      1.0  0.46540  0.62200  0.58590  1.0000 -0.1706429146
C   C174      1.0  0.53460  0.37800  0.41410  1.0000 -0.1706429146
C   C175      1.0  0.08150  0.32940  0.03690  1.0000 -0.1706429146
C   C176      1.0  0.91850  0.67060  0.96310  1.0000 -0.1800934551
C   C177      1.0  0.04200  0.22070  0.00410  1.0000 -0.1322703479
C   C178      1.0  0.95800  0.77930  0.99590  1.0000 -0.1322703479
C   C179      1.0  0.98120  0.48310  0.51900  1.0000 0.0919889947
C   C180      1.0  0.01880  0.51690  0.48100  1.0000 0.0919889947
C   C181      1.0  0.72780  0.11170  0.41600  1.0000 0.0996847838
C   C182      1.0  0.27220  0.88830  0.58400  1.0000 0.0996847838
C   C183      1.0  0.65260  0.21200  0.74380  1.0000 0.0996847838
C   C184      1.0  0.34740  0.78800  0.25620  1.0000 0.0996847838
C   C185      1.0  0.77790  0.02140  0.68360  1.0000 0.0919889947
C   C186      1.0  0.22210  0.97860  0.31640  1.0000 0.0919889947
C   C187      1.0  0.60590  0.32290  0.45870  1.0000 0.0919889947
C   C188      1.0  0.39410  0.67710  0.54130  1.0000 0.0919889947
C   C189      1.0  0.01570  0.28300  0.91910  1.0000 0.0996847838
C   C190      1.0  0.98430  0.71700  0.08090  1.0000 0.0996847838
C   C191      1.0  0.75890  0.96320  0.71130  1.0000 0.0919889947
C   C192      1.0  0.24110  0.03680  0.28870  1.0000 0.0919889947
C   C193      1.0  0.83130  0.55200  0.71490  1.0000 0.0996847838
C   C194      1.0  0.16870  0.44800  0.28510  1.0000 0.0996847838
C   C195      1.0  0.68810  0.74790  0.50050  1.0000 0.0996847838
C   C196      1.0  0.31190  0.25210  0.49950  1.0000 0.0996847838
C   C197      1.0  0.45150  0.66910  0.59650  1.0000 0.0996847838
C   C198      1.0  0.54850  0.33090  0.40350  1.0000 0.0996847838
C   C199      1.0  0.04520  0.27810  0.98780  1.0000 0.0919889947
C   C200      1.0  0.95480  0.72190  0.01220  1.0000 0.0919889947
C   C201      1.0  0.70810  0.05140  0.38100  1.0000 0.0919889947
C   C202      1.0  0.29190  0.94860  0.61900  1.0000 0.0919889947
C   C203      1.0  0.60350  0.21730  0.75850  1.0000 0.0828590834
C   C204      1.0  0.39650  0.78270  0.24150  1.0000 0.0828590834
C   C205      1.0  0.84800  0.49980  0.72320  1.0000 0.0996847838
C   C206      1.0  0.15200  0.50020  0.27680  1.0000 0.0996847838
C   C207      1.0  0.68970  0.75790  0.43940  1.0000 0.1103797027
C   C208      1.0  0.31030  0.24210  0.56060  1.0000 0.1103797027
C   C209      1.0  0.64050  0.01140  0.32910  1.0000 -0.1706429146
C   C210      1.0  0.35950  0.98860  0.67090  1.0000 -0.1706429146
C   C211      1.0  0.76150  0.03230  0.40300  1.0000 -0.1800934551
C   C212      1.0  0.23850  0.96770  0.59700  1.0000 -0.1800934551
C   C213      1.0  0.62410  0.23800  0.82150  1.0000 -0.1892212463
C   C214      1.0  0.37590  0.76200  0.17850  1.0000 -0.1892212463
C   C215      1.0  0.53530  0.20500  0.70970  1.0000 -0.1522986574
C   C216      1.0  0.46470  0.79500  0.29030  1.0000 -0.1522986574
C   C217      1.0  0.91440  0.51010  0.73450  1.0000 -0.2011788152
C   C218      1.0  0.08560  0.48990  0.26550  1.0000 -0.2011788152
C   C219      1.0  0.79680  0.43840  0.71890  1.0000 -0.2371782927
C   C220      1.0  0.20320  0.56160  0.28110  1.0000 -0.2371782927
C   C221      1.0  0.63130  0.71600  0.38420  1.0000 -0.1598568031
C   C222      1.0  0.36870  0.28400  0.61580  1.0000 -0.1598568031
C   C223      1.0  0.74960  0.81020  0.43780  1.0000 -0.1800934551
C   C224      1.0  0.25040  0.18980  0.56220  1.0000 -0.1800934551
C   C225      1.0  0.62420  0.95580  0.30010  1.0000 -0.0304131574
C   C226      1.0  0.37580  0.04420  0.69990  1.0000 -0.0304131574
C   C227      1.0  0.74540  0.97660  0.37670  1.0000 -0.0569556013
C   C228      1.0  0.25460  0.02340  0.62330  1.0000 -0.0569556013
C   C229      1.0  0.57460  0.24070  0.83310  1.0000 -0.0304131574
C   C230      1.0  0.42540  0.75930  0.16690  1.0000 -0.0304131574
C   C231      1.0  0.48820  0.21320  0.72120  1.0000 -0.0396309917
C   C232      1.0  0.51180  0.78680  0.27880  1.0000 -0.0396309917
C   C233      1.0  0.92960  0.46040  0.74120  1.0000 -0.0304131574
C   C234      1.0  0.07040  0.53960  0.25880  1.0000 -0.0304131574
C   C235      1.0  0.80970  0.38760  0.72280  1.0000 -0.0304131574
C   C236      1.0  0.19030  0.61240  0.27720  1.0000 -0.0304131574
C   C237      1.0  0.63220  0.72940  0.32620  1.0000 -0.0493915666
C   C238      1.0  0.36780  0.27060  0.67380  1.0000 -0.0493915666
C   C239      1.0  0.74880  0.81980  0.38260  1.0000 -0.0493915666
C   C240      1.0  0.25120  0.18020  0.61740  1.0000 -0.0493915666
C   C241      1.0  0.36850  0.63460  0.31490  1.0000 0.443810481
C   C242      1.0  0.63150  0.36540  0.68510  1.0000 0.443810481
C   C243      1.0  0.36970  0.09850  0.52260  1.0000 0.4997684341
C   C244      1.0  0.63030  0.90150  0.47740  1.0000 0.4997684341
C   C245      1.0  0.81920  0.06150  0.92440  1.0000 0.4997684341
C   C246      1.0  0.18080  0.93850  0.07560  1.0000 0.4997684341
C   C247      1.0  0.94690  0.92540  0.15470  1.0000 0.4997684341
C   C248      1.0  0.05310  0.07460  0.84530  1.0000 0.4997684341
S   S1        1.0  0.43630  0.63600  0.39350  1.0000 1.0069198491
S   S2        1.0  0.56370  0.36400  0.60650  1.0000 1.0069198491
S   S3        1.0  0.44140  0.15270  0.50350  1.0000 0.9943775566
S   S4        1.0  0.55860  0.84730  0.49650  1.0000 0.9943775566
S   S5        1.0  0.86000  0.02490  0.98810  1.0000 0.9943775566
S   S6        1.0  0.14000  0.97510  0.01190  1.0000 0.9943775566
S   S7        1.0  0.95390  0.85460  0.14320  1.0000 0.9836971642
S   S8        1.0  0.04610  0.14540  0.85680  1.0000 0.9836971642
N   N1        1.0  0.21370  0.15500  0.77140  1.0000 0.3112119893
N   N2        1.0  0.78630  0.84500  0.22860  1.0000 0.3112119893
N   N3        1.0  0.23260  0.00260  0.77650  1.0000 0.3021174365
N   N4        1.0  0.76740  0.99740  0.22350  1.0000 0.3021174365
N   N5        1.0  0.36690  0.15080  0.93960  1.0000 0.3112119893
N   N6        1.0  0.63310  0.84920  0.06040  1.0000 0.3112119893
N   N7        1.0  0.46670  0.09290  0.88330  1.0000 0.3188220379
N   N8        1.0  0.53330  0.90710  0.11670  1.0000 0.3188220379
N   N9        1.0  0.44730  0.30820  0.86240  1.0000 0.2912048878
N   N10       1.0  0.55270  0.69180  0.13760  1.0000 0.2912048878
N   N11       1.0  0.98820  0.29060  0.64100  1.0000 0.3188220379
N   N12       1.0  0.01180  0.70940  0.35900  1.0000 0.3112119893
N   N13       1.0  0.89100  0.84220  0.75610  1.0000 0.3021174365
N   N14       1.0  0.10900  0.15780  0.24390  1.0000 0.3021174365
N   N15       1.0  0.26460  0.26300  0.11170  1.0000 0.3346051456
N   N16       1.0  0.73540  0.73700  0.88830  1.0000 0.3346051456
N   N17       1.0  0.68280  0.57380  0.79430  1.0000 0.3402546079
N   N18       1.0  0.31720  0.42620  0.20570  1.0000 0.3402546079
N   N19       1.0  0.91410  0.41620  0.58720  1.0000 0.3112119893
N   N20       1.0  0.08590  0.58380  0.41280  1.0000 0.3112119893
N   N21       1.0  0.76330  0.21670  0.49020  1.0000 0.3021174365
N   N22       1.0  0.23670  0.78330  0.50980  1.0000 0.3021174365
N   N23       1.0  0.74790  0.20930  0.71070  1.0000 0.3188220379
N   N24       1.0  0.25210  0.79070  0.28930  1.0000 0.3188220379
N   N25       1.0  0.80650  0.13040  0.63030  1.0000 0.3112119893
N   N26       1.0  0.19350  0.86960  0.36970  1.0000 0.3112119893
N   N27       1.0  0.70280  0.30070  0.56540  1.0000 0.3021174365
N   N28       1.0  0.29720  0.69930  0.43460  1.0000 0.3021174365
N   N29       1.0  0.96670  0.28200  0.79140  1.0000 0.3112119893
N   N30       1.0  0.03330  0.71800  0.20860  1.0000 0.3112119893
N   N31       1.0  0.73110  0.85000  0.75760  1.0000 0.3188220379
N   N32       1.0  0.26890  0.15000  0.24240  1.0000 0.3188220379
N   N33       1.0  0.79320  0.64530  0.69960  1.0000 0.3188220379
N   N34       1.0  0.20680  0.35470  0.30040  1.0000 0.3112119893
N   N35       1.0  0.67780  0.73250  0.60910  1.0000 0.3493750574
N   N36       1.0  0.32220  0.26750  0.39090  1.0000 0.3493750574
N   N37       1.0  0.56340  0.65540  0.69500  1.0000 0.3112119893
N   N38       1.0  0.43660  0.34460  0.30500  1.0000 0.3112119893
N   N39       1.0  0.10600  0.26720  0.11390  1.0000 0.3402546079
N   N40       1.0  0.89400  0.73280  0.88610  1.0000 0.3402546079
N   N41       1.0  0.67560  0.93730  0.32440  1.0000 0.2571450801
N   N42       1.0  0.32440  0.06270  0.67560  1.0000 0.2571450801
N   N43       1.0  0.50950  0.23090  0.78360  1.0000 0.3188220379
N   N44       1.0  0.49050  0.76910  0.21640  1.0000 0.3188220379
N   N45       1.0  0.87680  0.40030  0.73400  1.0000 0.3188220379
N   N46       1.0  0.12320  0.59970  0.26600  1.0000 0.3188220379
N   N47       1.0  0.68980  0.78060  0.32720  1.0000 0.3188220379
N   N48       1.0  0.31020  0.21940  0.67280  1.0000 0.3188220379
O   O1        1.0  0.25290  0.12580  0.79450  1.0000 -0.6086423962
O   O2        1.0  0.74710  0.87420  0.20550  1.0000 -0.6086423962
O   O3        1.0  0.29720  0.04070  0.77990  1.0000 -0.6013016024
O   O4        1.0  0.70280  0.95930  0.22010  1.0000 -0.6013016024
O   O5        1.0  0.38230  0.13010  0.90190  1.0000 -0.6289962886
O   O6        1.0  0.61770  0.86990  0.09810  1.0000 -0.6289962886
O   O7        1.0  0.45440  0.12770  0.83920  1.0000 -0.5878894935
O   O8        1.0  0.54560  0.87230  0.16080  1.0000 -0.5878894935
O   O9        1.0  0.40320  0.24800  0.86680  1.0000 -0.6289962886
O   O10       1.0  0.59680  0.75200  0.13320  1.0000 -0.6289962886
O   O11       1.0  0.34210  0.12030  0.70280  1.0000 -0.6289962886
O   O12       1.0  0.65790  0.87970  0.29720  1.0000 -0.6289962886
O   O13       1.0  0.46420  0.23840  0.79500  1.0000 -0.6086423962
O   O14       1.0  0.53580  0.76160  0.20500  1.0000 -0.6086423962
O   O15       1.0  0.31160  0.20910  0.72780  1.0000 -0.6086423962
O   O16       1.0  0.68840  0.79090  0.27220  1.0000 -0.6086423962
O   O17       1.0  0.94260  0.31350  0.61770  1.0000 -0.5878894935
O   O18       1.0  0.05740  0.68650  0.38230  1.0000 -0.5878894935
O   O19       1.0  0.82290  0.81870  0.74720  1.0000 -0.6164369254
O   O20       1.0  0.17710  0.18130  0.25280  1.0000 -0.6164369254
O   O21       1.0  0.23950  0.28400  0.13800  1.0000 -0.6086423962
O   O22       1.0  0.76050  0.71600  0.86200  1.0000 -0.6086423962
O   O23       1.0  0.72740  0.61690  0.77620  1.0000 -0.5878894935
O   O24       1.0  0.27260  0.38310  0.22380  1.0000 -0.5878894935
O   O25       1.0  0.88140  0.38720  0.62020  1.0000 -0.5801942135
O   O26       1.0  0.11860  0.61280  0.37980  1.0000 -0.5878894935
O   O27       1.0  0.78060  0.26610  0.52950  1.0000 -0.6164369254
O   O28       1.0  0.21940  0.73390  0.47050  1.0000 -0.6164369254
O   O29       1.0  0.79350  0.20960  0.69400  1.0000 -0.6013016024
O   O30       1.0  0.20650  0.79040  0.30600  1.0000 -0.6013016024
O   O31       1.0  0.82180  0.18280  0.60430  1.0000 -0.6289962886
O   O32       1.0  0.17820  0.81720  0.39570  1.0000 -0.6289962886
O   O33       1.0  0.74780  0.29020  0.61810  1.0000 -0.6086423962
O   O34       1.0  0.25220  0.70980  0.38190  1.0000 -0.6086423962
O   O35       1.0  0.94840  0.28130  0.72970  1.0000 -0.6289962886
O   O36       1.0  0.05160  0.71870  0.27030  1.0000 -0.6289962886
O   O37       1.0  0.88740  0.35050  0.73550  1.0000 -0.6086423962
O   O38       1.0  0.11260  0.64950  0.26450  1.0000 -0.6086423962
O   O39       1.0  0.72010  0.79560  0.78170  1.0000 -0.6419510065
O   O40       1.0  0.27990  0.20440  0.21830  1.0000 -0.6419510065
O   O41       1.0  0.77360  0.69020  0.69330  1.0000 -0.6463060497
O   O42       1.0  0.22640  0.30980  0.30670  1.0000 -0.6463060497
O   O43       1.0  0.66690  0.72350  0.65780  1.0000 -0.5878894935
O   O44       1.0  0.33310  0.27650  0.34220  1.0000 -0.5878894935
O   O45       1.0  0.62230  0.65470  0.74080  1.0000 -0.6013016024
O   O46       1.0  0.37770  0.34530  0.25920  1.0000 -0.6013016024
O   O47       1.0  0.86550  0.73930  0.82660  1.0000 -0.5801942135
O   O48       1.0  0.13450  0.26070  0.17340  1.0000 -0.5801942135
O   O49       1.0  0.39710  0.60070  0.42610  1.0000 -0.5682034942
O   O50       1.0  0.47320  0.60760  0.38370  1.0000 -0.5878894935
O   O51       1.0  0.48850  0.70510  0.42460  1.0000 -0.5616871475
O   O52       1.0  0.60290  0.39930  0.57390  1.0000 -0.5682034942
O   O53       1.0  0.52680  0.39240  0.61630  1.0000 -0.5878894935
O   O54       1.0  0.51150  0.29490  0.57540  1.0000 -0.5616871475
O   O55       1.0  0.44330  0.11030  0.46580  1.0000 -0.5801942135
O   O56       1.0  0.41620  0.19460  0.46730  1.0000 -0.5534747957
O   O57       1.0  0.50870  0.18610  0.56480  1.0000 -0.5616871475
O   O58       1.0  0.55670  0.88970  0.53420  1.0000 -0.5801942135
O   O59       1.0  0.58380  0.80540  0.53270  1.0000 -0.5534747957
O   O60       1.0  0.49130  0.81390  0.43520  1.0000 -0.5616871475
O   O61       1.0  0.93720  0.07570  0.02840  1.0000 -0.5801942135
O   O62       1.0  0.81890  0.00600  0.02150  1.0000 -0.5801942135
O   O63       1.0  0.85260  0.97070  0.95750  1.0000 -0.5682034942
O   O64       1.0  0.06280  0.92430  0.97160  1.0000 -0.5801942135
O   O65       1.0  0.18110  0.99400  0.97850  1.0000 -0.5801942135
O   O66       1.0  0.14740  0.02930  0.04250  1.0000 -0.5682034942
O   O67       1.0  0.96840  0.83130  0.20160  1.0000 -0.5682034942
O   O68       1.0  0.01410  0.88070  0.13010  1.0000 -0.5616871475
O   O69       1.0  0.88160  0.81080  0.08860  1.0000 -0.5682034942
O   O70       1.0  0.03160  0.16870  0.79840  1.0000 -0.5682034942
O   O71       1.0  0.98590  0.11930  0.86990  1.0000 -0.5682034942
O   O72       1.0  0.11840  0.18920  0.91140  1.0000 -0.5682034942
F   F1        1.0  0.30930  0.57550  0.28850  1.0000 -0.2011788152
F   F2        1.0  0.34750  0.67490  0.32000  1.0000 -0.1800934551
F   F3        1.0  0.39640  0.65290  0.27680  1.0000 -0.1800934551
F   F4        1.0  0.69070  0.42450  0.71150  1.0000 -0.2011788152
F   F5        1.0  0.65250  0.32510  0.68000  1.0000 -0.1800934551
F   F6        1.0  0.60360  0.34710  0.72320  1.0000 -0.1892212463
F   F7        1.0  0.30480  0.06770  0.46980  1.0000 -0.2011788152
F   F8        1.0  0.36630  0.13310  0.55950  1.0000 -0.1800934551
F   F9        1.0  0.38620  0.05680  0.55410  1.0000 -0.2011788152
F   F10       1.0  0.69520  0.93230  0.53020  1.0000 -0.2011788152
F   F11       1.0  0.63370  0.86690  0.44050  1.0000 -0.1800934551
F   F12       1.0  0.61380  0.94320  0.44590  1.0000 -0.2011788152
F   F13       1.0  0.84660  0.07240  0.88610  1.0000 -0.1892212463
F   F14       1.0  0.74640  0.02380  0.89010  1.0000 -0.1706429146
F   F15       1.0  0.83420  0.11750  0.94940  1.0000 -0.2011788152
F   F16       1.0  0.15340  0.92760  0.11390  1.0000 -0.1892212463
F   F17       1.0  0.25360  0.97620  0.10990  1.0000 -0.1706429146
F   F18       1.0  0.16580  0.88250  0.05060  1.0000 -0.2011788152
F   F19       1.0  0.92570  0.94540  0.09970  1.0000 -0.1706429146
F   F20       1.0  0.01080  0.97190  0.19880  1.0000 -0.1892212463
F   F21       1.0  0.89590  0.90820  0.17060  1.0000 -0.2011788152
F   F22       1.0  0.07430  0.05460  0.90030  1.0000 -0.1598568031
F   F23       1.0  0.98920  0.02810  0.80120  1.0000 -0.1892212463
F   F24       1.0  0.10410  0.09180  0.82940  1.0000 -0.2011788152
