# DDEC6 charges by PACMAN v1.1 (https://github.com/mtap-research/PACMAN-charge/)
data_2014[Zn][nan]3[ION]2
_chemical_formula_sum              "Zn20 H456 C344 N32 O144"
_cell_length_a       23.31
_cell_length_b       18.952
_cell_length_c       33.8614
_cell_angle_alpha    90
_cell_angle_beta     128.559
_cell_angle_gamma    90

_symmetry_space_group_name_H-M    "P 1"
_symmetry_Int_Tables_number       1

loop_
  _symmetry_equiv_pos_as_xyz
  'x, y, z'

loop_
  _atom_site_type_symbol
  _atom_site_label
  _atom_site_symmetry_multiplicity
  _atom_site_fract_x
  _atom_site_fract_y
  _atom_site_fract_z
  _atom_site_occupancy
  _atom_site_charge
Zn  Zn1       1.0  0.76609  0.27808  0.80677  1.0000 0.9224824954
Zn  Zn2       1.0  0.23391  0.77808  0.69323  1.0000 0.9224824954
Zn  Zn3       1.0  0.23391  0.72192  0.19323  1.0000 0.9224824954
Zn  Zn4       1.0  0.76609  0.22192  0.30677  1.0000 0.9224824954
Zn  Zn5       1.0  0.71618  0.26088  0.68196  1.0000 0.9119319965
Zn  Zn6       1.0  0.28382  0.76088  0.81804  1.0000 0.9119319965
Zn  Zn7       1.0  0.28382  0.73912  0.31804  1.0000 0.9119319965
Zn  Zn8       1.0  0.71618  0.23912  0.18196  1.0000 0.9119319965
Zn  Zn9       1.0  0.54941  0.77568  0.68116  1.0000 0.9224824954
Zn  Zn10      1.0  0.45059  0.27568  0.81884  1.0000 0.9224824954
Zn  Zn11      1.0  0.45059  0.22432  0.31884  1.0000 0.9224824954
Zn  Zn12      1.0  0.54941  0.72432  0.18116  1.0000 0.9224824954
Zn  Zn13      1.0  0.95072  0.76305  0.82119  1.0000 0.9224824954
Zn  Zn14      1.0  0.04928  0.26305  0.67881  1.0000 0.9224824954
Zn  Zn15      1.0  0.04928  0.23695  0.17881  1.0000 0.9224824954
Zn  Zn16      1.0  0.95072  0.73695  0.32119  1.0000 0.9224824954
Zn  Zn17      1.0  0.22103  0.40989  0.49840  1.0000 0.9555851866
Zn  Zn18      1.0  0.77897  0.90989  0.00160  1.0000 0.9555851866
Zn  Zn19      1.0  0.77897  0.59011  0.50160  1.0000 0.9555851866
Zn  Zn20      1.0  0.22103  0.09011  0.99840  1.0000 0.9555851866
H   H1        1.0  0.89730  0.25700  0.00870  1.0000 0.1213155993
H   H2        1.0  0.10270  0.75700  0.49130  1.0000 0.1213155993
H   H3        1.0  0.10270  0.74300  0.99130  1.0000 0.1213155993
H   H4        1.0  0.89730  0.24300  0.50870  1.0000 0.1213155993
H   H5        1.0  0.88110  0.05630  0.03880  1.0000 0.1283892723
H   H6        1.0  0.11890  0.55630  0.46120  1.0000 0.1283892723
H   H7        1.0  0.11890  0.94370  0.96120  1.0000 0.1283892723
H   H8        1.0  0.88110  0.44370  0.53880  1.0000 0.1283892723
H   H9        1.0  0.79500  0.11160  0.89700  1.0000 0.1213155993
H   H10       1.0  0.20500  0.61160  0.60300  1.0000 0.1213155993
H   H11       1.0  0.20500  0.88840  0.10300  1.0000 0.1213155993
H   H12       1.0  0.79500  0.38840  0.39700  1.0000 0.1213155993
H   H13       1.0  0.50350  0.31050  0.61460  1.0000 0.1213155993
H   H14       1.0  0.49650  0.81050  0.88540  1.0000 0.1213155993
H   H15       1.0  0.49650  0.68950  0.38540  1.0000 0.1213155993
H   H16       1.0  0.50350  0.18950  0.11460  1.0000 0.1213155993
H   H17       1.0  0.97330  0.22500  0.87040  1.0000 0.141000118
H   H18       1.0  0.02670  0.72500  0.62960  1.0000 0.141000118
H   H19       1.0  0.02670  0.77500  0.12960  1.0000 0.141000118
H   H20       1.0  0.97330  0.27500  0.37040  1.0000 0.141000118
H   H21       1.0  0.92580  0.26260  0.73810  1.0000 0.141000118
H   H22       1.0  0.07420  0.76260  0.76190  1.0000 0.141000118
H   H23       1.0  0.07420  0.73740  0.26190  1.0000 0.141000118
H   H24       1.0  0.92580  0.23740  0.23810  1.0000 0.141000118
H   H25       1.0  0.64500  0.04890  0.68870  1.0000 0.141000118
H   H26       1.0  0.35500  0.54890  0.81130  1.0000 0.141000118
H   H27       1.0  0.35500  0.95110  0.31130  1.0000 0.141000118
H   H28       1.0  0.64500  0.45110  0.18870  1.0000 0.141000118
H   H29       1.0  0.74780  0.86280  0.74520  1.0000 0.1283892723
H   H30       1.0  0.25220  0.36280  0.75480  1.0000 0.1283892723
H   H31       1.0  0.25220  0.13720  0.25480  1.0000 0.1283892723
H   H32       1.0  0.74780  0.63720  0.24520  1.0000 0.1283892723
H   H33       1.0  0.84470  0.01820  0.72780  1.0000 0.1283892723
H   H34       1.0  0.15530  0.51820  0.77220  1.0000 0.1283892723
H   H35       1.0  0.15530  0.98180  0.27220  1.0000 0.1283892723
H   H36       1.0  0.84470  0.48180  0.22780  1.0000 0.1283892723
H   H37       1.0  0.12330  0.19070  0.85260  1.0000 0.1213155993
H   H38       1.0  0.87670  0.69070  0.64740  1.0000 0.1213155993
H   H39       1.0  0.87670  0.80930  0.14740  1.0000 0.1213155993
H   H40       1.0  0.12330  0.30930  0.35260  1.0000 0.1213155993
H   H41       1.0  0.39740  0.74520  0.48070  1.0000 0.1283892723
H   H42       1.0  0.60260  0.24520  0.01930  1.0000 0.1283892723
H   H43       1.0  0.60260  0.25480  0.51930  1.0000 0.1283892723
H   H44       1.0  0.39740  0.75480  0.98070  1.0000 0.1283892723
H   H45       1.0  0.27430  0.57200  0.43530  1.0000 0.1213155993
H   H46       1.0  0.72570  0.07200  0.06470  1.0000 0.1213155993
H   H47       1.0  0.72570  0.42800  0.56470  1.0000 0.1213155993
H   H48       1.0  0.27430  0.92800  0.93530  1.0000 0.1213155993
H   H49       1.0  0.38640  0.63850  0.57800  1.0000 0.1283892723
H   H50       1.0  0.61360  0.13850  0.92200  1.0000 0.1283892723
H   H51       1.0  0.61360  0.36150  0.42200  1.0000 0.1283892723
H   H52       1.0  0.38640  0.86150  0.07800  1.0000 0.1283892723
H   H53       1.0  0.56090  0.28080  0.75170  1.0000 0.1283892723
H   H54       1.0  0.43910  0.78080  0.74830  1.0000 0.1283892723
H   H55       1.0  0.43910  0.71920  0.24830  1.0000 0.1283892723
H   H56       1.0  0.56090  0.21920  0.25170  1.0000 0.1283892723
H   H57       1.0  0.64080  0.51450  0.75340  1.0000 0.1283892723
H   H58       1.0  0.35920  0.01450  0.74660  1.0000 0.1283892723
H   H59       1.0  0.35920  0.48550  0.24660  1.0000 0.1283892723
H   H60       1.0  0.64080  0.98550  0.25340  1.0000 0.1283892723
H   H61       1.0  0.85080  0.49010  0.80820  1.0000 0.141000118
H   H62       1.0  0.14920  0.99010  0.69180  1.0000 0.141000118
H   H63       1.0  0.14920  0.50990  0.19180  1.0000 0.141000118
H   H64       1.0  0.85080  0.00990  0.30820  1.0000 0.141000118
H   H65       1.0  0.75180  0.67780  0.75550  1.0000 0.141000118
H   H66       1.0  0.24820  0.17780  0.74450  1.0000 0.141000118
H   H67       1.0  0.24820  0.32220  0.24450  1.0000 0.141000118
H   H68       1.0  0.75180  0.82220  0.25550  1.0000 0.141000118
H   H69       1.0  0.35350  0.32690  0.63640  1.0000 0.1283892723
H   H70       1.0  0.64650  0.82690  0.86360  1.0000 0.1283892723
H   H71       1.0  0.64650  0.67310  0.36360  1.0000 0.1283892723
H   H72       1.0  0.35350  0.17310  0.13640  1.0000 0.1283892723
H   H73       1.0  0.93790  0.76570  0.46140  1.0000 0.1574938677
H   H74       1.0  0.93930  0.72500  0.42170  1.0000 0.1493748812
H   H75       1.0  0.92620  0.68380  0.45560  1.0000 0.1574938677
H   H76       1.0  0.83010  0.73950  0.45540  1.0000 0.1493748812
H   H77       1.0  0.79970  0.66940  0.42390  1.0000 0.1574938677
H   H78       1.0  0.75280  0.73870  0.40190  1.0000 0.1493748812
H   H79       1.0  0.77380  0.82460  0.37050  1.0000 0.1493748812
H   H80       1.0  0.82570  0.81730  0.35610  1.0000 0.141000118
H   H81       1.0  0.85780  0.84100  0.41070  1.0000 0.141000118
H   H82       1.0  0.75420  0.69290  0.33390  1.0000 0.1574938677
H   H83       1.0  0.82440  0.64540  0.36670  1.0000 0.141000118
H   H84       1.0  0.82250  0.70970  0.33680  1.0000 0.1574938677
H   H85       1.0  0.06210  0.26570  0.03860  1.0000 0.1574938677
H   H86       1.0  0.06070  0.22500  0.07830  1.0000 0.1493748812
H   H87       1.0  0.07380  0.18380  0.04440  1.0000 0.1574938677
H   H88       1.0  0.16990  0.23950  0.04460  1.0000 0.1493748812
H   H89       1.0  0.20030  0.16940  0.07610  1.0000 0.1574938677
H   H90       1.0  0.24720  0.23870  0.09810  1.0000 0.1493748812
H   H91       1.0  0.22620  0.32460  0.12950  1.0000 0.1493748812
H   H92       1.0  0.17430  0.31730  0.14390  1.0000 0.141000118
H   H93       1.0  0.14220  0.34100  0.08930  1.0000 0.141000118
H   H94       1.0  0.24580  0.19290  0.16610  1.0000 0.1574938677
H   H95       1.0  0.17560  0.14540  0.13330  1.0000 0.141000118
H   H96       1.0  0.17750  0.20970  0.16320  1.0000 0.1574938677
H   H97       1.0  0.06210  0.23430  0.53860  1.0000 0.1574938677
H   H98       1.0  0.06070  0.27500  0.57830  1.0000 0.1493748812
H   H99       1.0  0.07380  0.31620  0.54440  1.0000 0.1574938677
H   H100      1.0  0.16990  0.26050  0.54460  1.0000 0.1493748812
H   H101      1.0  0.20030  0.33060  0.57610  1.0000 0.1574938677
H   H102      1.0  0.24720  0.26130  0.59810  1.0000 0.1493748812
H   H103      1.0  0.22620  0.17540  0.62950  1.0000 0.1493748812
H   H104      1.0  0.17430  0.18270  0.64390  1.0000 0.141000118
H   H105      1.0  0.14220  0.15900  0.58930  1.0000 0.141000118
H   H106      1.0  0.24580  0.30710  0.66610  1.0000 0.1574938677
H   H107      1.0  0.17560  0.35460  0.63330  1.0000 0.141000118
H   H108      1.0  0.17750  0.29030  0.66320  1.0000 0.1574938677
H   H109      1.0  0.93790  0.73430  0.96140  1.0000 0.1574938677
H   H110      1.0  0.93930  0.77500  0.92170  1.0000 0.1493748812
H   H111      1.0  0.92620  0.81620  0.95560  1.0000 0.1574938677
H   H112      1.0  0.83010  0.76050  0.95540  1.0000 0.1493748812
H   H113      1.0  0.79970  0.83060  0.92390  1.0000 0.1574938677
H   H114      1.0  0.75280  0.76130  0.90190  1.0000 0.1493748812
H   H115      1.0  0.77380  0.67540  0.87050  1.0000 0.1493748812
H   H116      1.0  0.82570  0.68270  0.85610  1.0000 0.141000118
H   H117      1.0  0.85780  0.65900  0.91070  1.0000 0.141000118
H   H118      1.0  0.75420  0.80710  0.83390  1.0000 0.1574938677
H   H119      1.0  0.82440  0.85460  0.86670  1.0000 0.141000118
H   H120      1.0  0.82250  0.79030  0.83680  1.0000 0.1574938677
H   H121      1.0  0.57340  0.72810  0.06660  1.0000 0.1493748812
H   H122      1.0  0.59840  0.74100  0.03360  1.0000 0.1493748812
H   H123      1.0  0.58880  0.80510  0.05830  1.0000 0.141000118
H   H124      1.0  0.73510  0.68780  0.16730  1.0000 0.1493748812
H   H125      1.0  0.68440  0.64720  0.11590  1.0000 0.141000118
H   H126      1.0  0.65000  0.68670  0.13730  1.0000 0.1574938677
H   H127      1.0  0.76930  0.77870  0.11380  1.0000 0.141000118
H   H128      1.0  0.70090  0.76010  0.05830  1.0000 0.1493748812
H   H129      1.0  0.74700  0.69970  0.09760  1.0000 0.1493748812
H   H130      1.0  0.66620  0.82490  0.14230  1.0000 0.1493748812
H   H131      1.0  0.71040  0.85120  0.12440  1.0000 0.141000118
H   H132      1.0  0.74880  0.80350  0.17260  1.0000 0.1574938677
H   H133      1.0  0.42660  0.22810  0.43340  1.0000 0.1493748812
H   H134      1.0  0.40160  0.24100  0.46640  1.0000 0.1493748812
H   H135      1.0  0.41120  0.30510  0.44170  1.0000 0.141000118
H   H136      1.0  0.26490  0.18780  0.33270  1.0000 0.1493748812
H   H137      1.0  0.31560  0.14720  0.38410  1.0000 0.141000118
H   H138      1.0  0.35000  0.18670  0.36270  1.0000 0.1574938677
H   H139      1.0  0.23070  0.27870  0.38620  1.0000 0.141000118
H   H140      1.0  0.29910  0.26010  0.44170  1.0000 0.1493748812
H   H141      1.0  0.25300  0.19970  0.40240  1.0000 0.1493748812
H   H142      1.0  0.33380  0.32490  0.35770  1.0000 0.1493748812
H   H143      1.0  0.28960  0.35120  0.37560  1.0000 0.141000118
H   H144      1.0  0.25120  0.30350  0.32740  1.0000 0.1574938677
H   H145      1.0  0.42660  0.27190  0.93340  1.0000 0.1493748812
H   H146      1.0  0.40160  0.25900  0.96640  1.0000 0.1493748812
H   H147      1.0  0.41120  0.19490  0.94170  1.0000 0.141000118
H   H148      1.0  0.26490  0.31220  0.83270  1.0000 0.1493748812
H   H149      1.0  0.31560  0.35280  0.88410  1.0000 0.141000118
H   H150      1.0  0.35000  0.31330  0.86270  1.0000 0.1574938677
H   H151      1.0  0.23070  0.22130  0.88620  1.0000 0.141000118
H   H152      1.0  0.29910  0.23990  0.94170  1.0000 0.1493748812
H   H153      1.0  0.25300  0.30030  0.90240  1.0000 0.1493748812
H   H154      1.0  0.33380  0.17510  0.85770  1.0000 0.1493748812
H   H155      1.0  0.28960  0.14880  0.87560  1.0000 0.141000118
H   H156      1.0  0.25120  0.19650  0.82740  1.0000 0.1574938677
H   H157      1.0  0.57340  0.77190  0.56660  1.0000 0.1493748812
H   H158      1.0  0.59840  0.75900  0.53360  1.0000 0.1493748812
H   H159      1.0  0.58880  0.69490  0.55830  1.0000 0.141000118
H   H160      1.0  0.73510  0.81220  0.66730  1.0000 0.1493748812
H   H161      1.0  0.68440  0.85280  0.61590  1.0000 0.141000118
H   H162      1.0  0.65000  0.81330  0.63730  1.0000 0.1574938677
H   H163      1.0  0.76930  0.72130  0.61380  1.0000 0.141000118
H   H164      1.0  0.70090  0.73990  0.55830  1.0000 0.1493748812
H   H165      1.0  0.74700  0.80030  0.59760  1.0000 0.1493748812
H   H166      1.0  0.66620  0.67510  0.64230  1.0000 0.1493748812
H   H167      1.0  0.71040  0.64880  0.62440  1.0000 0.141000118
H   H168      1.0  0.74880  0.69650  0.67260  1.0000 0.1574938677
H   H169      1.0  0.98180  0.42090  0.35570  1.0000 0.141000118
H   H170      1.0  0.02390  0.48940  0.38640  1.0000 0.1574938677
H   H171      1.0  0.94920  0.49530  0.33150  1.0000 0.141000118
H   H172      1.0  0.83650  0.46740  0.31490  1.0000 0.141000118
H   H173      1.0  0.83520  0.44200  0.35840  1.0000 0.1493748812
H   H174      1.0  0.86540  0.39190  0.33830  1.0000 0.1574938677
H   H175      1.0  0.97750  0.56120  0.42380  1.0000 0.141000118
H   H176      1.0  0.89770  0.54530  0.40450  1.0000 0.141000118
H   H177      1.0  0.91020  0.57410  0.36700  1.0000 0.1493748812
H   H178      1.0  0.98340  0.38040  0.42510  1.0000 0.1493748812
H   H179      1.0  0.94820  0.42750  0.44300  1.0000 0.141000118
H   H180      1.0  0.02310  0.44950  0.45600  1.0000 0.1493748812
H   H181      1.0  0.01820  0.92090  0.14430  1.0000 0.141000118
H   H182      1.0  0.97610  0.98940  0.11360  1.0000 0.1574938677
H   H183      1.0  0.05080  0.99530  0.16850  1.0000 0.141000118
H   H184      1.0  0.16350  0.96740  0.18510  1.0000 0.141000118
H   H185      1.0  0.16480  0.94200  0.14160  1.0000 0.1493748812
H   H186      1.0  0.13460  0.89190  0.16170  1.0000 0.1574938677
H   H187      1.0  0.02250  0.06120  0.07620  1.0000 0.141000118
H   H188      1.0  0.10230  0.04530  0.09550  1.0000 0.141000118
H   H189      1.0  0.08980  0.07410  0.13300  1.0000 0.1493748812
H   H190      1.0  0.01660  0.88040  0.07490  1.0000 0.1493748812
H   H191      1.0  0.05180  0.92750  0.05700  1.0000 0.141000118
H   H192      1.0  0.97690  0.94950  0.04400  1.0000 0.1493748812
H   H193      1.0  0.01820  0.57910  0.64430  1.0000 0.141000118
H   H194      1.0  0.97610  0.51060  0.61360  1.0000 0.1574938677
H   H195      1.0  0.05080  0.50470  0.66850  1.0000 0.141000118
H   H196      1.0  0.16350  0.53260  0.68510  1.0000 0.141000118
H   H197      1.0  0.16480  0.55800  0.64160  1.0000 0.1493748812
H   H198      1.0  0.13460  0.60810  0.66170  1.0000 0.1574938677
H   H199      1.0  0.02250  0.43880  0.57620  1.0000 0.141000118
H   H200      1.0  0.10230  0.45470  0.59550  1.0000 0.141000118
H   H201      1.0  0.08980  0.42590  0.63300  1.0000 0.1493748812
H   H202      1.0  0.01660  0.61960  0.57490  1.0000 0.1493748812
H   H203      1.0  0.05180  0.57250  0.55700  1.0000 0.141000118
H   H204      1.0  0.97690  0.55050  0.54400  1.0000 0.1493748812
H   H205      1.0  0.98180  0.07910  0.85570  1.0000 0.141000118
H   H206      1.0  0.02390  0.01060  0.88640  1.0000 0.1574938677
H   H207      1.0  0.94920  0.00470  0.83150  1.0000 0.141000118
H   H208      1.0  0.83650  0.03260  0.81490  1.0000 0.141000118
H   H209      1.0  0.83520  0.05800  0.85840  1.0000 0.1493748812
H   H210      1.0  0.86540  0.10810  0.83830  1.0000 0.1574938677
H   H211      1.0  0.97750  0.93880  0.92380  1.0000 0.141000118
H   H212      1.0  0.89770  0.95470  0.90450  1.0000 0.141000118
H   H213      1.0  0.91020  0.92590  0.86700  1.0000 0.1493748812
H   H214      1.0  0.98340  0.11960  0.92510  1.0000 0.1493748812
H   H215      1.0  0.94820  0.07250  0.94300  1.0000 0.141000118
H   H216      1.0  0.02310  0.05050  0.95600  1.0000 0.1493748812
H   H217      1.0  0.34850  0.88910  0.13450  1.0000 0.1493748812
H   H218      1.0  0.36340  0.82960  0.17200  1.0000 0.1493748812
H   H219      1.0  0.42720  0.85640  0.17220  1.0000 0.1574938677
H   H220      1.0  0.47320  0.97840  0.20100  1.0000 0.1493748812
H   H221      1.0  0.43810  0.02550  0.21900  1.0000 0.1493748812
H   H222      1.0  0.39190  0.00430  0.16190  1.0000 0.1574938677
H   H223      1.0  0.30030  0.96530  0.16740  1.0000 0.1493748812
H   H224      1.0  0.34810  0.97580  0.22590  1.0000 0.1493748812
H   H225      1.0  0.31430  0.90170  0.20200  1.0000 0.1574938677
H   H226      1.0  0.44310  0.85810  0.26410  1.0000 0.1493748812
H   H227      1.0  0.47290  0.93530  0.28130  1.0000 0.1493748812
H   H228      1.0  0.50350  0.88610  0.26100  1.0000 0.1493748812
H   H229      1.0  0.65150  0.38910  0.36550  1.0000 0.1493748812
H   H230      1.0  0.63660  0.32960  0.32800  1.0000 0.1493748812
H   H231      1.0  0.57280  0.35640  0.32780  1.0000 0.1574938677
H   H232      1.0  0.52680  0.47840  0.29900  1.0000 0.1493748812
H   H233      1.0  0.56190  0.52550  0.28100  1.0000 0.1493748812
H   H234      1.0  0.60810  0.50430  0.33810  1.0000 0.1574938677
H   H235      1.0  0.69970  0.46530  0.33260  1.0000 0.1493748812
H   H236      1.0  0.65190  0.47580  0.27410  1.0000 0.1493748812
H   H237      1.0  0.68570  0.40170  0.29800  1.0000 0.1574938677
H   H238      1.0  0.55690  0.35810  0.23590  1.0000 0.1493748812
H   H239      1.0  0.52710  0.43530  0.21870  1.0000 0.1493748812
H   H240      1.0  0.49650  0.38610  0.23900  1.0000 0.1493748812
H   H241      1.0  0.65150  0.11090  0.86550  1.0000 0.1493748812
H   H242      1.0  0.63660  0.17040  0.82800  1.0000 0.1493748812
H   H243      1.0  0.57280  0.14360  0.82780  1.0000 0.1574938677
H   H244      1.0  0.52680  0.02160  0.79900  1.0000 0.1493748812
H   H245      1.0  0.56190  0.97450  0.78100  1.0000 0.1493748812
H   H246      1.0  0.60810  0.99570  0.83810  1.0000 0.1574938677
H   H247      1.0  0.69970  0.03470  0.83260  1.0000 0.1493748812
H   H248      1.0  0.65190  0.02420  0.77410  1.0000 0.1493748812
H   H249      1.0  0.68570  0.09830  0.79800  1.0000 0.1574938677
H   H250      1.0  0.55690  0.14190  0.73590  1.0000 0.1493748812
H   H251      1.0  0.52710  0.06470  0.71870  1.0000 0.1493748812
H   H252      1.0  0.49650  0.11390  0.73900  1.0000 0.1493748812
H   H253      1.0  0.34850  0.61090  0.63450  1.0000 0.1493748812
H   H254      1.0  0.36340  0.67040  0.67200  1.0000 0.1493748812
H   H255      1.0  0.42720  0.64360  0.67220  1.0000 0.1574938677
H   H256      1.0  0.47320  0.52160  0.70100  1.0000 0.1493748812
H   H257      1.0  0.43810  0.47450  0.71900  1.0000 0.1493748812
H   H258      1.0  0.39190  0.49570  0.66190  1.0000 0.1574938677
H   H259      1.0  0.30030  0.53470  0.66740  1.0000 0.1493748812
H   H260      1.0  0.34810  0.52420  0.72590  1.0000 0.1493748812
H   H261      1.0  0.31430  0.59830  0.70200  1.0000 0.1574938677
H   H262      1.0  0.44310  0.64190  0.76410  1.0000 0.1493748812
H   H263      1.0  0.47290  0.56470  0.78130  1.0000 0.1493748812
H   H264      1.0  0.50350  0.61390  0.76100  1.0000 0.1493748812
H   H265      1.0  0.66950  0.10410  0.44420  1.0000 0.141000118
H   H266      1.0  0.62050  0.03990  0.41070  1.0000 0.141000118
H   H267      1.0  0.58790  0.11640  0.39650  1.0000 0.1574938677
H   H268      1.0  0.69360  0.19450  0.40240  1.0000 0.1493748812
H   H269      1.0  0.61270  0.19250  0.35200  1.0000 0.1574938677
H   H270      1.0  0.67790  0.17490  0.35150  1.0000 0.1574938677
H   H271      1.0  0.73810  0.07090  0.37930  1.0000 0.1574938677
H   H272      1.0  0.71730  0.01170  0.40070  1.0000 0.141000118
H   H273      1.0  0.76130  0.07820  0.43370  1.0000 0.141000118
H   H274      1.0  0.54910  0.08560  0.31590  1.0000 0.1574938677
H   H275      1.0  0.59290  0.01450  0.33450  1.0000 0.141000118
H   H276      1.0  0.60540  0.06990  0.30620  1.0000 0.1574938677
H   H277      1.0  0.33050  0.60410  0.05580  1.0000 0.141000118
H   H278      1.0  0.37950  0.53990  0.08930  1.0000 0.141000118
H   H279      1.0  0.41210  0.61640  0.10350  1.0000 0.1574938677
H   H280      1.0  0.30640  0.69450  0.09760  1.0000 0.1493748812
H   H281      1.0  0.38730  0.69250  0.14800  1.0000 0.1574938677
H   H282      1.0  0.32210  0.67490  0.14850  1.0000 0.1574938677
H   H283      1.0  0.26190  0.57090  0.12070  1.0000 0.1574938677
H   H284      1.0  0.28270  0.51170  0.09930  1.0000 0.141000118
H   H285      1.0  0.23870  0.57820  0.06630  1.0000 0.141000118
H   H286      1.0  0.45090  0.58560  0.18410  1.0000 0.1574938677
H   H287      1.0  0.40710  0.51450  0.16550  1.0000 0.141000118
H   H288      1.0  0.39460  0.56990  0.19380  1.0000 0.1574938677
H   H289      1.0  0.33050  0.89590  0.55580  1.0000 0.141000118
H   H290      1.0  0.37950  0.96010  0.58930  1.0000 0.141000118
H   H291      1.0  0.41210  0.88360  0.60350  1.0000 0.1574938677
H   H292      1.0  0.30640  0.80550  0.59760  1.0000 0.1493748812
H   H293      1.0  0.38730  0.80750  0.64800  1.0000 0.1574938677
H   H294      1.0  0.32210  0.82510  0.64850  1.0000 0.1574938677
H   H295      1.0  0.26190  0.92910  0.62070  1.0000 0.1574938677
H   H296      1.0  0.28270  0.98830  0.59930  1.0000 0.141000118
H   H297      1.0  0.23870  0.92180  0.56630  1.0000 0.141000118
H   H298      1.0  0.45090  0.91440  0.68410  1.0000 0.1574938677
H   H299      1.0  0.40710  0.98550  0.66550  1.0000 0.141000118
H   H300      1.0  0.39460  0.93010  0.69380  1.0000 0.1574938677
H   H301      1.0  0.66950  0.39590  0.94420  1.0000 0.141000118
H   H302      1.0  0.62050  0.46010  0.91070  1.0000 0.141000118
H   H303      1.0  0.58790  0.38360  0.89650  1.0000 0.1574938677
H   H304      1.0  0.69360  0.30550  0.90240  1.0000 0.1493748812
H   H305      1.0  0.61270  0.30750  0.85200  1.0000 0.1574938677
H   H306      1.0  0.67790  0.32510  0.85150  1.0000 0.1574938677
H   H307      1.0  0.73810  0.42910  0.87930  1.0000 0.1574938677
H   H308      1.0  0.71730  0.48830  0.90070  1.0000 0.141000118
H   H309      1.0  0.76130  0.42180  0.93370  1.0000 0.141000118
H   H310      1.0  0.54910  0.41440  0.81590  1.0000 0.1574938677
H   H311      1.0  0.59290  0.48550  0.83450  1.0000 0.141000118
H   H312      1.0  0.60540  0.43010  0.80620  1.0000 0.1574938677
H   H313      1.0  0.71160  0.32710  0.05150  1.0000 0.141000118
H   H314      1.0  0.74030  0.40510  0.06280  1.0000 0.141000118
H   H315      1.0  0.74200  0.36230  0.10310  1.0000 0.1574938677
H   H316      1.0  0.87460  0.42780  0.12990  1.0000 0.1493748812
H   H317      1.0  0.92740  0.36340  0.15860  1.0000 0.1574938677
H   H318      1.0  0.87070  0.38330  0.16720  1.0000 0.1574938677
H   H319      1.0  0.80170  0.29510  0.03670  1.0000 0.141000118
H   H320      1.0  0.88390  0.31710  0.07760  1.0000 0.1493748812
H   H321      1.0  0.82360  0.37510  0.04580  1.0000 0.141000118
H   H322      1.0  0.82820  0.26540  0.14760  1.0000 0.1574938677
H   H323      1.0  0.88110  0.24540  0.13550  1.0000 0.1574938677
H   H324      1.0  0.79660  0.23110  0.09550  1.0000 0.141000118
H   H325      1.0  0.28840  0.82710  0.44850  1.0000 0.141000118
H   H326      1.0  0.25970  0.90510  0.43720  1.0000 0.141000118
H   H327      1.0  0.25800  0.86230  0.39690  1.0000 0.1574938677
H   H328      1.0  0.12540  0.92780  0.37010  1.0000 0.1493748812
H   H329      1.0  0.07260  0.86340  0.34140  1.0000 0.1574938677
H   H330      1.0  0.12930  0.88330  0.33280  1.0000 0.1574938677
H   H331      1.0  0.19830  0.79510  0.46330  1.0000 0.141000118
H   H332      1.0  0.11610  0.81710  0.42240  1.0000 0.1493748812
H   H333      1.0  0.17640  0.87510  0.45420  1.0000 0.141000118
H   H334      1.0  0.17180  0.76540  0.35240  1.0000 0.1574938677
H   H335      1.0  0.11890  0.74540  0.36450  1.0000 0.1574938677
H   H336      1.0  0.20340  0.73110  0.40450  1.0000 0.141000118
H   H337      1.0  0.28840  0.67290  0.94850  1.0000 0.141000118
H   H338      1.0  0.25970  0.59490  0.93720  1.0000 0.141000118
H   H339      1.0  0.25800  0.63770  0.89690  1.0000 0.1574938677
H   H340      1.0  0.12540  0.57220  0.87010  1.0000 0.1493748812
H   H341      1.0  0.07260  0.63660  0.84140  1.0000 0.1574938677
H   H342      1.0  0.12930  0.61670  0.83280  1.0000 0.1493748812
H   H343      1.0  0.19830  0.70490  0.96330  1.0000 0.141000118
H   H344      1.0  0.11610  0.68290  0.92240  1.0000 0.1493748812
H   H345      1.0  0.17640  0.62490  0.95420  1.0000 0.141000118
H   H346      1.0  0.17180  0.73460  0.85240  1.0000 0.1574938677
H   H347      1.0  0.11890  0.75460  0.86450  1.0000 0.1574938677
H   H348      1.0  0.20340  0.76890  0.90450  1.0000 0.141000118
H   H349      1.0  0.71160  0.17290  0.55150  1.0000 0.141000118
H   H350      1.0  0.74030  0.09490  0.56280  1.0000 0.141000118
H   H351      1.0  0.74200  0.13770  0.60310  1.0000 0.1574938677
H   H352      1.0  0.87460  0.07220  0.62990  1.0000 0.1493748812
H   H353      1.0  0.92740  0.13660  0.65860  1.0000 0.1574938677
H   H354      1.0  0.87070  0.11670  0.66720  1.0000 0.1493748812
H   H355      1.0  0.80170  0.20490  0.53670  1.0000 0.141000118
H   H356      1.0  0.88390  0.18290  0.57760  1.0000 0.1493748812
H   H357      1.0  0.82360  0.12490  0.54580  1.0000 0.141000118
H   H358      1.0  0.82820  0.23460  0.64760  1.0000 0.1574938677
H   H359      1.0  0.88110  0.25460  0.63550  1.0000 0.1574938677
H   H360      1.0  0.79660  0.26890  0.59550  1.0000 0.141000118
H   H361      1.0  0.52810  0.97350  0.89740  1.0000 0.1574938677
H   H362      1.0  0.47130  0.02820  0.85660  1.0000 0.1493748812
H   H363      1.0  0.45280  0.94740  0.84810  1.0000 0.1493748812
H   H364      1.0  0.50480  0.91270  0.94950  1.0000 0.1493748812
H   H365      1.0  0.42970  0.88530  0.90070  1.0000 0.1493748812
H   H366      1.0  0.43220  0.92650  0.94190  1.0000 0.1283892723
H   H367      1.0  0.45340  0.05530  0.95060  1.0000 0.141000118
H   H368      1.0  0.47330  0.09250  0.91920  1.0000 0.1493748812
H   H369      1.0  0.52850  0.03930  0.96220  1.0000 0.1493748812
H   H370      1.0  0.34003  0.96940  0.83333  1.0000 0.1574938677
H   H371      1.0  0.35180  0.04990  0.84680  1.0000 0.141000118
H   H372      1.0  0.33830  0.99760  0.87610  1.0000 0.141000118
H   H373      1.0  0.47190  0.47350  0.60260  1.0000 0.1574938677
H   H374      1.0  0.52870  0.52820  0.64340  1.0000 0.1493748812
H   H375      1.0  0.54720  0.44740  0.65190  1.0000 0.1493748812
H   H376      1.0  0.49520  0.41270  0.55050  1.0000 0.1493748812
H   H377      1.0  0.57030  0.38530  0.59930  1.0000 0.1493748812
H   H378      1.0  0.56780  0.42650  0.55810  1.0000 0.1283892723
H   H379      1.0  0.54660  0.55530  0.54940  1.0000 0.141000118
H   H380      1.0  0.52670  0.59250  0.58080  1.0000 0.1493748812
H   H381      1.0  0.47150  0.53930  0.53780  1.0000 0.1493748812
H   H382      1.0  0.65997  0.46940  0.66667  1.0000 0.1574938677
H   H383      1.0  0.64820  0.54990  0.65320  1.0000 0.141000118
H   H384      1.0  0.66170  0.49760  0.62390  1.0000 0.141000118
H   H385      1.0  0.47190  0.02650  0.10260  1.0000 0.1574938677
H   H386      1.0  0.52870  0.97180  0.14340  1.0000 0.1493748812
H   H387      1.0  0.54720  0.05260  0.15190  1.0000 0.1493748812
H   H388      1.0  0.49520  0.08730  0.05050  1.0000 0.1493748812
H   H389      1.0  0.57030  0.11470  0.09930  1.0000 0.1574938677
H   H390      1.0  0.56780  0.07350  0.05810  1.0000 0.1283892723
H   H391      1.0  0.54660  0.94470  0.04940  1.0000 0.141000118
H   H392      1.0  0.52670  0.90750  0.08080  1.0000 0.1493748812
H   H393      1.0  0.47150  0.96070  0.03780  1.0000 0.1493748812
H   H394      1.0  0.65997  0.03060  0.16667  1.0000 0.1574938677
H   H395      1.0  0.64820  0.95010  0.15320  1.0000 0.141000118
H   H396      1.0  0.66170  0.00240  0.12390  1.0000 0.141000118
H   H397      1.0  0.52810  0.52650  0.39740  1.0000 0.1574938677
H   H398      1.0  0.47130  0.47180  0.35660  1.0000 0.1493748812
H   H399      1.0  0.45280  0.55260  0.34810  1.0000 0.1493748812
H   H400      1.0  0.50480  0.58730  0.44950  1.0000 0.1493748812
H   H401      1.0  0.42970  0.61470  0.40070  1.0000 0.1574938677
H   H402      1.0  0.43220  0.57350  0.44190  1.0000 0.1283892723
H   H403      1.0  0.45340  0.44470  0.45060  1.0000 0.141000118
H   H404      1.0  0.47330  0.40750  0.41920  1.0000 0.1493748812
H   H405      1.0  0.52850  0.46070  0.46220  1.0000 0.1493748812
H   H406      1.0  0.34003  0.53060  0.33333  1.0000 0.1574938677
H   H407      1.0  0.35180  0.45010  0.34680  1.0000 0.141000118
H   H408      1.0  0.33830  0.50240  0.37610  1.0000 0.141000118
H   H409      1.0  0.14340  0.59340  0.34610  1.0000 0.1493748812
H   H410      1.0  0.10950  0.53240  0.35690  1.0000 0.1493748812
H   H411      1.0  0.05850  0.59020  0.31650  1.0000 0.1574938677
H   H412      1.0  0.06820  0.53740  0.22360  1.0000 0.1493748812
H   H413      1.0  0.12560  0.59100  0.26530  1.0000 0.1574938677
H   H414      1.0  0.04260  0.59770  0.24120  1.0000 0.1493748812
H   H415      1.0  0.15750  0.44490  0.29200  1.0000 0.1493748812
H   H416      1.0  0.17190  0.45030  0.34370  1.0000 0.1493748812
H   H417      1.0  0.20290  0.50820  0.32850  1.0000 0.1493748812
H   H418      1.0  0.98660  0.49680  0.25450  1.0000 0.1493748812
H   H419      1.0  0.03890  0.43900  0.29440  1.0000 0.141000118
H   H420      1.0  0.02460  0.44240  0.24260  1.0000 0.1493748812
H   H421      1.0  0.85660  0.09340  0.15390  1.0000 0.1493748812
H   H422      1.0  0.89050  0.03240  0.14310  1.0000 0.1493748812
H   H423      1.0  0.94150  0.09020  0.18350  1.0000 0.1574938677
H   H424      1.0  0.93180  0.03740  0.27640  1.0000 0.1493748812
H   H425      1.0  0.87440  0.09100  0.23470  1.0000 0.1574938677
H   H426      1.0  0.95740  0.09770  0.25880  1.0000 0.1493748812
H   H427      1.0  0.84250  0.94490  0.20800  1.0000 0.1493748812
H   H428      1.0  0.82810  0.95030  0.15630  1.0000 0.1493748812
H   H429      1.0  0.79710  0.00820  0.17150  1.0000 0.1493748812
H   H430      1.0  0.01340  0.99680  0.24550  1.0000 0.1574938677
H   H431      1.0  0.96110  0.93900  0.20560  1.0000 0.141000118
H   H432      1.0  0.97540  0.94240  0.25740  1.0000 0.1493748812
H   H433      1.0  0.85660  0.40660  0.65390  1.0000 0.1493748812
H   H434      1.0  0.89050  0.46760  0.64310  1.0000 0.1493748812
H   H435      1.0  0.94150  0.40980  0.68350  1.0000 0.1574938677
H   H436      1.0  0.93180  0.46260  0.77640  1.0000 0.1493748812
H   H437      1.0  0.87440  0.40900  0.73470  1.0000 0.1574938677
H   H438      1.0  0.95740  0.40230  0.75880  1.0000 0.1493748812
H   H439      1.0  0.84250  0.55510  0.70800  1.0000 0.1493748812
H   H440      1.0  0.82810  0.54970  0.65630  1.0000 0.1493748812
H   H441      1.0  0.79710  0.49180  0.67150  1.0000 0.1493748812
H   H442      1.0  0.01340  0.50320  0.74550  1.0000 0.1574938677
H   H443      1.0  0.96110  0.56100  0.70560  1.0000 0.141000118
H   H444      1.0  0.97540  0.55760  0.75740  1.0000 0.1493748812
H   H445      1.0  0.14340  0.90660  0.84610  1.0000 0.1493748812
H   H446      1.0  0.10950  0.96760  0.85690  1.0000 0.1493748812
H   H447      1.0  0.05850  0.90980  0.81650  1.0000 0.1574938677
H   H448      1.0  0.06820  0.96260  0.72360  1.0000 0.1493748812
H   H449      1.0  0.12560  0.90900  0.76530  1.0000 0.1574938677
H   H450      1.0  0.04260  0.90230  0.74120  1.0000 0.1493748812
H   H451      1.0  0.15750  0.05510  0.79200  1.0000 0.1493748812
H   H452      1.0  0.17190  0.04970  0.84370  1.0000 0.1493748812
H   H453      1.0  0.20290  0.99180  0.82850  1.0000 0.1493748812
H   H454      1.0  0.98660  0.00320  0.75450  1.0000 0.1493748812
H   H455      1.0  0.03890  0.06100  0.79440  1.0000 0.141000118
H   H456      1.0  0.02460  0.05760  0.74260  1.0000 0.1493748812
C   C1        1.0  0.82220  0.24790  0.90780  1.0000 0.5494274794
C   C2        1.0  0.17780  0.74790  0.59220  1.0000 0.5494274794
C   C3        1.0  0.17780  0.75210  0.09220  1.0000 0.5494274794
C   C4        1.0  0.82220  0.25210  0.40780  1.0000 0.5494274794
C   C5        1.0  0.83960  0.19100  0.94610  1.0000 -0.0214781653
C   C6        1.0  0.16040  0.69100  0.55390  1.0000 -0.0214781653
C   C7        1.0  0.16040  0.80900  0.05390  1.0000 -0.0214781653
C   C8        1.0  0.83960  0.30900  0.44610  1.0000 -0.0214781653
C   C9        1.0  0.62380  0.28260  0.70880  1.0000 0.5892173697
C   C10       1.0  0.37620  0.78260  0.79120  1.0000 0.5892173697
C   C11       1.0  0.37620  0.71740  0.29120  1.0000 0.5892173697
C   C12       1.0  0.62380  0.21740  0.20880  1.0000 0.5892173697
C   C13       1.0  0.88100  0.21090  0.99820  1.0000 -0.120525484
C   C14       1.0  0.11900  0.71090  0.50180  1.0000 -0.120525484
C   C15       1.0  0.11900  0.78910  0.00180  1.0000 -0.120525484
C   C16       1.0  0.88100  0.28910  0.49820  1.0000 -0.120525484
C   C17       1.0  0.89590  0.15810  0.03250  1.0000 -0.0418039552
C   C18       1.0  0.10410  0.65810  0.46750  1.0000 -0.0418039552
C   C19       1.0  0.10410  0.84190  0.96750  1.0000 -0.0418039552
C   C20       1.0  0.89590  0.34190  0.53250  1.0000 -0.0418039552
C   C21       1.0  0.87240  0.09010  0.01570  1.0000 -0.1077872443
C   C22       1.0  0.12760  0.59010  0.48430  1.0000 -0.1077872443
C   C23       1.0  0.12760  0.90990  0.98430  1.0000 -0.1077872443
C   C24       1.0  0.87240  0.40990  0.51570  1.0000 -0.1077872443
C   C25       1.0  0.83620  0.06930  0.96590  1.0000 -0.0214781653
C   C26       1.0  0.16380  0.56930  0.53410  1.0000 -0.0214781653
C   C27       1.0  0.16380  0.93070  0.03410  1.0000 -0.0214781653
C   C28       1.0  0.83620  0.43070  0.46590  1.0000 -0.0214781653
C   C29       1.0  0.81970  0.12310  0.93080  1.0000 -0.120525484
C   C30       1.0  0.18030  0.62310  0.56920  1.0000 -0.120525484
C   C31       1.0  0.18030  0.87690  0.06920  1.0000 -0.120525484
C   C32       1.0  0.81970  0.37690  0.43080  1.0000 -0.120525484
C   C33       1.0  0.74240  0.41150  0.79370  1.0000 0.5328494955
C   C34       1.0  0.25760  0.91150  0.70630  1.0000 0.5328494955
C   C35       1.0  0.25760  0.58850  0.20630  1.0000 0.5328494955
C   C36       1.0  0.74240  0.08850  0.29370  1.0000 0.5328494955
C   C37       1.0  0.54550  0.29130  0.68740  1.0000 -0.0281941954
C   C38       1.0  0.45450  0.79130  0.81260  1.0000 -0.0281941954
C   C39       1.0  0.45450  0.70870  0.31260  1.0000 -0.0281941954
C   C40       1.0  0.54550  0.20870  0.18740  1.0000 -0.0281941954
C   C41       1.0  0.49150  0.30830  0.63610  1.0000 -0.120525484
C   C42       1.0  0.50850  0.80830  0.86390  1.0000 -0.120525484
C   C43       1.0  0.50850  0.69170  0.36390  1.0000 -0.120525484
C   C44       1.0  0.49150  0.19170  0.13610  1.0000 -0.120525484
C   C45       1.0  0.85740  0.25620  0.77630  1.0000 0.5962182332
C   C46       1.0  0.14260  0.75620  0.72370  1.0000 0.5962182332
C   C47       1.0  0.14260  0.74380  0.22370  1.0000 0.5962182332
C   C48       1.0  0.85740  0.24380  0.27630  1.0000 0.5962182332
C   C49       1.0  0.93610  0.24150  0.79920  1.0000 -0.0139672894
C   C50       1.0  0.06390  0.74150  0.70080  1.0000 -0.0139672894
C   C51       1.0  0.06390  0.75850  0.20080  1.0000 -0.0139672894
C   C52       1.0  0.93610  0.25850  0.29920  1.0000 -0.0139672894
C   C53       1.0  0.98670  0.22300  0.84970  1.0000 -0.120525484
C   C54       1.0  0.01330  0.72300  0.65030  1.0000 -0.120525484
C   C55       1.0  0.01330  0.77700  0.15030  1.0000 -0.120525484
C   C56       1.0  0.98670  0.27700  0.34970  1.0000 -0.120525484
C   C57       1.0  0.95880  0.24640  0.77120  1.0000 -0.0927123789
C   C58       1.0  0.04120  0.74640  0.72880  1.0000 -0.0927123789
C   C59       1.0  0.04120  0.75360  0.22880  1.0000 -0.0927123789
C   C60       1.0  0.95880  0.25360  0.27120  1.0000 -0.0927123789
C   C61       1.0  0.30680  0.66560  0.39670  1.0000 0.5400287359
C   C62       1.0  0.69320  0.16560  0.10330  1.0000 0.5400287359
C   C63       1.0  0.69320  0.33440  0.60330  1.0000 0.5400287359
C   C64       1.0  0.30680  0.83440  0.89670  1.0000 0.5400287359
C   C65       1.0  0.74780  0.12320  0.69490  1.0000 0.5494274794
C   C66       1.0  0.25220  0.62320  0.80510  1.0000 0.5494274794
C   C67       1.0  0.25220  0.87680  0.30510  1.0000 0.5494274794
C   C68       1.0  0.74780  0.37680  0.19490  1.0000 0.5494274794
C   C69       1.0  0.74680  0.04670  0.70800  1.0000 -0.0011436173
C   C70       1.0  0.25320  0.54670  0.79200  1.0000 -0.0011436173
C   C71       1.0  0.25320  0.95330  0.29200  1.0000 -0.0011436173
C   C72       1.0  0.74680  0.45330  0.20800  1.0000 -0.0011436173
C   C73       1.0  0.68520  0.01990  0.70110  1.0000 -0.120525484
C   C74       1.0  0.31480  0.51990  0.79890  1.0000 -0.120525484
C   C75       1.0  0.31480  0.98010  0.29890  1.0000 -0.120525484
C   C76       1.0  0.68520  0.48010  0.20110  1.0000 -0.120525484
C   C77       1.0  0.68420  0.95100  0.71280  1.0000 -0.0214781653
C   C78       1.0  0.31580  0.45100  0.78720  1.0000 -0.0214781653
C   C79       1.0  0.31580  0.04900  0.28720  1.0000 -0.0214781653
C   C80       1.0  0.68420  0.54900  0.21280  1.0000 -0.0214781653
C   C81       1.0  0.74720  0.90860  0.73500  1.0000 -0.1077872443
C   C82       1.0  0.25280  0.40860  0.76500  1.0000 -0.1077872443
C   C83       1.0  0.25280  0.09140  0.26500  1.0000 -0.1077872443
C   C84       1.0  0.74720  0.59140  0.23500  1.0000 -0.1077872443
C   C85       1.0  0.80810  0.93500  0.74170  1.0000 -0.0418039552
C   C86       1.0  0.19190  0.43500  0.75830  1.0000 -0.0418039552
C   C87       1.0  0.19190  0.06500  0.25830  1.0000 -0.0418039552
C   C88       1.0  0.80810  0.56500  0.24170  1.0000 -0.0418039552
C   C89       1.0  0.80570  0.00190  0.72620  1.0000 -0.1312675085
C   C90       1.0  0.19430  0.50190  0.77380  1.0000 -0.1312675085
C   C91       1.0  0.19430  0.99810  0.27380  1.0000 -0.1312675085
C   C92       1.0  0.80570  0.49810  0.22620  1.0000 -0.1312675085
C   C93       1.0  0.61410  0.91750  0.69790  1.0000 0.5594135363
C   C94       1.0  0.38590  0.41750  0.80210  1.0000 0.5594135363
C   C95       1.0  0.38590  0.08250  0.30210  1.0000 0.5594135363
C   C96       1.0  0.61410  0.58250  0.19790  1.0000 0.5594135363
C   C97       1.0  0.05820  0.23190  0.76140  1.0000 0.5494274794
C   C98       1.0  0.94180  0.73190  0.73860  1.0000 0.5494274794
C   C99       1.0  0.94180  0.76810  0.23860  1.0000 0.5494274794
C   C100      1.0  0.05820  0.26810  0.26140  1.0000 0.5494274794
C   C101      1.0  0.87510  0.89060  0.76640  1.0000 0.5594135363
C   C102      1.0  0.12490  0.39060  0.73360  1.0000 0.5594135363
C   C103      1.0  0.12490  0.10940  0.23360  1.0000 0.5594135363
C   C104      1.0  0.87510  0.60940  0.26640  1.0000 0.5594135363
C   C105      1.0  0.45050  0.75320  0.57710  1.0000 0.5400287359
C   C106      1.0  0.54950  0.25320  0.92290  1.0000 0.5400287359
C   C107      1.0  0.54950  0.24680  0.42290  1.0000 0.5400287359
C   C108      1.0  0.45050  0.74680  0.07710  1.0000 0.5400287359
C   C109      1.0  0.07620  0.20500  0.83930  1.0000 -0.1312675085
C   C110      1.0  0.92380  0.70500  0.66070  1.0000 -0.1312675085
C   C111      1.0  0.92380  0.79500  0.16070  1.0000 -0.1312675085
C   C112      1.0  0.07620  0.29500  0.33930  1.0000 -0.1312675085
C   C113      1.0  0.39970  0.70170  0.53590  1.0000 -0.0281941954
C   C114      1.0  0.60030  0.20170  0.96410  1.0000 -0.0281941954
C   C115      1.0  0.60030  0.29830  0.46410  1.0000 -0.0281941954
C   C116      1.0  0.39970  0.79830  0.03590  1.0000 -0.0281941954
C   C117      1.0  0.37870  0.70810  0.48750  1.0000 -0.1312675085
C   C118      1.0  0.62130  0.20810  0.01250  1.0000 -0.1312675085
C   C119      1.0  0.62130  0.29190  0.51250  1.0000 -0.1312675085
C   C120      1.0  0.37870  0.79190  0.98750  1.0000 -0.1312675085
C   C121      1.0  0.33070  0.66120  0.44910  1.0000 -0.0418039552
C   C122      1.0  0.66930  0.16120  0.05090  1.0000 -0.0418039552
C   C123      1.0  0.66930  0.33880  0.55090  1.0000 -0.0418039552
C   C124      1.0  0.33070  0.83880  0.94910  1.0000 -0.0418039552
C   C125      1.0  0.30550  0.60470  0.46040  1.0000 -0.120525484
C   C126      1.0  0.69450  0.10470  0.03960  1.0000 -0.120525484
C   C127      1.0  0.69450  0.39530  0.53960  1.0000 -0.120525484
C   C128      1.0  0.30550  0.89530  0.96040  1.0000 -0.120525484
C   C129      1.0  0.32570  0.59500  0.50900  1.0000 -0.0214781653
C   C130      1.0  0.67430  0.09500  0.99100  1.0000 -0.0214781653
C   C131      1.0  0.67430  0.40500  0.49100  1.0000 -0.0214781653
C   C132      1.0  0.32570  0.90500  0.00900  1.0000 -0.0214781653
C   C133      1.0  0.37240  0.64390  0.54570  1.0000 -0.1077872443
C   C134      1.0  0.62760  0.14390  0.95430  1.0000 -0.1077872443
C   C135      1.0  0.62760  0.35610  0.45430  1.0000 -0.1077872443
C   C136      1.0  0.37240  0.85610  0.04570  1.0000 -0.1077872443
C   C137      1.0  0.29960  0.53240  0.52030  1.0000 0.5594135363
C   C138      1.0  0.70040  0.03240  0.97970  1.0000 0.5594135363
C   C139      1.0  0.70040  0.46760  0.47970  1.0000 0.5594135363
C   C140      1.0  0.29960  0.96760  0.02030  1.0000 0.5594135363
C   C141      1.0  0.43060  0.29250  0.73190  1.0000 0.5494274794
C   C142      1.0  0.56940  0.79250  0.76810  1.0000 0.5494274794
C   C143      1.0  0.56940  0.70750  0.26810  1.0000 0.5494274794
C   C144      1.0  0.43060  0.20750  0.23190  1.0000 0.5494274794
C   C145      1.0  0.45350  0.29950  0.69910  1.0000 -0.0214781653
C   C146      1.0  0.54650  0.79950  0.80090  1.0000 -0.0214781653
C   C147      1.0  0.54650  0.70050  0.30090  1.0000 -0.0214781653
C   C148      1.0  0.45350  0.20050  0.19910  1.0000 -0.0214781653
C   C149      1.0  0.52510  0.28940  0.71740  1.0000 -0.1077872443
C   C150      1.0  0.47490  0.78940  0.78260  1.0000 -0.1077872443
C   C151      1.0  0.47490  0.71060  0.28260  1.0000 -0.1077872443
C   C152      1.0  0.52510  0.21060  0.21740  1.0000 -0.1077872443
C   C153      1.0  0.61410  0.64330  0.71780  1.0000 0.5594135363
C   C154      1.0  0.38590  0.14330  0.78220  1.0000 0.5594135363
C   C155      1.0  0.38590  0.35670  0.28220  1.0000 0.5594135363
C   C156      1.0  0.61410  0.85670  0.21780  1.0000 0.5594135363
C   C157      1.0  0.68550  0.60240  0.74770  1.0000 -0.0214781653
C   C158      1.0  0.31450  0.10240  0.75230  1.0000 -0.0214781653
C   C159      1.0  0.31450  0.39760  0.25230  1.0000 -0.0214781653
C   C160      1.0  0.68550  0.89760  0.24770  1.0000 -0.0214781653
C   C161      1.0  0.68320  0.53260  0.76010  1.0000 -0.1312675085
C   C162      1.0  0.31680  0.03260  0.73990  1.0000 -0.1312675085
C   C163      1.0  0.31680  0.46740  0.23990  1.0000 -0.1312675085
C   C164      1.0  0.68320  0.96740  0.26010  1.0000 -0.1312675085
C   C165      1.0  0.74580  0.49060  0.78260  1.0000 0.0083931352
C   C166      1.0  0.25420  0.99060  0.71740  1.0000 0.0083931352
C   C167      1.0  0.25420  0.50940  0.21740  1.0000 0.0083931352
C   C168      1.0  0.74580  0.00940  0.28260  1.0000 0.0083931352
C   C169      1.0  0.81000  0.51870  0.79470  1.0000 -0.1312675085
C   C170      1.0  0.19000  0.01870  0.70530  1.0000 -0.1312675085
C   C171      1.0  0.19000  0.48130  0.20530  1.0000 -0.1312675085
C   C172      1.0  0.81000  0.98130  0.29470  1.0000 -0.1312675085
C   C173      1.0  0.81280  0.59030  0.78630  1.0000 -0.0214781653
C   C174      1.0  0.18720  0.09030  0.71370  1.0000 -0.0214781653
C   C175      1.0  0.18720  0.40970  0.21370  1.0000 -0.0214781653
C   C176      1.0  0.81280  0.90970  0.28630  1.0000 -0.0214781653
C   C177      1.0  0.75020  0.63050  0.76220  1.0000 -0.120525484
C   C178      1.0  0.24980  0.13050  0.73780  1.0000 -0.120525484
C   C179      1.0  0.24980  0.36950  0.23780  1.0000 -0.120525484
C   C180      1.0  0.75020  0.86950  0.26220  1.0000 -0.120525484
C   C181      1.0  0.88500  0.62200  0.80490  1.0000 0.5594135363
C   C182      1.0  0.11500  0.12200  0.69510  1.0000 0.5594135363
C   C183      1.0  0.11500  0.37800  0.19510  1.0000 0.5594135363
C   C184      1.0  0.88500  0.87800  0.30490  1.0000 0.5594135363
C   C185      1.0  0.82040  0.99380  0.94840  1.0000 0.5494274794
C   C186      1.0  0.17960  0.49380  0.55160  1.0000 0.5494274794
C   C187      1.0  0.17960  0.00620  0.05160  1.0000 0.5494274794
C   C188      1.0  0.82040  0.50620  0.44840  1.0000 0.5494274794
C   C189      1.0  0.36220  0.34270  0.56290  1.0000 0.5665779907
C   C190      1.0  0.63780  0.84270  0.93710  1.0000 0.5665779907
C   C191      1.0  0.63780  0.65730  0.43710  1.0000 0.5665779907
C   C192      1.0  0.36220  0.15730  0.06290  1.0000 0.5665779907
C   C193      1.0  0.41920  0.32180  0.61740  1.0000 -0.0214781653
C   C194      1.0  0.58080  0.82180  0.88260  1.0000 -0.0214781653
C   C195      1.0  0.58080  0.67820  0.38260  1.0000 -0.0214781653
C   C196      1.0  0.41920  0.17820  0.11740  1.0000 -0.0214781653
C   C197      1.0  0.40130  0.31760  0.64890  1.0000 -0.1077872443
C   C198      1.0  0.59870  0.81760  0.85110  1.0000 -0.1077872443
C   C199      1.0  0.59870  0.68240  0.35110  1.0000 -0.1077872443
C   C200      1.0  0.40130  0.18240  0.14890  1.0000 -0.1077872443
C   C201      1.0  0.10770  0.17440  0.92330  1.0000 0.5494274794
C   C202      1.0  0.89230  0.67440  0.57670  1.0000 0.5494274794
C   C203      1.0  0.89230  0.82560  0.07670  1.0000 0.5494274794
C   C204      1.0  0.10770  0.32560  0.42330  1.0000 0.5494274794
C   C205      1.0  0.94050  0.17310  0.08720  1.0000 0.5400287359
C   C206      1.0  0.05950  0.67310  0.41280  1.0000 0.5400287359
C   C207      1.0  0.05950  0.82690  0.91280  1.0000 0.5400287359
C   C208      1.0  0.94050  0.32690  0.58720  1.0000 0.5400287359
C   C209      1.0  0.02870  0.22850  0.78940  1.0000 -0.0281941954
C   C210      1.0  0.97130  0.72850  0.71060  1.0000 -0.0281941954
C   C211      1.0  0.97130  0.77150  0.21060  1.0000 -0.0281941954
C   C212      1.0  0.02870  0.27150  0.28940  1.0000 -0.0281941954
C   C213      1.0  0.05550  0.20220  0.86940  1.0000 -0.0214781653
C   C214      1.0  0.94450  0.70220  0.63060  1.0000 -0.0214781653
C   C215      1.0  0.94450  0.79780  0.13060  1.0000 -0.0214781653
C   C216      1.0  0.05550  0.29780  0.36940  1.0000 -0.0214781653
C   C217      1.0  0.91720  0.72720  0.43790  1.0000 -0.351315384
C   C218      1.0  0.80160  0.71980  0.42200  1.0000 -0.3397199537
C   C219      1.0  0.82220  0.81150  0.38270  1.0000 -0.3397199537
C   C220      1.0  0.80680  0.69260  0.35540  1.0000 -0.3594151781
C   C221      1.0  0.08280  0.22720  0.06210  1.0000 -0.351315384
C   C222      1.0  0.19840  0.21980  0.07800  1.0000 -0.3397199537
C   C223      1.0  0.17780  0.31150  0.11730  1.0000 -0.3397199537
C   C224      1.0  0.19320  0.19260  0.14460  1.0000 -0.3594151781
C   C225      1.0  0.08280  0.27280  0.56210  1.0000 -0.351315384
C   C226      1.0  0.19840  0.28020  0.57800  1.0000 -0.3397199537
C   C227      1.0  0.17780  0.18850  0.61730  1.0000 -0.3397199537
C   C228      1.0  0.19320  0.30740  0.64460  1.0000 -0.3594151781
C   C229      1.0  0.91720  0.77280  0.93790  1.0000 -0.351315384
C   C230      1.0  0.80160  0.78020  0.92200  1.0000 -0.3397199537
C   C231      1.0  0.82220  0.68850  0.88270  1.0000 -0.3397199537
C   C232      1.0  0.80680  0.80740  0.85540  1.0000 -0.3594151781
C   C233      1.0  0.60370  0.75660  0.06270  1.0000 -0.3594151781
C   C234      1.0  0.68830  0.68790  0.13430  1.0000 -0.3320072319
C   C235      1.0  0.72870  0.74680  0.09310  1.0000 -0.3397199537
C   C236      1.0  0.70350  0.81270  0.13950  1.0000 -0.3697591226
C   C237      1.0  0.39630  0.25660  0.43730  1.0000 -0.3594151781
C   C238      1.0  0.31170  0.18790  0.36570  1.0000 -0.3320072319
C   C239      1.0  0.27130  0.24680  0.40690  1.0000 -0.3397199537
C   C240      1.0  0.29650  0.31270  0.36050  1.0000 -0.3697591226
C   C241      1.0  0.39630  0.24340  0.93730  1.0000 -0.3594151781
C   C242      1.0  0.31170  0.31210  0.86570  1.0000 -0.3320072319
C   C243      1.0  0.27130  0.25320  0.90690  1.0000 -0.3397199537
C   C244      1.0  0.29650  0.18730  0.86050  1.0000 -0.3697591226
C   C245      1.0  0.60370  0.74340  0.56270  1.0000 -0.3594151781
C   C246      1.0  0.68830  0.81210  0.63430  1.0000 -0.3320072319
C   C247      1.0  0.72870  0.75320  0.59310  1.0000 -0.3397199537
C   C248      1.0  0.70350  0.68730  0.63950  1.0000 -0.3697591226
C   C249      1.0  0.97630  0.46860  0.36240  1.0000 -0.351315384
C   C250      1.0  0.86180  0.44000  0.34540  1.0000 -0.3594151781
C   C251      1.0  0.92980  0.54440  0.39580  1.0000 -0.3697591226
C   C252      1.0  0.97630  0.42790  0.43110  1.0000 -0.3594151781
C   C253      1.0  0.02370  0.96860  0.13760  1.0000 -0.351315384
C   C254      1.0  0.13820  0.94000  0.15460  1.0000 -0.3594151781
C   C255      1.0  0.07020  0.04440  0.10420  1.0000 -0.3697591226
C   C256      1.0  0.02370  0.92790  0.06890  1.0000 -0.3594151781
C   C257      1.0  0.02370  0.53140  0.63760  1.0000 -0.351315384
C   C258      1.0  0.13820  0.56000  0.65460  1.0000 -0.3594151781
C   C259      1.0  0.07020  0.45560  0.60420  1.0000 -0.3697591226
C   C260      1.0  0.02370  0.57210  0.56890  1.0000 -0.3594151781
C   C261      1.0  0.97630  0.03140  0.86240  1.0000 -0.351315384
C   C262      1.0  0.86180  0.06000  0.84540  1.0000 -0.3594151781
C   C263      1.0  0.92980  0.95560  0.89580  1.0000 -0.3697591226
C   C264      1.0  0.97630  0.07210  0.93110  1.0000 -0.3594151781
C   C265      1.0  0.38390  0.87010  0.16780  1.0000 -0.3594151781
C   C266      1.0  0.42880  0.98890  0.19600  1.0000 -0.351315384
C   C267      1.0  0.33520  0.94350  0.19970  1.0000 -0.3697591226
C   C268      1.0  0.46070  0.89870  0.25760  1.0000 -0.3594151781
C   C269      1.0  0.61610  0.37010  0.33220  1.0000 -0.351315384
C   C270      1.0  0.57120  0.48890  0.30400  1.0000 -0.351315384
C   C271      1.0  0.66480  0.44350  0.30030  1.0000 -0.3697591226
C   C272      1.0  0.53930  0.39870  0.24240  1.0000 -0.3594151781
C   C273      1.0  0.61610  0.12990  0.83220  1.0000 -0.351315384
C   C274      1.0  0.57120  0.01110  0.80400  1.0000 -0.351315384
C   C275      1.0  0.66480  0.05650  0.80030  1.0000 -0.3697591226
C   C276      1.0  0.53930  0.10130  0.74240  1.0000 -0.3594151781
C   C277      1.0  0.38390  0.62990  0.66780  1.0000 -0.3594151781
C   C278      1.0  0.42880  0.51110  0.69600  1.0000 -0.351315384
C   C279      1.0  0.33520  0.55650  0.69970  1.0000 -0.3697591226
C   C280      1.0  0.46070  0.60130  0.75760  1.0000 -0.3594151781
C   C281      1.0  0.63110  0.08880  0.41040  1.0000 -0.351315384
C   C282      1.0  0.66020  0.17100  0.37050  1.0000 -0.351315384
C   C283      1.0  0.72380  0.06150  0.40000  1.0000 -0.3397199537
C   C284      1.0  0.59520  0.06390  0.32940  1.0000 -0.351315384
C   C285      1.0  0.36890  0.58880  0.08960  1.0000 -0.351315384
C   C286      1.0  0.33980  0.67100  0.12950  1.0000 -0.351315384
C   C287      1.0  0.27620  0.56150  0.10000  1.0000 -0.3397199537
C   C288      1.0  0.40480  0.56390  0.17060  1.0000 -0.351315384
C   C289      1.0  0.36890  0.91120  0.58960  1.0000 -0.351315384
C   C290      1.0  0.33980  0.82900  0.62950  1.0000 -0.351315384
C   C291      1.0  0.27620  0.93850  0.60000  1.0000 -0.3397199537
C   C292      1.0  0.40480  0.93610  0.67060  1.0000 -0.351315384
C   C293      1.0  0.63110  0.41120  0.91040  1.0000 -0.351315384
C   C294      1.0  0.66020  0.32900  0.87050  1.0000 -0.351315384
C   C295      1.0  0.72380  0.43850  0.90000  1.0000 -0.3397199537
C   C296      1.0  0.59520  0.43610  0.82940  1.0000 -0.351315384
C   C297      1.0  0.74740  0.35920  0.07730  1.0000 -0.351315384
C   C298      1.0  0.87900  0.38130  0.14280  1.0000 -0.351315384
C   C299      1.0  0.83400  0.32980  0.06170  1.0000 -0.3594151781
C   C300      1.0  0.83310  0.26260  0.12150  1.0000 -0.351315384
C   C301      1.0  0.25260  0.85920  0.42270  1.0000 -0.351315384
C   C302      1.0  0.12100  0.88130  0.35720  1.0000 -0.351315384
C   C303      1.0  0.16600  0.82980  0.43830  1.0000 -0.3594151781
C   C304      1.0  0.16690  0.76260  0.37850  1.0000 -0.351315384
C   C305      1.0  0.25260  0.64080  0.92270  1.0000 -0.351315384
C   C306      1.0  0.12100  0.61870  0.85720  1.0000 -0.351315384
C   C307      1.0  0.16600  0.67020  0.93830  1.0000 -0.3594151781
C   C308      1.0  0.16690  0.73740  0.87850  1.0000 -0.351315384
C   C309      1.0  0.74740  0.14080  0.57730  1.0000 -0.351315384
C   C310      1.0  0.87900  0.11870  0.64280  1.0000 -0.351315384
C   C311      1.0  0.83400  0.17020  0.56170  1.0000 -0.3594151781
C   C312      1.0  0.83310  0.23740  0.62150  1.0000 -0.351315384
C   C313      1.0  0.47690  0.98440  0.87290  1.0000 -0.3594151781
C   C314      1.0  0.45330  0.92270  0.92510  1.0000 -0.3697591226
C   C315      1.0  0.47760  0.04970  0.93600  1.0000 -0.3697591226
C   C316      1.0  0.36070  0.00300  0.86020  1.0000 -0.3697591226
C   C317      1.0  0.52310  0.48440  0.62710  1.0000 -0.3594151781
C   C318      1.0  0.54670  0.42270  0.57490  1.0000 -0.3697591226
C   C319      1.0  0.52240  0.54970  0.56400  1.0000 -0.3697591226
C   C320      1.0  0.63930  0.50300  0.63980  1.0000 -0.3697591226
C   C321      1.0  0.52310  0.01560  0.12710  1.0000 -0.3594151781
C   C322      1.0  0.54670  0.07730  0.07490  1.0000 -0.3697591226
C   C323      1.0  0.52240  0.95030  0.06400  1.0000 -0.3697591226
C   C324      1.0  0.63930  0.99700  0.13980  1.0000 -0.3697591226
C   C325      1.0  0.47690  0.51560  0.37290  1.0000 -0.3594151781
C   C326      1.0  0.45330  0.57730  0.42510  1.0000 -0.3697591226
C   C327      1.0  0.47760  0.45030  0.43600  1.0000 -0.3697591226
C   C328      1.0  0.36070  0.49700  0.36020  1.0000 -0.3697591226
C   C329      1.0  0.10200  0.56260  0.33130  1.0000 -0.351315384
C   C330      1.0  0.08140  0.56520  0.25190  1.0000 -0.351315384
C   C331      1.0  0.16270  0.47670  0.31610  1.0000 -0.3594151781
C   C332      1.0  0.03040  0.46990  0.26870  1.0000 -0.3594151781
C   C333      1.0  0.89800  0.06260  0.16870  1.0000 -0.351315384
C   C334      1.0  0.91860  0.06520  0.24810  1.0000 -0.351315384
C   C335      1.0  0.83730  0.97670  0.18390  1.0000 -0.3594151781
C   C336      1.0  0.96960  0.96990  0.23130  1.0000 -0.3594151781
C   C337      1.0  0.89800  0.43740  0.66870  1.0000 -0.351315384
C   C338      1.0  0.91860  0.43480  0.74810  1.0000 -0.351315384
C   C339      1.0  0.83730  0.52330  0.68390  1.0000 -0.3594151781
C   C340      1.0  0.96960  0.53010  0.73130  1.0000 -0.3594151781
C   C341      1.0  0.10200  0.93740  0.83130  1.0000 -0.351315384
C   C342      1.0  0.08140  0.93480  0.75190  1.0000 -0.351315384
C   C343      1.0  0.16270  0.02330  0.81610  1.0000 -0.3594151781
C   C344      1.0  0.03040  0.03010  0.76870  1.0000 -0.3594151781
N   N1        1.0  0.83580  0.73810  0.39870  1.0000 0.2981758117
N   N2        1.0  0.16420  0.23810  0.10130  1.0000 0.2981758117
N   N3        1.0  0.16420  0.26190  0.60130  1.0000 0.2981758117
N   N4        1.0  0.83580  0.76190  0.89870  1.0000 0.2981758117
N   N5        1.0  0.68120  0.74980  0.10810  1.0000 0.2981758117
N   N6        1.0  0.31880  0.24980  0.39190  1.0000 0.2981758117
N   N7        1.0  0.31880  0.25020  0.89190  1.0000 0.2981758117
N   N8        1.0  0.68120  0.75020  0.60810  1.0000 0.2981758117
N   N9        1.0  0.93630  0.46900  0.38320  1.0000 0.3177735221
N   N10       1.0  0.06370  0.96900  0.11680  1.0000 0.3177735221
N   N11       1.0  0.06370  0.53100  0.61680  1.0000 0.3177735221
N   N12       1.0  0.93630  0.03100  0.88320  1.0000 0.3177735221
N   N13       1.0  0.40290  0.92420  0.20570  1.0000 0.3123963573
N   N14       1.0  0.59710  0.42420  0.29430  1.0000 0.3123963573
N   N15       1.0  0.59710  0.07580  0.79430  1.0000 0.3123963573
N   N16       1.0  0.40290  0.57580  0.70570  1.0000 0.3123963573
N   N17       1.0  0.65500  0.09780  0.37900  1.0000 0.2981758117
N   N18       1.0  0.34500  0.59780  0.12100  1.0000 0.2981758117
N   N19       1.0  0.34500  0.90220  0.62100  1.0000 0.2981758117
N   N20       1.0  0.65500  0.40220  0.87900  1.0000 0.2981758117
N   N21       1.0  0.82280  0.33310  0.09980  1.0000 0.3123963573
N   N22       1.0  0.17720  0.83310  0.40020  1.0000 0.3123963573
N   N23       1.0  0.17720  0.66690  0.90020  1.0000 0.3123963573
N   N24       1.0  0.82280  0.16690  0.59980  1.0000 0.3123963573
N   N25       1.0  0.44290  0.99070  0.89890  1.0000 0.3177735221
N   N26       1.0  0.55710  0.49070  0.60110  1.0000 0.3177735221
N   N27       1.0  0.55710  0.00930  0.10110  1.0000 0.3177735221
N   N28       1.0  0.44290  0.50930  0.39890  1.0000 0.3177735221
N   N29       1.0  0.09370  0.51850  0.29130  1.0000 0.3123963573
N   N30       1.0  0.90630  0.01850  0.20870  1.0000 0.3123963573
N   N31       1.0  0.90630  0.48150  0.70870  1.0000 0.3123963573
N   N32       1.0  0.09370  0.98150  0.79130  1.0000 0.3123963573
O   O1        1.0  0.78320  0.22410  0.86100  1.0000 -0.5979690503
O   O2        1.0  0.21680  0.72410  0.63900  1.0000 -0.5979690503
O   O3        1.0  0.21680  0.77590  0.13900  1.0000 -0.5979690503
O   O4        1.0  0.78320  0.27590  0.36100  1.0000 -0.5979690503
O   O5        1.0  0.84290  0.30880  0.92020  1.0000 -0.5233382931
O   O6        1.0  0.15710  0.80880  0.57980  1.0000 -0.5233382931
O   O7        1.0  0.15710  0.69120  0.07980  1.0000 -0.5233382931
O   O8        1.0  0.84290  0.19120  0.42020  1.0000 -0.5233382931
O   O9        1.0  0.69060  0.39350  0.79210  1.0000 -0.537806968
O   O10       1.0  0.30940  0.89350  0.70790  1.0000 -0.537806968
O   O11       1.0  0.30940  0.60650  0.20790  1.0000 -0.537806968
O   O12       1.0  0.69060  0.10650  0.29210  1.0000 -0.537806968
O   O13       1.0  0.79520  0.37520  0.80650  1.0000 -0.5019797932
O   O14       1.0  0.20480  0.87520  0.69350  1.0000 -0.5019797932
O   O15       1.0  0.20480  0.62480  0.19350  1.0000 -0.5019797932
O   O16       1.0  0.79520  0.12480  0.30650  1.0000 -0.5019797932
O   O17       1.0  0.66420  0.24970  0.74960  1.0000 -0.537806968
O   O18       1.0  0.33580  0.74970  0.75040  1.0000 -0.537806968
O   O19       1.0  0.33580  0.75030  0.25040  1.0000 -0.537806968
O   O20       1.0  0.66420  0.25030  0.24960  1.0000 -0.537806968
O   O21       1.0  0.64320  0.30870  0.68430  1.0000 -0.5503530818
O   O22       1.0  0.35680  0.80870  0.81570  1.0000 -0.5503530818
O   O23       1.0  0.35680  0.69130  0.31570  1.0000 -0.5503530818
O   O24       1.0  0.64320  0.19130  0.18430  1.0000 -0.5503530818
O   O25       1.0  0.83520  0.23100  0.79940  1.0000 -0.5503530818
O   O26       1.0  0.16480  0.73100  0.70060  1.0000 -0.5503530818
O   O27       1.0  0.16480  0.76900  0.20060  1.0000 -0.5503530818
O   O28       1.0  0.83520  0.26900  0.29940  1.0000 -0.5503530818
O   O29       1.0  0.81790  0.28810  0.73460  1.0000 -0.537806968
O   O30       1.0  0.18210  0.78810  0.76540  1.0000 -0.537806968
O   O31       1.0  0.18210  0.71190  0.26540  1.0000 -0.537806968
O   O32       1.0  0.81790  0.21190  0.23460  1.0000 -0.537806968
O   O33       1.0  0.32270  0.72430  0.38790  1.0000 -0.5335398416
O   O34       1.0  0.67730  0.22430  0.11210  1.0000 -0.5335398416
O   O35       1.0  0.67730  0.27570  0.61210  1.0000 -0.5335398416
O   O36       1.0  0.32270  0.77570  0.88790  1.0000 -0.5335398416
O   O37       1.0  0.69820  0.16230  0.68690  1.0000 -0.5233382931
O   O38       1.0  0.30180  0.66230  0.81310  1.0000 -0.5233382931
O   O39       1.0  0.30180  0.83770  0.31310  1.0000 -0.5233382931
O   O40       1.0  0.69820  0.33770  0.18690  1.0000 -0.5233382931
O   O41       1.0  0.27040  0.61900  0.36470  1.0000 -0.537806968
O   O42       1.0  0.72960  0.11900  0.13530  1.0000 -0.537806968
O   O43       1.0  0.72960  0.38100  0.63530  1.0000 -0.537806968
O   O44       1.0  0.27040  0.88100  0.86470  1.0000 -0.537806968
O   O45       1.0  0.79760  0.14190  0.69310  1.0000 -0.5733820747
O   O46       1.0  0.20240  0.64190  0.80690  1.0000 -0.5733820747
O   O47       1.0  0.20240  0.85810  0.30690  1.0000 -0.5733820747
O   O48       1.0  0.79760  0.35810  0.19310  1.0000 -0.5733820747
O   O49       1.0  0.88180  0.84140  0.79420  1.0000 -0.5608465995
O   O50       1.0  0.11820  0.34140  0.70580  1.0000 -0.5608465995
O   O51       1.0  0.11820  0.15860  0.20580  1.0000 -0.5608465995
O   O52       1.0  0.88180  0.65860  0.29420  1.0000 -0.5608465995
O   O53       1.0  0.91980  0.90350  0.75810  1.0000 -0.5608465995
O   O54       1.0  0.08020  0.40350  0.74190  1.0000 -0.5608465995
O   O55       1.0  0.08020  0.09650  0.24190  1.0000 -0.5608465995
O   O56       1.0  0.91980  0.59650  0.25810  1.0000 -0.5608465995
O   O57       1.0  0.56930  0.95150  0.69790  1.0000 -0.5503530818
O   O58       1.0  0.43070  0.45150  0.80210  1.0000 -0.5503530818
O   O59       1.0  0.43070  0.04850  0.30210  1.0000 -0.5503530818
O   O60       1.0  0.56930  0.54850  0.19790  1.0000 -0.5503530818
O   O61       1.0  0.60850  0.85250  0.68590  1.0000 -0.5733820747
O   O62       1.0  0.39150  0.35250  0.81410  1.0000 -0.5733820747
O   O63       1.0  0.39150  0.14750  0.31410  1.0000 -0.5733820747
O   O64       1.0  0.60850  0.64750  0.18590  1.0000 -0.5733820747
O   O65       1.0  0.48400  0.79440  0.56930  1.0000 -0.5503530818
O   O66       1.0  0.51600  0.29440  0.93070  1.0000 -0.5503530818
O   O67       1.0  0.51600  0.20560  0.43070  1.0000 -0.5503530818
O   O68       1.0  0.48400  0.70560  0.06930  1.0000 -0.5503530818
O   O69       1.0  0.45680  0.75040  0.61680  1.0000 -0.5503530818
O   O70       1.0  0.54320  0.25040  0.88320  1.0000 -0.5503530818
O   O71       1.0  0.54320  0.24960  0.38320  1.0000 -0.5503530818
O   O72       1.0  0.45680  0.74960  0.11680  1.0000 -0.5503530818
O   O73       1.0  0.61580  0.69840  0.69790  1.0000 -0.5503530818
O   O74       1.0  0.38420  0.19840  0.80210  1.0000 -0.5503530818
O   O75       1.0  0.38420  0.30160  0.30210  1.0000 -0.5503530818
O   O76       1.0  0.61580  0.80160  0.19790  1.0000 -0.5503530818
O   O77       1.0  0.56000  0.62230  0.71450  1.0000 -0.5802729863
O   O78       1.0  0.44000  0.12230  0.78550  1.0000 -0.5802729863
O   O79       1.0  0.44000  0.37770  0.28550  1.0000 -0.5802729863
O   O80       1.0  0.56000  0.87770  0.21450  1.0000 -0.5802729863
O   O81       1.0  0.97650  0.23120  0.10360  1.0000 -0.5608465995
O   O82       1.0  0.02350  0.73120  0.39640  1.0000 -0.5608465995
O   O83       1.0  0.02350  0.76880  0.89640  1.0000 -0.5608465995
O   O84       1.0  0.97650  0.26880  0.60360  1.0000 -0.5608465995
O   O85       1.0  0.94410  0.12860  0.11500  1.0000 -0.5233382931
O   O86       1.0  0.05590  0.62860  0.38500  1.0000 -0.5233382931
O   O87       1.0  0.05590  0.87140  0.88500  1.0000 -0.5233382931
O   O88       1.0  0.94410  0.37140  0.61500  1.0000 -0.5233382931
O   O89       1.0  0.88880  0.68820  0.81680  1.0000 -0.5936270904
O   O90       1.0  0.11120  0.18820  0.68320  1.0000 -0.5936270904
O   O91       1.0  0.11120  0.31180  0.18320  1.0000 -0.5936270904
O   O92       1.0  0.88880  0.81180  0.31680  1.0000 -0.5936270904
O   O93       1.0  0.93300  0.58800  0.80780  1.0000 -0.5608465995
O   O94       1.0  0.06700  0.08800  0.69220  1.0000 -0.5608465995
O   O95       1.0  0.06700  0.41200  0.19220  1.0000 -0.5608465995
O   O96       1.0  0.93300  0.91200  0.30780  1.0000 -0.5608465995
O   O97       1.0  0.36620  0.28830  0.71330  1.0000 -0.509943689
O   O98       1.0  0.63380  0.78830  0.78670  1.0000 -0.509943689
O   O99       1.0  0.63380  0.71170  0.28670  1.0000 -0.509943689
O   O100      1.0  0.36620  0.21170  0.21330  1.0000 -0.509943689
O   O101      1.0  0.48510  0.28890  0.78050  1.0000 -0.5802729863
O   O102      1.0  0.51490  0.78890  0.71950  1.0000 -0.5802729863
O   O103      1.0  0.51490  0.71110  0.21950  1.0000 -0.5802729863
O   O104      1.0  0.48510  0.21110  0.28050  1.0000 -0.5802729863
O   O105      1.0  0.12240  0.22570  0.78130  1.0000 -0.5019797932
O   O106      1.0  0.87760  0.72570  0.71870  1.0000 -0.5019797932
O   O107      1.0  0.87760  0.77430  0.21870  1.0000 -0.5019797932
O   O108      1.0  0.12240  0.27430  0.28130  1.0000 -0.5019797932
O   O109      1.0  0.00720  0.24380  0.71270  1.0000 -0.5802729863
O   O110      1.0  0.99280  0.74380  0.78730  1.0000 -0.5802729863
O   O111      1.0  0.99280  0.75620  0.28730  1.0000 -0.5802729863
O   O112      1.0  0.00720  0.25620  0.21270  1.0000 -0.5802729863
O   O113      1.0  0.25530  0.48980  0.48240  1.0000 -0.5802729863
O   O114      1.0  0.74470  0.98980  0.01760  1.0000 -0.5802729863
O   O115      1.0  0.74470  0.51020  0.51760  1.0000 -0.5802729863
O   O116      1.0  0.25530  0.01020  0.98240  1.0000 -0.5802729863
O   O117      1.0  0.32180  0.52120  0.56400  1.0000 -0.5503530818
O   O118      1.0  0.67820  0.02120  0.93600  1.0000 -0.5503530818
O   O119      1.0  0.67820  0.47880  0.43600  1.0000 -0.5503530818
O   O120      1.0  0.32180  0.97880  0.06400  1.0000 -0.5503530818
O   O121      1.0  0.83670  0.94740  0.98260  1.0000 -0.5936270904
O   O122      1.0  0.16330  0.44740  0.51740  1.0000 -0.5936270904
O   O123      1.0  0.16330  0.05260  0.01740  1.0000 -0.5936270904
O   O124      1.0  0.83670  0.55260  0.48260  1.0000 -0.5936270904
O   O125      1.0  0.79890  0.98050  0.90640  1.0000 -0.509943689
O   O126      1.0  0.20110  0.48050  0.59360  1.0000 -0.509943689
O   O127      1.0  0.20110  0.01950  0.09360  1.0000 -0.509943689
O   O128      1.0  0.79890  0.51950  0.40640  1.0000 -0.509943689
O   O129      1.0  0.15780  0.13480  0.93230  1.0000 -0.5503530818
O   O130      1.0  0.84220  0.63480  0.56770  1.0000 -0.5503530818
O   O131      1.0  0.84220  0.86520  0.06770  1.0000 -0.5503530818
O   O132      1.0  0.15780  0.36520  0.43230  1.0000 -0.5503530818
O   O133      1.0  0.09660  0.19050  0.95400  1.0000 -0.5608465995
O   O134      1.0  0.90340  0.69050  0.54600  1.0000 -0.5608465995
O   O135      1.0  0.90340  0.80950  0.04600  1.0000 -0.5608465995
O   O136      1.0  0.09660  0.30950  0.45400  1.0000 -0.5608465995
O   O137      1.0  0.37960  0.35240  0.53590  1.0000 -0.5503530818
O   O138      1.0  0.62040  0.85240  0.96410  1.0000 -0.5503530818
O   O139      1.0  0.62040  0.64760  0.46410  1.0000 -0.5503530818
O   O140      1.0  0.37960  0.14760  0.03590  1.0000 -0.5503530818
O   O141      1.0  0.29750  0.34670  0.54900  1.0000 -0.5608465995
O   O142      1.0  0.70250  0.84670  0.95100  1.0000 -0.5608465995
O   O143      1.0  0.70250  0.65330  0.45100  1.0000 -0.5608465995
O   O144      1.0  0.29750  0.15330  0.04900  1.0000 -0.5608465995
