# DDEC6 charges by PACMAN v1.1 (https://github.com/mtap-research/PACMAN-charge/)
data_2014[Tb][nan]3[ION]1
_chemical_formula_sum              "Tb6 H192 C246 S6 N48 O66 F18"
_cell_length_a       24.0921
_cell_length_b       24.1914
_cell_length_c       24.3992
_cell_angle_alpha    85.807
_cell_angle_beta     118.596
_cell_angle_gamma    118.971

_symmetry_space_group_name_H-M    "P 1"
_symmetry_Int_Tables_number       1

loop_
  _symmetry_equiv_pos_as_xyz
  'x, y, z'

loop_
  _atom_site_type_symbol
  _atom_site_label
  _atom_site_symmetry_multiplicity
  _atom_site_fract_x
  _atom_site_fract_y
  _atom_site_fract_z
  _atom_site_occupancy
  _atom_site_charge
Tb  Tb1       1.0  0.36467  0.15515  0.80260  1.0000 1.9198909166
Tb  Tb2       1.0  0.63533  0.84485  0.19740  1.0000 1.9198909166
Tb  Tb3       1.0  0.85268  0.28605  0.64573  1.0000 1.9198909166
Tb  Tb4       1.0  0.14732  0.71395  0.35427  1.0000 1.910877383
Tb  Tb5       1.0  0.74307  0.71859  0.75826  1.0000 1.910877383
Tb  Tb6       1.0  0.25693  0.28141  0.24174  1.0000 1.910877383
H   H1        1.0  0.27720  0.22760  0.85070  1.0000 0.1212072888
H   H2        1.0  0.72280  0.77240  0.14930  1.0000 0.1212072888
H   H3        1.0  0.14330  0.09160  0.69160  1.0000 0.1105732906
H   H4        1.0  0.85670  0.90840  0.30840  1.0000 0.1105732906
H   H5        1.0  0.27420  0.99180  0.86600  1.0000 0.1290100117
H   H6        1.0  0.72580  0.00820  0.13400  1.0000 0.1290100117
H   H7        1.0  0.17210  0.99840  0.68290  1.0000 0.1105732906
H   H8        1.0  0.82790  0.00160  0.31710  1.0000 0.1105732906
H   H9        1.0  0.26210  0.08340  0.89530  1.0000 0.1212072888
H   H10       1.0  0.73790  0.91660  0.10470  1.0000 0.1212072888
H   H11       1.0  0.47200  0.22620  0.99700  1.0000 0.1212072888
H   H12       1.0  0.52800  0.77380  0.00300  1.0000 0.1212072888
H   H13       1.0  0.39120  0.00590  0.82230  1.0000 0.1212072888
H   H14       1.0  0.60880  0.99410  0.17770  1.0000 0.1212072888
H   H15       1.0  0.54580  0.16760  0.95400  1.0000 0.1212072888
H   H16       1.0  0.45420  0.83240  0.04600  1.0000 0.1212072888
H   H17       1.0  0.36750  0.32260  0.80120  1.0000 0.1290100117
H   H18       1.0  0.63250  0.67740  0.19880  1.0000 0.1290100117
H   H19       1.0  0.54220  0.31470  0.93290  1.0000 0.1212072888
H   H20       1.0  0.45780  0.68530  0.06710  1.0000 0.1212072888
H   H21       1.0  0.20730  0.27680  0.80870  1.0000 0.1290100117
H   H22       1.0  0.79270  0.72320  0.19130  1.0000 0.1290100117
H   H23       1.0  0.07170  0.13880  0.64660  1.0000 0.1212072888
H   H24       1.0  0.92830  0.86120  0.35340  1.0000 0.1212072888
H   H25       1.0  0.16230  0.93270  0.86330  1.0000 0.1486673367
H   H26       1.0  0.83770  0.06730  0.13670  1.0000 0.1486673367
H   H27       1.0  0.05720  0.93440  0.67510  1.0000 0.1212072888
H   H28       1.0  0.94280  0.06560  0.32490  1.0000 0.1212072888
H   H29       1.0  0.23230  0.11730  0.95850  1.0000 0.1383122112
H   H30       1.0  0.76770  0.88270  0.04150  1.0000 0.1383122112
H   H31       1.0  0.44330  0.26190  0.06030  1.0000 0.1212072888
H   H32       1.0  0.55670  0.73810  0.93970  1.0000 0.1212072888
H   H33       1.0  0.41180  0.94330  0.89940  1.0000 0.1290100117
H   H34       1.0  0.58820  0.05670  0.10060  1.0000 0.1290100117
H   H35       1.0  0.56930  0.10800  0.03310  1.0000 0.1290100117
H   H36       1.0  0.43070  0.89200  0.96690  1.0000 0.1290100117
H   H37       1.0  0.44300  0.41800  0.78360  1.0000 0.1383122112
H   H38       1.0  0.55700  0.58200  0.21640  1.0000 0.1383122112
H   H39       1.0  0.62180  0.41260  0.92040  1.0000 0.1290100117
H   H40       1.0  0.37820  0.58740  0.07960  1.0000 0.1290100117
H   H41       1.0  0.15260  0.32740  0.75910  1.0000 0.1290100117
H   H42       1.0  0.84740  0.67260  0.24090  1.0000 0.1290100117
H   H43       1.0  0.00120  0.16950  0.61820  1.0000 0.1290100117
H   H44       1.0  0.99880  0.83050  0.38180  1.0000 0.1290100117
H   H45       1.0  0.05900  0.94060  0.85270  1.0000 0.1486673367
H   H46       1.0  0.94100  0.05940  0.14730  1.0000 0.1486673367
H   H47       1.0  0.96660  0.83640  0.67900  1.0000 0.1212072888
H   H48       1.0  0.03340  0.16360  0.32100  1.0000 0.1212072888
H   H49       1.0  0.21330  0.13720  0.02230  1.0000 0.1383122112
H   H50       1.0  0.78670  0.86280  0.97770  1.0000 0.1383122112
H   H51       1.0  0.40560  0.30800  0.09570  1.0000 0.1212072888
H   H52       1.0  0.59440  0.69200  0.90430  1.0000 0.1212072888
H   H53       1.0  0.67560  0.52550  0.91780  1.0000 0.1290100117
H   H54       1.0  0.32440  0.47450  0.08220  1.0000 0.1290100117
H   H55       1.0  0.51780  0.44960  0.73300  1.0000 0.1383122112
H   H56       1.0  0.48220  0.55040  0.26700  1.0000 0.1383122112
H   H57       1.0  0.07330  0.36730  0.71690  1.0000 0.1212072888
H   H58       1.0  0.92670  0.63270  0.28310  1.0000 0.1212072888
H   H59       1.0  0.92370  0.21020  0.57520  1.0000 0.1212072888
H   H60       1.0  0.07630  0.78980  0.42480  1.0000 0.1212072888
H   H61       1.0  0.94360  0.89430  0.84020  1.0000 0.1290100117
H   H62       1.0  0.05640  0.10570  0.15980  1.0000 0.1290100117
H   H63       1.0  0.85060  0.79160  0.66880  1.0000 0.1212072888
H   H64       1.0  0.14940  0.20840  0.33120  1.0000 0.1212072888
H   H65       1.0  0.17520  0.17600  0.07440  1.0000 0.1290100117
H   H66       1.0  0.82480  0.82400  0.92560  1.0000 0.1290100117
H   H67       1.0  0.36430  0.34540  0.14560  1.0000 0.1212072888
H   H68       1.0  0.63570  0.65460  0.85440  1.0000 0.1212072888
H   H69       1.0  0.75330  0.60370  0.88620  1.0000 0.1212072888
H   H70       1.0  0.24670  0.39630  0.11380  1.0000 0.1212072888
H   H71       1.0  0.59630  0.52930  0.70400  1.0000 0.1212072888
H   H72       1.0  0.40370  0.47070  0.29600  1.0000 0.1212072888
H   H73       1.0  0.01750  0.46330  0.66290  1.0000 0.1212072888
H   H74       1.0  0.98250  0.53670  0.33710  1.0000 0.1212072888
H   H75       1.0  0.82220  0.37790  0.50290  1.0000 0.1212072888
H   H76       1.0  0.17780  0.62210  0.49710  1.0000 0.1212072888
H   H77       1.0  0.85830  0.26090  0.49050  1.0000 0.1212072888
H   H78       1.0  0.14170  0.73910  0.50950  1.0000 0.1212072888
H   H79       1.0  0.66050  0.16240  0.47590  1.0000 0.1105732906
H   H80       1.0  0.33950  0.83760  0.52410  1.0000 0.1105732906
H   H81       1.0  0.65630  0.14920  0.63250  1.0000 0.1212072888
H   H82       1.0  0.34370  0.85080  0.36750  1.0000 0.1212072888
H   H83       1.0  0.83010  0.26450  0.80040  1.0000 0.1290100117
H   H84       1.0  0.16990  0.73550  0.19960  1.0000 0.1290100117
H   H85       1.0  0.91400  0.15700  0.69360  1.0000 0.1290100117
H   H86       1.0  0.08600  0.84300  0.30640  1.0000 0.1290100117
H   H87       1.0  0.70050  0.09090  0.57770  1.0000 0.1105732906
H   H88       1.0  0.29950  0.90910  0.42230  1.0000 0.1105732906
H   H89       1.0  0.62580  0.20790  0.53170  1.0000 0.1105732906
H   H90       1.0  0.37420  0.79210  0.46830  1.0000 0.1105732906
H   H91       1.0  0.77080  0.39860  0.59000  1.0000 0.1105732906
H   H92       1.0  0.22920  0.60140  0.41000  1.0000 0.1105732906
H   H93       1.0  0.89220  0.19000  0.77920  1.0000 0.1212072888
H   H94       1.0  0.10780  0.81000  0.22080  1.0000 0.1212072888
H   H95       1.0  0.04570  0.37710  0.82410  1.0000 0.1290100117
H   H96       1.0  0.95430  0.62290  0.17590  1.0000 0.1212072888
H   H97       1.0  0.63510  0.81010  0.67440  1.0000 0.1105732906
H   H98       1.0  0.36490  0.18990  0.32560  1.0000 0.1212072888
H   H99       1.0  0.82800  0.90660  0.83610  1.0000 0.1383122112
H   H100      1.0  0.17200  0.09340  0.16390  1.0000 0.1383122112
H   H101      1.0  0.89990  0.70670  0.75530  1.0000 0.1290100117
H   H102      1.0  0.10010  0.29330  0.24470  1.0000 0.1290100117
H   H103      1.0  0.68950  0.57130  0.63960  1.0000 0.1290100117
H   H104      1.0  0.31050  0.42870  0.36040  1.0000 0.1290100117
H   H105      1.0  0.74010  0.82730  0.63210  1.0000 0.1212072888
H   H106      1.0  0.25990  0.17270  0.36790  1.0000 0.1212072888
H   H107      1.0  0.61680  0.63740  0.56750  1.0000 0.1212072888
H   H108      1.0  0.38320  0.36260  0.43250  1.0000 0.1212072888
H   H109      1.0  0.57370  0.72380  0.74440  1.0000 0.1290100117
H   H110      1.0  0.42630  0.27620  0.25560  1.0000 0.1290100117
H   H111      1.0  0.52880  0.58160  0.62800  1.0000 0.1212072888
H   H112      1.0  0.47120  0.41840  0.37200  1.0000 0.1212072888
H   H113      1.0  0.13220  0.35710  0.13470  1.0000 0.1212072888
H   H114      1.0  0.86780  0.64290  0.86530  1.0000 0.1212072888
H   H115      1.0  0.07020  0.17570  0.08020  1.0000 0.1290100117
H   H116      1.0  0.92980  0.82430  0.91980  1.0000 0.1290100117
H   H117      1.0  0.07430  0.51950  0.60720  1.0000 0.1290100117
H   H118      1.0  0.92570  0.48050  0.39280  1.0000 0.1290100117
H   H119      1.0  0.87920  0.43000  0.44400  1.0000 0.1290100117
H   H120      1.0  0.12080  0.57000  0.55600  1.0000 0.1290100117
H   H121      1.0  0.83150  0.17090  0.43120  1.0000 0.1290100117
H   H122      1.0  0.16850  0.82910  0.56880  1.0000 0.1290100117
H   H123      1.0  0.63130  0.07320  0.41450  1.0000 0.1290100117
H   H124      1.0  0.36870  0.92680  0.58550  1.0000 0.1290100117
H   H125      1.0  0.57730  0.15210  0.65920  1.0000 0.1290100117
H   H126      1.0  0.42270  0.84790  0.34080  1.0000 0.1290100117
H   H127      1.0  0.75230  0.26800  0.82920  1.0000 0.1383122112
H   H128      1.0  0.24770  0.73200  0.17080  1.0000 0.1383122112
H   H129      1.0  0.88910  0.06660  0.73730  1.0000 0.1383122112
H   H130      1.0  0.11090  0.93340  0.26270  1.0000 0.1383122112
H   H131      1.0  0.67070  0.99690  0.61730  1.0000 0.1212072888
H   H132      1.0  0.32930  0.00310  0.38270  1.0000 0.1212072888
H   H133      1.0  0.54480  0.22450  0.43990  1.0000 0.1290100117
H   H134      1.0  0.45520  0.77550  0.56010  1.0000 0.1212072888
H   H135      1.0  0.68800  0.41860  0.50360  1.0000 0.1290100117
H   H136      1.0  0.31200  0.58140  0.49640  1.0000 0.1290100117
H   H137      1.0  0.93090  0.18820  0.88680  1.0000 0.1383122112
H   H138      1.0  0.06910  0.81180  0.11320  1.0000 0.1383122112
H   H139      1.0  0.08720  0.37650  0.93140  1.0000 0.1212072888
H   H140      1.0  0.91280  0.62350  0.06860  1.0000 0.1212072888
H   H141      1.0  0.65870  0.90400  0.63470  1.0000 0.1212072888
H   H142      1.0  0.34130  0.09600  0.36530  1.0000 0.1212072888
H   H143      1.0  0.85360  0.00190  0.79770  1.0000 0.1486673367
H   H144      1.0  0.14640  0.99810  0.20230  1.0000 0.1486673367
H   H145      1.0  0.93470  0.62910  0.77010  1.0000 0.1290100117
H   H146      1.0  0.06530  0.37090  0.22990  1.0000 0.1212072888
H   H147      1.0  0.72170  0.49290  0.65320  1.0000 0.1290100117
H   H148      1.0  0.27830  0.50710  0.34680  1.0000 0.1290100117
H   H149      1.0  0.75080  0.84280  0.54110  1.0000 0.1212072888
H   H150      1.0  0.24920  0.15720  0.45890  1.0000 0.1212072888
H   H151      1.0  0.62330  0.64890  0.47400  1.0000 0.1383122112
H   H152      1.0  0.37670  0.35110  0.52600  1.0000 0.1383122112
H   H153      1.0  0.48130  0.73750  0.65980  1.0000 0.1290100117
H   H154      1.0  0.51870  0.26250  0.34020  1.0000 0.1290100117
H   H155      1.0  0.43340  0.59090  0.54370  1.0000 0.1383122112
H   H156      1.0  0.56660  0.40910  0.45630  1.0000 0.1383122112
H   H157      1.0  0.08050  0.36780  0.02870  1.0000 0.1212072888
H   H158      1.0  0.91950  0.63220  0.97130  1.0000 0.1212072888
H   H159      1.0  0.01880  0.18410  0.97370  1.0000 0.1486673367
H   H160      1.0  0.98120  0.81590  0.02630  1.0000 0.1486673367
H   H161      1.0  0.60690  0.02600  0.31420  1.0000 0.1290100117
H   H162      1.0  0.39310  0.97400  0.68580  1.0000 0.1290100117
H   H163      1.0  0.81010  0.05890  0.43980  1.0000 0.1290100117
H   H164      1.0  0.18990  0.94110  0.56020  1.0000 0.1290100117
H   H165      1.0  0.67260  0.24740  0.85860  1.0000 0.1212072888
H   H166      1.0  0.32740  0.75260  0.14140  1.0000 0.1212072888
H   H167      1.0  0.52280  0.19000  0.66940  1.0000 0.1212072888
H   H168      1.0  0.47720  0.81000  0.33060  1.0000 0.1212072888
H   H169      1.0  0.95570  0.55470  0.74180  1.0000 0.1212072888
H   H170      1.0  0.04430  0.44530  0.25820  1.0000 0.1212072888
H   H171      1.0  0.75250  0.43060  0.71430  1.0000 0.1383122112
H   H172      1.0  0.24750  0.56940  0.28570  1.0000 0.1383122112
H   H173      1.0  0.58940  0.67850  0.38010  1.0000 0.1383122112
H   H174      1.0  0.41060  0.32150  0.61990  1.0000 0.1383122112
H   H175      1.0  0.79190  0.83880  0.47570  1.0000 0.1212072888
H   H176      1.0  0.20810  0.16120  0.52430  1.0000 0.1212072888
H   H177      1.0  0.57730  0.92800  0.26540  1.0000 0.1212072888
H   H178      1.0  0.42270  0.07200  0.73460  1.0000 0.1212072888
H   H179      1.0  0.77810  0.96080  0.39020  1.0000 0.1105732906
H   H180      1.0  0.22190  0.03920  0.60980  1.0000 0.1105732906
H   H181      1.0  0.58970  0.25560  0.87640  1.0000 0.1105732906
H   H182      1.0  0.41030  0.74440  0.12360  1.0000 0.1105732906
H   H183      1.0  0.44480  0.20760  0.68930  1.0000 0.1105732906
H   H184      1.0  0.55520  0.79240  0.31070  1.0000 0.1105732906
H   H185      1.0  0.97740  0.46970  0.74990  1.0000 0.1212072888
H   H186      1.0  0.02260  0.53030  0.25010  1.0000 0.1212072888
H   H187      1.0  0.77660  0.34710  0.72300  1.0000 0.1212072888
H   H188      1.0  0.22340  0.65290  0.27700  1.0000 0.1212072888
H   H189      1.0  0.58960  0.69990  0.28500  1.0000 0.1212072888
H   H190      1.0  0.41040  0.30010  0.71500  1.0000 0.1212072888
H   H191      1.0  0.79000  0.85550  0.38050  1.0000 0.1105732906
H   H192      1.0  0.21000  0.14450  0.61950  1.0000 0.1105732906
C   C1        1.0  0.23490  0.20960  0.80910  1.0000 -0.0297741215
C   C2        1.0  0.76510  0.79040  0.19090  1.0000 -0.0297741215
C   C3        1.0  0.15590  0.12950  0.71520  1.0000 -0.057542473
C   C4        1.0  0.84410  0.87050  0.28480  1.0000 -0.057542473
C   C5        1.0  0.22970  0.98140  0.82770  1.0000 -0.0297741215
C   C6        1.0  0.77030  0.01860  0.17230  1.0000 -0.0297741215
C   C7        1.0  0.16930  0.98460  0.71950  1.0000 -0.0691678009
C   C8        1.0  0.83070  0.01540  0.28050  1.0000 -0.0691678009
C   C9        1.0  0.29900  0.11990  0.92940  1.0000 -0.0412861222
C   C10       1.0  0.70100  0.88010  0.07060  1.0000 -0.0412861222
C   C11       1.0  0.42300  0.20410  0.98900  1.0000 -0.0412861222
C   C12       1.0  0.57700  0.79590  0.01100  1.0000 -0.0412861222
C   C13       1.0  0.42750  0.02640  0.86570  1.0000 -0.0412861222
C   C14       1.0  0.57250  0.97360  0.13430  1.0000 -0.0412861222
C   C15       1.0  0.51850  0.12180  0.94310  1.0000 -0.057542473
C   C16       1.0  0.48150  0.87820  0.05690  1.0000 -0.057542473
C   C17       1.0  0.41920  0.34010  0.82360  1.0000 -0.0412861222
C   C18       1.0  0.58080  0.65990  0.17640  1.0000 -0.0412861222
C   C19       1.0  0.52260  0.33590  0.90160  1.0000 -0.0412861222
C   C20       1.0  0.47740  0.66410  0.09840  1.0000 -0.0412861222
C   C21       1.0  0.19350  0.23900  0.78400  1.0000 -0.1606618814
C   C22       1.0  0.80650  0.76100  0.21600  1.0000 -0.1700246148
C   C23       1.0  0.11340  0.15750  0.68840  1.0000 -0.1797660028
C   C24       1.0  0.88660  0.84250  0.31160  1.0000 -0.1797660028
C   C25       1.0  0.16320  0.94590  0.82600  1.0000 -0.1606618814
C   C26       1.0  0.83680  0.05410  0.17400  1.0000 -0.1606618814
C   C27       1.0  0.10110  0.94750  0.71510  1.0000 -0.1905168597
C   C28       1.0  0.89890  0.05250  0.28490  1.0000 -0.1905168597
C   C29       1.0  0.28120  0.14070  0.96630  1.0000 -0.1507283244
C   C30       1.0  0.71880  0.85930  0.03370  1.0000 -0.1507283244
C   C31       1.0  0.40530  0.22560  0.02620  1.0000 -0.1905168597
C   C32       1.0  0.59470  0.77440  0.97380  1.0000 -0.1905168597
C   C33       1.0  0.43960  0.98900  0.91160  1.0000 -0.1905168597
C   C34       1.0  0.56040  0.01100  0.08840  1.0000 -0.1905168597
C   C35       1.0  0.53220  0.08610  0.99020  1.0000 -0.1905168597
C   C36       1.0  0.46780  0.91390  0.00980  1.0000 -0.1905168597
C   C37       1.0  0.46420  0.39670  0.81360  1.0000 -0.1797660028
C   C38       1.0  0.53580  0.60330  0.18640  1.0000 -0.1797660028
C   C39       1.0  0.57000  0.39360  0.89390  1.0000 -0.1797660028
C   C40       1.0  0.43000  0.60640  0.10610  1.0000 -0.1797660028
C   C41       1.0  0.13140  0.21360  0.72260  1.0000 0.1105732906
C   C42       1.0  0.86860  0.78640  0.27740  1.0000 0.1105732906
C   C43       1.0  0.09740  0.92950  0.76950  1.0000 0.0971579594
C   C44       1.0  0.90260  0.07050  0.23050  1.0000 0.0971579594
C   C45       1.0  0.33450  0.19590  0.01520  1.0000 0.0971579594
C   C46       1.0  0.66550  0.80410  0.98480  1.0000 0.0971579594
C   C47       1.0  0.49250  0.01900  0.97530  1.0000 0.0971579594
C   C48       1.0  0.50750  0.98100  0.02470  1.0000 0.0971579594
C   C49       1.0  0.54050  0.42390  0.84650  1.0000 0.1105732906
C   C50       1.0  0.45950  0.57610  0.15350  1.0000 0.1105732906
C   C51       1.0  0.08420  0.24260  0.69410  1.0000 0.0971579594
C   C52       1.0  0.91580  0.75740  0.30590  1.0000 0.0971579594
C   C53       1.0  0.02610  0.89570  0.76680  1.0000 0.0910593923
C   C54       1.0  0.97390  0.10430  0.23320  1.0000 0.0910593923
C   C55       1.0  0.31280  0.21950  0.05130  1.0000 0.0910593923
C   C56       1.0  0.68720  0.78050  0.94870  1.0000 0.0910593923
C   C57       1.0  0.58790  0.47850  0.82900  1.0000 0.0910593923
C   C58       1.0  0.41210  0.52150  0.17100  1.0000 0.0910593923
C   C59       1.0  0.10540  0.30260  0.72210  1.0000 -0.1700246148
C   C60       1.0  0.89460  0.69740  0.27790  1.0000 -0.1700246148
C   C61       1.0  0.01630  0.21000  0.63900  1.0000 -0.1700246148
C   C62       1.0  0.98370  0.79000  0.36100  1.0000 -0.1700246148
C   C63       1.0  0.01710  0.91090  0.81440  1.0000 -0.1507283244
C   C64       1.0  0.98290  0.08910  0.18560  1.0000 -0.1507283244
C   C65       1.0  0.96240  0.84940  0.71190  1.0000 -0.199521657
C   C66       1.0  0.03760  0.15060  0.28810  1.0000 -0.199521657
C   C67       1.0  0.24450  0.18010  0.04680  1.0000 -0.1343539196
C   C68       1.0  0.75550  0.81990  0.95320  1.0000 -0.140114634
C   C69       1.0  0.35780  0.28090  0.08990  1.0000 -0.1905168597
C   C70       1.0  0.64220  0.71910  0.91010  1.0000 -0.1905168597
C   C71       1.0  0.65850  0.52520  0.87370  1.0000 -0.1797660028
C   C72       1.0  0.34150  0.47480  0.12630  1.0000 -0.1797660028
C   C73       1.0  0.56600  0.48100  0.76520  1.0000 -0.1606618814
C   C74       1.0  0.43400  0.51900  0.23480  1.0000 -0.1606618814
C   C75       1.0  0.05860  0.32660  0.69680  1.0000 -0.0412861222
C   C76       1.0  0.94140  0.67340  0.30320  1.0000 -0.0412861222
C   C77       1.0  0.97010  0.23380  0.61320  1.0000 -0.057542473
C   C78       1.0  0.02990  0.76620  0.38680  1.0000 -0.057542473
C   C79       1.0  0.94860  0.88360  0.80680  1.0000 -0.0297741215
C   C80       1.0  0.05140  0.11640  0.19320  1.0000 -0.0297741215
C   C81       1.0  0.89350  0.82280  0.70580  1.0000 -0.0507394361
C   C82       1.0  0.10650  0.17720  0.29420  1.0000 -0.0507394361
C   C83       1.0  0.22180  0.20300  0.07780  1.0000 -0.0200415115
C   C84       1.0  0.77820  0.79700  0.92220  1.0000 -0.0200415115
C   C85       1.0  0.33360  0.30310  0.12010  1.0000 -0.0507394361
C   C86       1.0  0.66640  0.69690  0.87990  1.0000 -0.0507394361
C   C87       1.0  0.70480  0.57190  0.85490  1.0000 -0.057542473
C   C88       1.0  0.29520  0.42810  0.14510  1.0000 -0.057542473
C   C89       1.0  0.61270  0.52820  0.74780  1.0000 -0.012546661
C   C90       1.0  0.38730  0.47180  0.25220  1.0000 -0.012546661
C   C91       1.0  0.98880  0.45790  0.61810  1.0000 -0.057542473
C   C92       1.0  0.01120  0.54210  0.38190  1.0000 -0.057542473
C   C93       1.0  0.87390  0.40700  0.52400  1.0000 -0.0507394361
C   C94       1.0  0.12610  0.59300  0.47600  1.0000 -0.0507394361
C   C95       1.0  0.81280  0.22150  0.47660  1.0000 -0.0412861222
C   C96       1.0  0.18720  0.77850  0.52340  1.0000 -0.0507394361
C   C97       1.0  0.69580  0.16360  0.46770  1.0000 -0.0691678009
C   C98       1.0  0.30420  0.83640  0.53230  1.0000 -0.0691678009
C   C99       1.0  0.67580  0.17430  0.67220  1.0000 -0.0412861222
C   C100      1.0  0.32420  0.82570  0.32780  1.0000 -0.0412861222
C   C101      1.0  0.77850  0.24240  0.77140  1.0000 -0.0507394361
C   C102      1.0  0.22150  0.75760  0.22860  1.0000 -0.0507394361
C   C103      1.0  0.86420  0.12400  0.67840  1.0000 -0.0507394361
C   C104      1.0  0.13580  0.87600  0.32160  1.0000 -0.0507394361
C   C105      1.0  0.73880  0.08510  0.60990  1.0000 -0.0507394361
C   C106      1.0  0.26120  0.91490  0.39010  1.0000 -0.057542473
C   C107      1.0  0.63820  0.25050  0.52490  1.0000 -0.057542473
C   C108      1.0  0.36180  0.74950  0.47510  1.0000 -0.057542473
C   C109      1.0  0.72380  0.36360  0.56010  1.0000 -0.0297741215
C   C110      1.0  0.27620  0.63640  0.43990  1.0000 -0.0297741215
C   C111      1.0  0.93290  0.22770  0.81090  1.0000 -0.0200415115
C   C112      1.0  0.06710  0.77230  0.18910  1.0000 -0.0200415115
C   C113      1.0  0.02390  0.33830  0.83730  1.0000 -0.0412861222
C   C114      1.0  0.97610  0.66170  0.16270  1.0000 -0.0412861222
C   C115      1.0  0.68020  0.84930  0.69930  1.0000 -0.057542473
C   C116      1.0  0.31980  0.15070  0.30070  1.0000 -0.057542473
C   C117      1.0  0.79370  0.90610  0.79450  1.0000 -0.0200415115
C   C118      1.0  0.20630  0.09390  0.20550  1.0000 -0.0200415115
C   C119      1.0  0.86380  0.66270  0.73480  1.0000 -0.0412861222
C   C120      1.0  0.13620  0.33730  0.26520  1.0000 -0.0412861222
C   C121      1.0  0.73950  0.58280  0.66650  1.0000 -0.0297741215
C   C122      1.0  0.26050  0.41720  0.33350  1.0000 -0.0297741215
C   C123      1.0  0.71570  0.79130  0.59920  1.0000 -0.057542473
C   C124      1.0  0.28430  0.20870  0.40080  1.0000 -0.057542473
C   C125      1.0  0.64280  0.67930  0.56100  1.0000 -0.0297741215
C   C126      1.0  0.35720  0.32070  0.43900  1.0000 -0.0297741215
C   C127      1.0  0.54660  0.69830  0.70280  1.0000 -0.0412861222
C   C128      1.0  0.45340  0.30170  0.29720  1.0000 -0.0412861222
C   C129      1.0  0.51940  0.61390  0.63400  1.0000 -0.0507394361
C   C130      1.0  0.48060  0.38610  0.36600  1.0000 -0.0507394361
C   C131      1.0  0.10890  0.32190  0.10130  1.0000 -0.0507394361
C   C132      1.0  0.89110  0.67810  0.89870  1.0000 -0.0507394361
C   C133      1.0  0.07250  0.21490  0.06930  1.0000 -0.0297741215
C   C134      1.0  0.92750  0.78510  0.93070  1.0000 -0.0297741215
C   C135      1.0  0.02250  0.49070  0.58490  1.0000 -0.1905168597
C   C136      1.0  0.97750  0.50930  0.41510  1.0000 -0.1905168597
C   C137      1.0  0.90800  0.43890  0.48930  1.0000 -0.1905168597
C   C138      1.0  0.09200  0.56110  0.51070  1.0000 -0.1905168597
C   C139      1.0  0.79640  0.16840  0.44050  1.0000 -0.1905168597
C   C140      1.0  0.20360  0.83160  0.55950  1.0000 -0.1905168597
C   C141      1.0  0.67870  0.11090  0.43110  1.0000 -0.1797660028
C   C142      1.0  0.32130  0.88910  0.56890  1.0000 -0.1797660028
C   C143      1.0  0.62890  0.17610  0.68830  1.0000 -0.1905168597
C   C144      1.0  0.37110  0.82390  0.31170  1.0000 -0.1905168597
C   C145      1.0  0.73200  0.24450  0.78840  1.0000 -0.1797660028
C   C146      1.0  0.26800  0.75550  0.21160  1.0000 -0.1797660028
C   C147      1.0  0.84940  0.07050  0.70460  1.0000 -0.140114634
C   C148      1.0  0.15060  0.92950  0.29540  1.0000 -0.140114634
C   C149      1.0  0.72090  0.02970  0.63410  1.0000 -0.199521657
C   C150      1.0  0.27910  0.97030  0.36590  1.0000 -0.199521657
C   C151      1.0  0.58980  0.26050  0.47090  1.0000 -0.199521657
C   C152      1.0  0.41020  0.73950  0.52910  1.0000 -0.1905168597
C   C153      1.0  0.67510  0.37540  0.50810  1.0000 -0.1905168597
C   C154      1.0  0.32490  0.62460  0.49190  1.0000 -0.1905168597
C   C155      1.0  0.95600  0.22660  0.87470  1.0000 -0.1507283244
C   C156      1.0  0.04400  0.77340  0.12530  1.0000 -0.1507283244
C   C157      1.0  0.04780  0.33770  0.90060  1.0000 -0.1797660028
C   C158      1.0  0.95220  0.66230  0.09940  1.0000 -0.1797660028
C   C159      1.0  0.69450  0.90520  0.67580  1.0000 -0.199521657
C   C160      1.0  0.30550  0.09480  0.32420  1.0000 -0.199521657
C   C161      1.0  0.80900  0.96290  0.77150  1.0000 -0.1507283244
C   C162      1.0  0.19100  0.03710  0.22850  1.0000 -0.1507283244
C   C163      1.0  0.88440  0.61660  0.74370  1.0000 -0.1905168597
C   C164      1.0  0.11560  0.38340  0.25630  1.0000 -0.1905168597
C   C165      1.0  0.75880  0.53640  0.67480  1.0000 -0.1507283244
C   C166      1.0  0.24120  0.46360  0.32520  1.0000 -0.1507283244
C   C167      1.0  0.72250  0.80050  0.54540  1.0000 -0.1905168597
C   C168      1.0  0.27750  0.19950  0.45460  1.0000 -0.1905168597
C   C169      1.0  0.64730  0.68580  0.50560  1.0000 -0.1700246148
C   C170      1.0  0.35270  0.31420  0.49440  1.0000 -0.1700246148
C   C171      1.0  0.49050  0.70550  0.65260  1.0000 -0.1905168597
C   C172      1.0  0.50950  0.29450  0.34740  1.0000 -0.1905168597
C   C173      1.0  0.46280  0.61920  0.58400  1.0000 -0.1797660028
C   C174      1.0  0.53720  0.38080  0.41600  1.0000 -0.1700246148
C   C175      1.0  0.07880  0.32840  0.03850  1.0000 -0.1905168597
C   C176      1.0  0.92120  0.67160  0.96150  1.0000 -0.1905168597
C   C177      1.0  0.04230  0.22020  0.00610  1.0000 -0.1343539196
C   C178      1.0  0.95770  0.77980  0.99390  1.0000 -0.140114634
C   C179      1.0  0.98200  0.48270  0.51870  1.0000 0.0971579594
C   C180      1.0  0.01800  0.51730  0.48130  1.0000 0.0910593923
C   C181      1.0  0.72880  0.11160  0.41800  1.0000 0.0910593923
C   C182      1.0  0.27120  0.88840  0.58200  1.0000 0.0971579594
C   C183      1.0  0.65570  0.21250  0.74640  1.0000 0.0910593923
C   C184      1.0  0.34430  0.78750  0.25360  1.0000 0.0910593923
C   C185      1.0  0.77770  0.02180  0.68450  1.0000 0.0910593923
C   C186      1.0  0.22230  0.97820  0.31550  1.0000 0.0910593923
C   C187      1.0  0.60630  0.32360  0.46140  1.0000 0.0910593923
C   C188      1.0  0.39370  0.67640  0.53860  1.0000 0.0910593923
C   C189      1.0  0.01570  0.28140  0.92100  1.0000 0.0910593923
C   C190      1.0  0.98430  0.71860  0.07900  1.0000 0.0910593923
C   C191      1.0  0.76010  0.96340  0.71090  1.0000 0.0910593923
C   C192      1.0  0.23990  0.03660  0.28910  1.0000 0.0910593923
C   C193      1.0  0.83140  0.55190  0.71410  1.0000 0.0910593923
C   C194      1.0  0.16860  0.44810  0.28590  1.0000 0.0910593923
C   C195      1.0  0.68790  0.74780  0.49770  1.0000 0.0910593923
C   C196      1.0  0.31210  0.25220  0.50230  1.0000 0.0910593923
C   C197      1.0  0.44910  0.66700  0.59360  1.0000 0.0910593923
C   C198      1.0  0.55090  0.33300  0.40640  1.0000 0.0910593923
C   C199      1.0  0.04560  0.27710  0.98920  1.0000 0.0910593923
C   C200      1.0  0.95440  0.72290  0.01080  1.0000 0.0910593923
C   C201      1.0  0.71040  0.05100  0.38330  1.0000 0.0910593923
C   C202      1.0  0.28960  0.94900  0.61670  1.0000 0.0910593923
C   C203      1.0  0.60670  0.21880  0.76120  1.0000 0.0910593923
C   C204      1.0  0.39330  0.78120  0.23880  1.0000 0.0910593923
C   C205      1.0  0.85120  0.50170  0.72490  1.0000 0.0910593923
C   C206      1.0  0.14880  0.49830  0.27510  1.0000 0.0910593923
C   C207      1.0  0.69020  0.75770  0.43820  1.0000 0.0910593923
C   C208      1.0  0.30980  0.24230  0.56180  1.0000 0.0910593923
C   C209      1.0  0.64220  0.01290  0.33070  1.0000 -0.1905168597
C   C210      1.0  0.35780  0.98710  0.66930  1.0000 -0.1905168597
C   C211      1.0  0.76190  0.03220  0.40470  1.0000 -0.199521657
C   C212      1.0  0.23810  0.96780  0.59530  1.0000 -0.199521657
C   C213      1.0  0.62610  0.23810  0.82370  1.0000 -0.1905168597
C   C214      1.0  0.37390  0.76190  0.17630  1.0000 -0.1905168597
C   C215      1.0  0.53810  0.20540  0.71180  1.0000 -0.1797660028
C   C216      1.0  0.46190  0.79460  0.28820  1.0000 -0.1797660028
C   C217      1.0  0.91820  0.51230  0.73710  1.0000 -0.1905168597
C   C218      1.0  0.08180  0.48770  0.26290  1.0000 -0.1905168597
C   C219      1.0  0.79840  0.43910  0.72090  1.0000 -0.1700246148
C   C220      1.0  0.20160  0.56090  0.27910  1.0000 -0.1700246148
C   C221      1.0  0.63030  0.71550  0.38080  1.0000 -0.1606618814
C   C222      1.0  0.36970  0.28450  0.61920  1.0000 -0.1606618814
C   C223      1.0  0.74990  0.80990  0.43690  1.0000 -0.1905168597
C   C224      1.0  0.25010  0.19010  0.56310  1.0000 -0.1905168597
C   C225      1.0  0.62470  0.95470  0.30140  1.0000 -0.0507394361
C   C226      1.0  0.37530  0.04530  0.69860  1.0000 -0.0507394361
C   C227      1.0  0.74300  0.97410  0.37490  1.0000 -0.0691678009
C   C228      1.0  0.25700  0.02590  0.62510  1.0000 -0.0691678009
C   C229      1.0  0.57690  0.24370  0.83400  1.0000 -0.0297741215
C   C230      1.0  0.42310  0.75630  0.16600  1.0000 -0.0297741215
C   C231      1.0  0.49050  0.21420  0.72350  1.0000 -0.0200415115
C   C232      1.0  0.50950  0.78580  0.27650  1.0000 -0.0200415115
C   C233      1.0  0.93150  0.46170  0.74240  1.0000 -0.0507394361
C   C234      1.0  0.06850  0.53830  0.25760  1.0000 -0.0507394361
C   C235      1.0  0.81300  0.38970  0.72650  1.0000 -0.0507394361
C   C236      1.0  0.18700  0.61030  0.27350  1.0000 -0.0507394361
C   C237      1.0  0.63080  0.72800  0.32450  1.0000 -0.0297741215
C   C238      1.0  0.36920  0.27200  0.67550  1.0000 -0.0297741215
C   C239      1.0  0.74870  0.81990  0.38060  1.0000 -0.0507394361
C   C240      1.0  0.25130  0.18010  0.61940  1.0000 -0.0507394361
C   C241      1.0  0.56480  0.33160  0.61640  1.0000 0.4973796767
C   C242      1.0  0.43520  0.66840  0.38360  1.0000 0.4973796767
C   C243      1.0  0.81990  0.06230  0.92600  1.0000 0.4973796767
C   C244      1.0  0.18010  0.93770  0.07400  1.0000 0.4973796767
C   C245      1.0  0.94240  0.92300  0.15120  1.0000 0.4935715806
C   C246      1.0  0.05760  0.07700  0.84880  1.0000 0.4935715806
S   S1        1.0  0.57450  0.38710  0.67230  1.0000 0.9783841682
S   S2        1.0  0.42550  0.61290  0.32770  1.0000 0.9783841682
S   S3        1.0  0.86090  0.02580  0.98970  1.0000 0.9922417563
S   S4        1.0  0.13910  0.97420  0.01030  1.0000 0.9922417563
S   S5        1.0  0.95420  0.85480  0.14210  1.0000 0.9783841682
S   S6        1.0  0.04580  0.14520  0.85790  1.0000 0.9783841682
N   N1        1.0  0.21570  0.15570  0.77500  1.0000 0.3200753075
N   N2        1.0  0.78430  0.84430  0.22500  1.0000 0.3200753075
N   N3        1.0  0.23160  0.00100  0.77570  1.0000 0.3108326283
N   N4        1.0  0.76840  0.99900  0.22430  1.0000 0.3108326283
N   N5        1.0  0.37040  0.15210  0.94190  1.0000 0.3287148041
N   N6        1.0  0.62960  0.84790  0.05810  1.0000 0.3287148041
N   N7        1.0  0.46680  0.09110  0.88270  1.0000 0.3200753075
N   N8        1.0  0.53320  0.90890  0.11730  1.0000 0.3200753075
N   N9        1.0  0.44910  0.30930  0.86570  1.0000 0.3200753075
N   N10       1.0  0.55090  0.69070  0.13430  1.0000 0.3200753075
N   N11       1.0  0.99200  0.29250  0.64340  1.0000 0.3200753075
N   N12       1.0  0.00800  0.70750  0.35660  1.0000 0.3200753075
N   N13       1.0  0.88810  0.84170  0.75270  1.0000 0.3287148041
N   N14       1.0  0.11190  0.15830  0.24730  1.0000 0.3287148041
N   N15       1.0  0.26610  0.26390  0.11280  1.0000 0.3365542156
N   N16       1.0  0.73390  0.73610  0.88720  1.0000 0.3365542156
N   N17       1.0  0.68110  0.57260  0.79220  1.0000 0.3365542156
N   N18       1.0  0.31890  0.42740  0.20780  1.0000 0.3365542156
N   N19       1.0  0.91550  0.41800  0.58800  1.0000 0.3108326283
N   N20       1.0  0.08450  0.58200  0.41200  1.0000 0.3108326283
N   N21       1.0  0.76420  0.21750  0.49210  1.0000 0.3108326283
N   N22       1.0  0.23580  0.78250  0.50790  1.0000 0.3108326283
N   N23       1.0  0.74940  0.20830  0.71290  1.0000 0.3287148041
N   N24       1.0  0.25060  0.79170  0.28710  1.0000 0.3287148041
N   N25       1.0  0.80900  0.13080  0.63070  1.0000 0.3200753075
N   N26       1.0  0.19100  0.86920  0.36930  1.0000 0.3200753075
N   N27       1.0  0.70440  0.30240  0.56850  1.0000 0.2800774288
N   N28       1.0  0.29560  0.69760  0.43150  1.0000 0.2800774288
N   N29       1.0  0.96820  0.28220  0.79350  1.0000 0.3200753075
N   N30       1.0  0.03180  0.71780  0.20650  1.0000 0.3200753075
N   N31       1.0  0.73030  0.85020  0.75800  1.0000 0.3287148041
N   N32       1.0  0.26970  0.14980  0.24200  1.0000 0.3287148041
N   N33       1.0  0.79170  0.64430  0.69660  1.0000 0.3200753075
N   N34       1.0  0.20830  0.35570  0.30340  1.0000 0.3200753075
N   N35       1.0  0.67420  0.73070  0.60450  1.0000 0.3108326283
N   N36       1.0  0.32580  0.26930  0.39550  1.0000 0.3108326283
N   N37       1.0  0.56190  0.65520  0.69180  1.0000 0.3287148041
N   N38       1.0  0.43810  0.34480  0.30820  1.0000 0.3287148041
N   N39       1.0  0.10510  0.26580  0.11520  1.0000 0.3287148041
N   N40       1.0  0.89490  0.73420  0.88480  1.0000 0.3287148041
N   N41       1.0  0.67550  0.93660  0.32460  1.0000 0.3200753075
N   N42       1.0  0.32450  0.06340  0.67540  1.0000 0.3200753075
N   N43       1.0  0.51190  0.23240  0.78540  1.0000 0.3200753075
N   N44       1.0  0.48810  0.76760  0.21460  1.0000 0.3200753075
N   N45       1.0  0.87910  0.40120  0.73700  1.0000 0.3365542156
N   N46       1.0  0.12090  0.59880  0.26300  1.0000 0.3365542156
N   N47       1.0  0.68960  0.77980  0.32550  1.0000 0.3200753075
N   N48       1.0  0.31040  0.22020  0.67450  1.0000 0.3200753075
O   O1        1.0  0.25550  0.12790  0.79950  1.0000 -0.6087808865
O   O2        1.0  0.74450  0.87210  0.20050  1.0000 -0.6087808865
O   O3        1.0  0.29690  0.03920  0.77920  1.0000 -0.6275224077
O   O4        1.0  0.70310  0.96080  0.22080  1.0000 -0.6275224077
O   O5        1.0  0.38550  0.13120  0.90460  1.0000 -0.6204598266
O   O6        1.0  0.61450  0.86880  0.09540  1.0000 -0.6204598266
O   O7        1.0  0.45440  0.12590  0.83870  1.0000 -0.6087808865
O   O8        1.0  0.54560  0.87410  0.16130  1.0000 -0.6087808865
O   O9        1.0  0.40530  0.25030  0.86960  1.0000 -0.6087808865
O   O10       1.0  0.59470  0.74970  0.13040  1.0000 -0.6087808865
O   O11       1.0  0.34260  0.12000  0.70210  1.0000 -0.6087808865
O   O12       1.0  0.65740  0.88000  0.29790  1.0000 -0.6087808865
O   O13       1.0  0.46650  0.23940  0.79660  1.0000 -0.6087808865
O   O14       1.0  0.53350  0.76060  0.20340  1.0000 -0.6087808865
O   O15       1.0  0.31140  0.20940  0.72900  1.0000 -0.6087808865
O   O16       1.0  0.68860  0.79060  0.27100  1.0000 -0.6087808865
O   O17       1.0  0.94600  0.31480  0.62020  1.0000 -0.6087808865
O   O18       1.0  0.05400  0.68520  0.37980  1.0000 -0.6087808865
O   O19       1.0  0.82130  0.81890  0.74460  1.0000 -0.6204598266
O   O20       1.0  0.17870  0.18110  0.25540  1.0000 -0.6204598266
O   O21       1.0  0.24170  0.28540  0.13950  1.0000 -0.6204598266
O   O22       1.0  0.75830  0.71460  0.86050  1.0000 -0.6204598266
O   O23       1.0  0.72680  0.61560  0.77540  1.0000 -0.588472827
O   O24       1.0  0.27320  0.38440  0.22460  1.0000 -0.588472827
O   O25       1.0  0.88380  0.38930  0.62190  1.0000 -0.6007252572
O   O26       1.0  0.11620  0.61070  0.37810  1.0000 -0.6007252572
O   O27       1.0  0.78220  0.26660  0.53070  1.0000 -0.6007252572
O   O28       1.0  0.21780  0.73340  0.46930  1.0000 -0.6007252572
O   O29       1.0  0.79410  0.20890  0.69560  1.0000 -0.6007252572
O   O30       1.0  0.20590  0.79110  0.30440  1.0000 -0.6007252572
O   O31       1.0  0.82470  0.18360  0.60660  1.0000 -0.6087808865
O   O32       1.0  0.17530  0.81640  0.39340  1.0000 -0.6087808865
O   O33       1.0  0.74850  0.29120  0.62040  1.0000 -0.6007252572
O   O34       1.0  0.25150  0.70880  0.37960  1.0000 -0.6007252572
O   O35       1.0  0.94930  0.28030  0.73210  1.0000 -0.6204598266
O   O36       1.0  0.05070  0.71970  0.26790  1.0000 -0.6204598266
O   O37       1.0  0.89010  0.35250  0.73870  1.0000 -0.588472827
O   O38       1.0  0.10990  0.64750  0.26130  1.0000 -0.588472827
O   O39       1.0  0.71750  0.79600  0.77960  1.0000 -0.6007252572
O   O40       1.0  0.28250  0.20400  0.22040  1.0000 -0.6007252572
O   O41       1.0  0.77170  0.68820  0.68930  1.0000 -0.6204598266
O   O42       1.0  0.22830  0.31180  0.31070  1.0000 -0.6204598266
O   O43       1.0  0.66510  0.72350  0.65500  1.0000 -0.6275224077
O   O44       1.0  0.33490  0.27650  0.34500  1.0000 -0.6275224077
O   O45       1.0  0.61940  0.65270  0.73810  1.0000 -0.6087808865
O   O46       1.0  0.38060  0.34730  0.26190  1.0000 -0.6087808865
O   O47       1.0  0.86530  0.73980  0.82460  1.0000 -0.6087808865
O   O48       1.0  0.13470  0.26020  0.17540  1.0000 -0.6087808865
O   O49       1.0  0.55210  0.34930  0.71410  1.0000 -0.5794220256
O   O50       1.0  0.65030  0.43840  0.70260  1.0000 -0.5794220256
O   O51       1.0  0.52210  0.40710  0.62980  1.0000 -0.6007252572
O   O52       1.0  0.44790  0.65070  0.28590  1.0000 -0.5794220256
O   O53       1.0  0.34970  0.56160  0.29740  1.0000 -0.5794220256
O   O54       1.0  0.47790  0.59290  0.37020  1.0000 -0.6007252572
O   O55       1.0  0.93800  0.07450  0.02750  1.0000 -0.5719509262
O   O56       1.0  0.82210  0.01080  0.02500  1.0000 -0.5794220256
O   O57       1.0  0.84810  0.96900  0.95830  1.0000 -0.5645309526
O   O58       1.0  0.06200  0.92550  0.97250  1.0000 -0.5794220256
O   O59       1.0  0.17790  0.98920  0.97500  1.0000 -0.588472827
O   O60       1.0  0.15190  0.03100  0.04170  1.0000 -0.5645309526
O   O61       1.0  0.01840  0.88530  0.13340  1.0000 -0.5794220256
O   O62       1.0  0.96730  0.83240  0.20060  1.0000 -0.5719509262
O   O63       1.0  0.88650  0.80960  0.08620  1.0000 -0.5645309526
O   O64       1.0  0.98160  0.11470  0.86660  1.0000 -0.5794220256
O   O65       1.0  0.03270  0.16760  0.79940  1.0000 -0.5719509262
O   O66       1.0  0.11350  0.19040  0.91380  1.0000 -0.5719509262
F   F1        1.0  0.57720  0.36190  0.57280  1.0000 -0.199521657
F   F2        1.0  0.49720  0.27980  0.58890  1.0000 -0.199521657
F   F3        1.0  0.61300  0.31270  0.64720  1.0000 -0.199521657
F   F4        1.0  0.42280  0.63810  0.42720  1.0000 -0.199521657
F   F5        1.0  0.50280  0.72020  0.41110  1.0000 -0.199521657
F   F6        1.0  0.38700  0.68730  0.35280  1.0000 -0.199521657
F   F7        1.0  0.84540  0.07130  0.88650  1.0000 -0.199521657
F   F8        1.0  0.83660  0.11910  0.95040  1.0000 -0.199521657
F   F9        1.0  0.74730  0.02510  0.89300  1.0000 -0.1797660028
F   F10       1.0  0.15460  0.92870  0.11350  1.0000 -0.199521657
F   F11       1.0  0.16340  0.88090  0.04960  1.0000 -0.199521657
F   F12       1.0  0.25270  0.97490  0.10700  1.0000 -0.1797660028
F   F13       1.0  0.92140  0.94300  0.09690  1.0000 -0.1700246148
F   F14       1.0  0.00700  0.97090  0.19600  1.0000 -0.199521657
F   F15       1.0  0.89290  0.90530  0.16790  1.0000 -0.199521657
F   F16       1.0  0.07860  0.05700  0.90310  1.0000 -0.1700246148
F   F17       1.0  0.99300  0.02910  0.80400  1.0000 -0.199521657
F   F18       1.0  0.10710  0.09470  0.83210  1.0000 -0.199521657
