# DDEC6 charges by PACMAN v1.1 (https://github.com/mtap-research/PACMAN-charge/)
data_2014[FeAg][tfa]3[ION]1
_chemical_formula_sum              "Fe4 Ag4 P6 H136 C232 N40 O16 F36"
_cell_length_a       17.3266
_cell_length_b       21.9786
_cell_length_c       23.2172
_cell_angle_alpha    99.59
_cell_angle_beta     108.832
_cell_angle_gamma    107.228

_symmetry_space_group_name_H-M    "P 1"
_symmetry_Int_Tables_number       1

loop_
  _symmetry_equiv_pos_as_xyz
  'x, y, z'

loop_
  _atom_site_type_symbol
  _atom_site_label
  _atom_site_symmetry_multiplicity
  _atom_site_fract_x
  _atom_site_fract_y
  _atom_site_fract_z
  _atom_site_occupancy
  _atom_site_charge
Fe  Fe1       1.0  0.29867  0.22115  0.43966  1.0000 0.3273083514
Fe  Fe2       1.0  0.32409  0.73351  0.92974  1.0000 0.3370026892
Fe  Fe3       1.0  0.70133  0.77885  0.56034  1.0000 0.3273083514
Fe  Fe4       1.0  0.67591  0.26649  0.07026  1.0000 0.3370026892
Ag  Ag1       1.0  0.92832  0.12345  0.82821  1.0000 0.2165831199
Ag  Ag2       1.0  0.90176  0.61255  0.33749  1.0000 0.2165831199
Ag  Ag3       1.0  0.07168  0.87655  0.17179  1.0000 0.2165831199
Ag  Ag4       1.0  0.09824  0.38745  0.66251  1.0000 0.2165831199
P   P1        1.0  0.99214  0.69236  0.90505  1.0000 1.5534117466
P   P2        1.0  0.00786  0.30764  0.09495  1.0000 1.5534117466
P   P3        1.0  0.52170  0.48467  0.79621  1.0000 1.4942942506
P   P4        1.0  0.47830  0.51533  0.20379  1.0000 1.4954837209
P   P5        1.0  0.49957  0.99047  0.29429  1.0000 1.505897308
P   P6        1.0  0.50043  0.00953  0.70571  1.0000 1.505897308
H   H1        1.0  0.79310  0.19340  0.77980  1.0000 0.0977018671
H   H2        1.0  0.80100  0.03940  0.67380  1.0000 0.0907338208
H   H3        1.0  0.05040  0.24810  0.80440  1.0000 0.0907338208
H   H4        1.0  0.93840  0.24390  0.92640  1.0000 0.110190185
H   H5        1.0  0.67840  0.19580  0.69640  1.0000 0.1400333074
H   H6        1.0  0.69180  0.03950  0.58550  1.0000 0.1302891815
H   H7        1.0  0.10020  0.36310  0.83070  1.0000 0.1211598232
H   H8        1.0  0.98390  0.35890  0.95660  1.0000 0.1400333074
H   H9        1.0  0.58460  0.05550  0.49310  1.0000 0.1495781627
H   H10       1.0  0.06770  0.48100  0.00250  1.0000 0.1495781627
H   H11       1.0  0.44580  0.22140  0.55900  1.0000 0.1302891815
H   H12       1.0  0.44240  0.07300  0.38670  1.0000 0.1495781627
H   H13       1.0  0.20070  0.58670  0.85640  1.0000 0.1211598232
H   H14       1.0  0.16230  0.63010  0.04740  1.0000 0.1400333074
H   H15       1.0  0.34660  0.07140  0.28810  1.0000 0.1495781627
H   H16       1.0  0.23410  0.74370  0.10690  1.0000 0.1400333074
H   H17       1.0  0.19490  0.31140  0.45570  1.0000 0.1302891815
H   H18       1.0  0.41290  0.29700  0.37730  1.0000 0.1400333074
H   H19       1.0  0.18000  0.07380  0.37100  1.0000 0.1302891815
H   H20       1.0  0.24740  0.08220  0.19850  1.0000 0.110190185
H   H21       1.0  0.22000  0.82450  0.94080  1.0000 0.1302891815
H   H22       1.0  0.45790  0.72730  0.05200  1.0000 0.1302891815
H   H23       1.0  0.45580  0.80670  0.87720  1.0000 0.1400333074
H   H24       1.0  0.32890  0.85350  0.16240  1.0000 0.1302891815
H   H25       1.0  0.11500  0.23170  0.23610  1.0000 0.1495781627
H   H26       1.0  0.16790  0.15020  0.20930  1.0000 0.1400333074
H   H27       1.0  0.50750  0.43850  0.58260  1.0000 0.1495781627
H   H28       1.0  0.41920  0.39970  0.63530  1.0000 0.1400333074
H   H29       1.0  0.22890  0.23080  0.62620  1.0000 0.1302891815
H   H30       1.0  0.15420  0.11960  0.56700  1.0000 0.1400333074
H   H31       1.0  0.15030  0.74490  0.72280  1.0000 0.1400333074
H   H32       1.0  0.20650  0.66560  0.69900  1.0000 0.1302891815
H   H33       1.0  0.38330  0.58750  0.78390  1.0000 0.1495781627
H   H34       1.0  0.46610  0.58210  0.88340  1.0000 0.1495781627
H   H35       1.0  0.42540  0.91200  0.12140  1.0000 0.1400333074
H   H36       1.0  0.52320  0.95220  0.07470  1.0000 0.1495781627
H   H37       1.0  0.32880  0.34120  0.68070  1.0000 0.1211598232
H   H38       1.0  0.28590  0.59690  0.69150  1.0000 0.1211598232
H   H39       1.0  0.02790  0.33310  0.23410  1.0000 0.1495781627
H   H40       1.0  0.64640  0.51930  0.54350  1.0000 0.1495781627
H   H41       1.0  0.06590  0.96930  0.52690  1.0000 0.1400333074
H   H42       1.0  0.05760  0.84330  0.71650  1.0000 0.1400333074
H   H43       1.0  0.59130  0.55520  0.99370  1.0000 0.1495781627
H   H44       1.0  0.67130  0.03410  0.04300  1.0000 0.1495781627
H   H45       1.0  0.04790  0.45570  0.42450  1.0000 0.1302891815
H   H46       1.0  0.98180  0.42460  0.23650  1.0000 0.1495781627
H   H47       1.0  0.60460  0.46550  0.33360  1.0000 0.1495781627
H   H48       1.0  0.77930  0.55440  0.51540  1.0000 0.1211598232
H   H49       1.0  0.06380  0.85380  0.33890  1.0000 0.1302891815
H   H50       1.0  0.99490  0.84700  0.48860  1.0000 0.1302891815
H   H51       1.0  0.04000  0.94440  0.90050  1.0000 0.1400333074
H   H52       1.0  0.02000  0.94460  0.72170  1.0000 0.1302891815
H   H53       1.0  0.69590  0.70510  0.18980  1.0000 0.1400333074
H   H54       1.0  0.66410  0.52170  0.09350  1.0000 0.1302891815
H   H55       1.0  0.64250  0.97330  0.83580  1.0000 0.1400333074
H   H56       1.0  0.81470  0.07250  0.01780  1.0000 0.1302891815
H   H57       1.0  0.99500  0.54030  0.42570  1.0000 0.0907338208
H   H58       1.0  0.93510  0.51270  0.24300  1.0000 0.0977018671
H   H59       1.0  0.70830  0.52960  0.30190  1.0000 0.0977018671
H   H60       1.0  0.87860  0.61170  0.47850  1.0000 0.0907338208
H   H61       1.0  0.00560  0.73840  0.30550  1.0000 0.0977018671
H   H62       1.0  0.93790  0.73200  0.45060  1.0000 0.0977018671
H   H63       1.0  0.98080  0.02590  0.90210  1.0000 0.0977018671
H   H64       1.0  0.96460  0.02750  0.73020  1.0000 0.0977018671
H   H65       1.0  0.80120  0.69760  0.27690  1.0000 0.0907338208
H   H66       1.0  0.76760  0.51910  0.18360  1.0000 0.0907338208
H   H67       1.0  0.74510  0.03790  0.80400  1.0000 0.0977018671
H   H68       1.0  0.91100  0.13110  0.97910  1.0000 0.110190185
H   H69       1.0  0.20690  0.80660  0.22020  1.0000 0.0977018671
H   H70       1.0  0.19900  0.96060  0.32620  1.0000 0.0907338208
H   H71       1.0  0.94960  0.75190  0.19560  1.0000 0.0907338208
H   H72       1.0  0.06160  0.75610  0.07360  1.0000 0.110190185
H   H73       1.0  0.32160  0.80420  0.30360  1.0000 0.1400333074
H   H74       1.0  0.30820  0.96050  0.41450  1.0000 0.1302891815
H   H75       1.0  0.89980  0.63690  0.16930  1.0000 0.1211598232
H   H76       1.0  0.01610  0.64110  0.04340  1.0000 0.1400333074
H   H77       1.0  0.41540  0.94450  0.50690  1.0000 0.1495781627
H   H78       1.0  0.93230  0.51900  0.99750  1.0000 0.1495781627
H   H79       1.0  0.55420  0.77860  0.44100  1.0000 0.1302891815
H   H80       1.0  0.55760  0.92700  0.61330  1.0000 0.1495781627
H   H81       1.0  0.79930  0.41330  0.14360  1.0000 0.1211598232
H   H82       1.0  0.83770  0.36990  0.95260  1.0000 0.1400333074
H   H83       1.0  0.65340  0.92860  0.71190  1.0000 0.1495781627
H   H84       1.0  0.76590  0.25630  0.89310  1.0000 0.1400333074
H   H85       1.0  0.80510  0.68860  0.54430  1.0000 0.1302891815
H   H86       1.0  0.58710  0.70300  0.62270  1.0000 0.1400333074
H   H87       1.0  0.82000  0.92620  0.62900  1.0000 0.1302891815
H   H88       1.0  0.75260  0.91780  0.80150  1.0000 0.110190185
H   H89       1.0  0.78000  0.17550  0.05920  1.0000 0.1302891815
H   H90       1.0  0.54210  0.27270  0.94800  1.0000 0.1302891815
H   H91       1.0  0.54420  0.19330  0.12280  1.0000 0.1400333074
H   H92       1.0  0.67110  0.14650  0.83760  1.0000 0.1211598232
H   H93       1.0  0.88500  0.76830  0.76390  1.0000 0.1495781627
H   H94       1.0  0.83210  0.84980  0.79070  1.0000 0.1400333074
H   H95       1.0  0.49250  0.56150  0.41740  1.0000 0.1495781627
H   H96       1.0  0.58080  0.60030  0.36470  1.0000 0.1400333074
H   H97       1.0  0.77110  0.76920  0.37380  1.0000 0.1302891815
H   H98       1.0  0.84580  0.88040  0.43300  1.0000 0.1400333074
H   H99       1.0  0.84970  0.25510  0.27720  1.0000 0.1400333074
H   H100      1.0  0.79350  0.33440  0.30100  1.0000 0.1302891815
H   H101      1.0  0.61670  0.41250  0.21610  1.0000 0.1495781627
H   H102      1.0  0.53390  0.41790  0.11660  1.0000 0.1495781627
H   H103      1.0  0.57460  0.08800  0.87860  1.0000 0.1400333074
H   H104      1.0  0.47680  0.04780  0.92530  1.0000 0.1495781627
H   H105      1.0  0.67120  0.65880  0.31930  1.0000 0.1211598232
H   H106      1.0  0.71410  0.40310  0.30850  1.0000 0.1211598232
H   H107      1.0  0.97210  0.66690  0.76590  1.0000 0.1495781627
H   H108      1.0  0.35360  0.48070  0.45650  1.0000 0.1495781627
H   H109      1.0  0.93410  0.03070  0.47310  1.0000 0.1400333074
H   H110      1.0  0.94240  0.15670  0.28350  1.0000 0.1400333074
H   H111      1.0  0.40870  0.44480  0.00630  1.0000 0.1495781627
H   H112      1.0  0.32870  0.96590  0.95700  1.0000 0.1495781627
H   H113      1.0  0.95210  0.54430  0.57550  1.0000 0.1302891815
H   H114      1.0  0.01820  0.57540  0.76350  1.0000 0.1495781627
H   H115      1.0  0.39540  0.53450  0.66640  1.0000 0.1495781627
H   H116      1.0  0.22070  0.44560  0.48460  1.0000 0.1211598232
H   H117      1.0  0.93620  0.14620  0.66110  1.0000 0.1302891815
H   H118      1.0  0.00510  0.15300  0.51140  1.0000 0.1302891815
H   H119      1.0  0.96000  0.05560  0.09950  1.0000 0.1400333074
H   H120      1.0  0.98000  0.05540  0.27830  1.0000 0.1302891815
H   H121      1.0  0.30410  0.29490  0.81020  1.0000 0.1400333074
H   H122      1.0  0.33590  0.47830  0.90650  1.0000 0.1302891815
H   H123      1.0  0.35750  0.02670  0.16420  1.0000 0.1400333074
H   H124      1.0  0.18530  0.92750  0.98220  1.0000 0.1302891815
H   H125      1.0  0.00500  0.45970  0.57430  1.0000 0.0907338208
H   H126      1.0  0.06490  0.48730  0.75700  1.0000 0.0977018671
H   H127      1.0  0.29170  0.47040  0.69810  1.0000 0.0977018671
H   H128      1.0  0.12140  0.38830  0.52150  1.0000 0.0907338208
H   H129      1.0  0.99440  0.26160  0.69450  1.0000 0.0977018671
H   H130      1.0  0.06210  0.26800  0.54940  1.0000 0.0977018671
H   H131      1.0  0.01920  0.97410  0.09790  1.0000 0.0977018671
H   H132      1.0  0.03540  0.97250  0.26980  1.0000 0.0977018671
H   H133      1.0  0.19880  0.30240  0.72310  1.0000 0.0907338208
H   H134      1.0  0.23240  0.48090  0.81640  1.0000 0.0907338208
H   H135      1.0  0.25490  0.96210  0.19600  1.0000 0.0977018671
H   H136      1.0  0.08900  0.86890  0.02090  1.0000 0.110190185
C   C1        1.0  0.77120  0.16110  0.73980  1.0000 0.0597499127
C   C2        1.0  0.77640  0.07240  0.67820  1.0000 0.0597499127
C   C3        1.0  0.03670  0.27110  0.83570  1.0000 0.0597499127
C   C4        1.0  0.97140  0.26860  0.90660  1.0000 0.0688142611
C   C5        1.0  0.70340  0.16340  0.69020  1.0000 -0.1596887027
C   C6        1.0  0.71060  0.07130  0.62520  1.0000 -0.1780123431
C   C7        1.0  0.06650  0.33970  0.85080  1.0000 -0.1999305335
C   C8        1.0  0.99820  0.33730  0.92480  1.0000 -0.1780123431
C   C9        1.0  0.67210  0.11820  0.63116  1.0000 0.0977018671
C   C10       1.0  0.04580  0.37400  0.89640  1.0000 0.0977018671
C   C11       1.0  0.60180  0.11970  0.57640  1.0000 0.197040016
C   C12       1.0  0.07870  0.44640  0.91800  1.0000 0.1797459424
C   C13       1.0  0.56810  0.08780  0.51340  1.0000 -0.2621206397
C   C14       1.0  0.08840  0.49120  0.97070  1.0000 -0.2801431173
C   C15       1.0  0.50100  0.15780  0.53274  1.0000 0.1400333074
C   C16       1.0  0.50240  0.11270  0.48380  1.0000 0.0597499127
C   C17       1.0  0.14830  0.54540  0.91310  1.0000 0.1302891815
C   C18       1.0  0.13490  0.55550  0.96950  1.0000 0.0795275888
C   C19       1.0  0.44500  0.19160  0.52384  1.0000 -0.0203641334
C   C20       1.0  0.44460  0.10320  0.42214  1.0000 -0.1999305335
C   C21       1.0  0.19540  0.59552  0.89620  1.0000 -0.0395994747
C   C22       1.0  0.17170  0.62010  0.00930  1.0000 -0.1999305335
C   C23       1.0  0.39070  0.13904  0.41439  1.0000 0.1302891815
C   C24       1.0  0.22280  0.66990  0.99210  1.0000 0.1607086191
C   C25       1.0  0.33000  0.13708  0.35281  1.0000 0.1797459424
C   C26       1.0  0.27420  0.73870  0.03280  1.0000 0.1797459424
C   C27       1.0  0.31580  0.10010  0.29253  1.0000 -0.1689625797
C   C28       1.0  0.27300  0.76800  0.09050  1.0000 -0.1596887027
C   C29       1.0  0.18000  0.29589  0.41138  1.0000 -0.0477309392
C   C30       1.0  0.18430  0.22810  0.32402  1.0000 0.1400333074
C   C31       1.0  0.22530  0.18190  0.30630  1.0000 0.1607086191
C   C32       1.0  0.43230  0.32530  0.41893  1.0000 -0.0395994747
C   C33       1.0  0.41930  0.35040  0.51703  1.0000 0.1302891815
C   C34       1.0  0.36790  0.32381  0.55261  1.0000 0.1797459424
C   C35       1.0  0.25900  0.22680  0.54780  1.0000 0.1607086191
C   C36       1.0  0.20660  0.15778  0.50759  1.0000 0.1302891815
C   C37       1.0  0.17660  0.08330  0.41139  1.0000 -0.0477309392
C   C38       1.0  0.25640  0.10610  0.23960  1.0000 -0.0395994747
C   C39       1.0  0.20770  0.80940  0.89680  1.0000 -0.0051474496
C   C40       1.0  0.21850  0.74282  0.81184  1.0000 0.1400333074
C   C41       1.0  0.25890  0.69642  0.79681  1.0000 0.1696261262
C   C42       1.0  0.35950  0.65000  0.84531  1.0000 0.1797459424
C   C43       1.0  0.41440  0.64952  0.90845  1.0000 0.1400333074
C   C44       1.0  0.45970  0.69830  0.01770  1.0000 -0.0259906629
C   C45       1.0  0.38480  0.83630  0.04170  1.0000 0.1696261262
C   C46       1.0  0.44140  0.86310  0.00880  1.0000 0.1400333074
C   C47       1.0  0.46870  0.83600  0.91701  1.0000 -0.0395994747
C   C48       1.0  0.32900  0.83260  0.12320  1.0000 -0.0203641334
C   C49       1.0  0.12820  0.31900  0.36900  1.0000 0.1302891815
C   C50       1.0  0.13130  0.24910  0.28040  1.0000 -0.2067876171
C   C51       1.0  0.20960  0.14670  0.24580  1.0000 -0.1780123431
C   C52       1.0  0.50240  0.38510  0.44110  1.0000 0.1495781627
C   C53       1.0  0.48970  0.41040  0.54100  1.0000 -0.2196874545
C   C54       1.0  0.37770  0.35560  0.61300  1.0000 -0.1689625797
C   C55       1.0  0.26450  0.25500  0.60760  1.0000 -0.1897412667
C   C56       1.0  0.16060  0.10900  0.52780  1.0000 -0.2367336357
C   C57       1.0  0.13330  0.03313  0.43090  1.0000 0.1302891815
C   C58       1.0  0.15710  0.83250  0.85340  1.0000 0.1495781627
C   C59       1.0  0.16530  0.76279  0.76686  1.0000 -0.1999305335
C   C60       1.0  0.24610  0.66160  0.73620  1.0000 -0.1897412667
C   C61       1.0  0.35070  0.61500  0.78680  1.0000 -0.1689625797
C   C62       1.0  0.46550  0.61130  0.91825  1.0000 -0.1999305335
C   C63       1.0  0.51300  0.66240  0.02868  1.0000 0.1400333074
C   C64       1.0  0.38610  0.86740  0.09890  1.0000 -0.1596887027
C   C65       1.0  0.51040  0.92350  0.03460  1.0000 -0.2196874545
C   C66       1.0  0.53680  0.89630  0.94090  1.0000 0.1302891815
C   C67       1.0  0.10220  0.29700  0.30370  1.0000 0.0688142611
C   C68       1.0  0.53420  0.42840  0.50180  1.0000 0.0392880237
C   C69       1.0  0.32440  0.32040  0.63980  1.0000 -0.0203641334
C   C70       1.0  0.12410  0.04400  0.48880  1.0000 0.0488290853
C   C71       1.0  0.13460  0.80980  0.78810  1.0000 0.0597499127
C   C72       1.0  0.29300  0.62100  0.73210  1.0000 -0.0395994747
C   C73       1.0  0.51580  0.61680  0.98059  1.0000 0.0597499127
C   C74       1.0  0.56170  0.94110  0.99920  1.0000 0.0392880237
C   C75       1.0  0.05430  0.37690  0.32750  1.0000 0.1696261262
C   C76       1.0  0.05430  0.33580  0.27770  1.0000 -0.2684129828
C   C77       1.0  0.61780  0.46760  0.45170  1.0000 0.1696261262
C   C78       1.0  0.60950  0.48160  0.50760  1.0000 -0.2907301887
C   C79       1.0  0.08240  0.97950  0.49330  1.0000 -0.30735456
C   C80       1.0  0.07110  0.93580  0.43990  1.0000 0.1607086191
C   C81       1.0  0.08020  0.88730  0.80890  1.0000 0.1607086191
C   C82       1.0  0.08360  0.84690  0.76030  1.0000 -0.2907301887
C   C83       1.0  0.57520  0.58860  0.01280  1.0000 -0.2621206397
C   C84       1.0  0.60390  0.61810  0.07500  1.0000 0.1893639362
C   C85       1.0  0.63800  0.99570  0.00730  1.0000 -0.2907301887
C   C86       1.0  0.65320  0.98140  0.95340  1.0000 0.1797459424
C   C87       1.0  0.02180  0.43100  0.33090  1.0000 0.0907338208
C   C88       1.0  0.68020  0.50380  0.42820  1.0000 0.0907338208
C   C89       1.0  0.03530  0.86280  0.41650  1.0000 0.0977018671
C   C90       1.0  0.03900  0.93640  0.81160  1.0000 0.0907338208
C   C91       1.0  0.66960  0.61464  0.13177  1.0000 0.0977018671
C   C92       1.0  0.71670  0.01730  0.93100  1.0000 0.0795275888
C   C93       1.0  0.02440  0.46620  0.38610  1.0000 -0.1999305335
C   C94       1.0  0.98630  0.44840  0.27630  1.0000 -0.1897412667
C   C95       1.0  0.66030  0.49600  0.36440  1.0000 -0.1689625797
C   C96       1.0  0.76330  0.54790  0.47100  1.0000 -0.1999305335
C   C97       1.0  0.03810  0.82980  0.36280  1.0000 -0.1897412667
C   C98       1.0  0.99740  0.82560  0.45060  1.0000 -0.2067876171
C   C99       1.0  0.02540  0.96090  0.86480  1.0000 -0.1897412667
C   C100      1.0  0.01400  0.96120  0.75980  1.0000 -0.2067876171
C   C101      1.0  0.71030  0.66650  0.18730  1.0000 -0.1689625797
C   C102      1.0  0.69140  0.55850  0.13080  1.0000 -0.1689625797
C   C103      1.0  0.69670  0.00600  0.86640  1.0000 -0.1780123431
C   C104      1.0  0.79850  0.06430  0.97330  1.0000 -0.1897412667
C   C105      1.0  0.99290  0.51680  0.38660  1.0000 0.0392880237
C   C106      1.0  0.95750  0.50050  0.28050  1.0000 0.0597499127
C   C107      1.0  0.72310  0.53360  0.34580  1.0000 0.0907338208
C   C108      1.0  0.82190  0.58180  0.44880  1.0000 0.0392880237
C   C109      1.0  0.00310  0.76100  0.34320  1.0000 0.0392880237
C   C110      1.0  0.96390  0.75730  0.42760  1.0000 0.0488290853
C   C111      1.0  0.99030  0.00980  0.86540  1.0000 0.0488290853
C   C112      1.0  0.98060  0.01040  0.76540  1.0000 0.0488290853
C   C113      1.0  0.77240  0.66120  0.23920  1.0000 0.0488290853
C   C114      1.0  0.75300  0.55760  0.18470  1.0000 0.0488290853
C   C115      1.0  0.75960  0.04460  0.84830  1.0000 0.0795275888
C   C116      1.0  0.85560  0.09890  0.94970  1.0000 0.0597499127
C   C117      1.0  0.22880  0.83890  0.26020  1.0000 0.0597499127
C   C118      1.0  0.22360  0.92760  0.32180  1.0000 0.0597499127
C   C119      1.0  0.96330  0.72890  0.16430  1.0000 0.0597499127
C   C120      1.0  0.02860  0.73140  0.09340  1.0000 0.0688142611
C   C121      1.0  0.29660  0.83660  0.30980  1.0000 -0.1596887027
C   C122      1.0  0.28940  0.92870  0.37480  1.0000 -0.1780123431
C   C123      1.0  0.93350  0.66030  0.14920  1.0000 -0.1999305335
C   C124      1.0  0.00180  0.66270  0.07520  1.0000 -0.1780123431
C   C125      1.0  0.32790  0.88180  0.36884  1.0000 0.0977018671
C   C126      1.0  0.95420  0.62600  0.10360  1.0000 0.0977018671
C   C127      1.0  0.39820  0.88030  0.42360  1.0000 0.197040016
C   C128      1.0  0.92130  0.55360  0.08200  1.0000 0.1797459424
C   C129      1.0  0.43190  0.91220  0.48660  1.0000 -0.2621206397
C   C130      1.0  0.91160  0.50880  0.02930  1.0000 -0.2801431173
C   C131      1.0  0.49900  0.84220  0.46726  1.0000 0.1400333074
C   C132      1.0  0.49760  0.88730  0.51620  1.0000 0.0597499127
C   C133      1.0  0.85170  0.45460  0.08690  1.0000 0.1302891815
C   C134      1.0  0.86510  0.44450  0.03050  1.0000 0.0795275888
C   C135      1.0  0.55500  0.80840  0.47616  1.0000 -0.0203641334
C   C136      1.0  0.55540  0.89680  0.57786  1.0000 -0.1999305335
C   C137      1.0  0.80460  0.40448  0.10380  1.0000 -0.0395994747
C   C138      1.0  0.82830  0.37990  0.99070  1.0000 -0.1999305335
C   C139      1.0  0.60930  0.86096  0.58561  1.0000 0.1302891815
C   C140      1.0  0.77720  0.33010  0.00790  1.0000 0.1696261262
C   C141      1.0  0.67000  0.86292  0.64719  1.0000 0.1696261262
C   C142      1.0  0.72580  0.26130  0.96720  1.0000 0.1797459424
C   C143      1.0  0.68420  0.89990  0.70747  1.0000 -0.1689625797
C   C144      1.0  0.72700  0.23200  0.90950  1.0000 -0.1596887027
C   C145      1.0  0.82000  0.70411  0.58862  1.0000 -0.0477309392
C   C146      1.0  0.81570  0.77190  0.67598  1.0000 0.1400333074
C   C147      1.0  0.77470  0.81810  0.69370  1.0000 0.1607086191
C   C148      1.0  0.56770  0.67470  0.58107  1.0000 -0.0395994747
C   C149      1.0  0.58070  0.64960  0.48297  1.0000 0.1302891815
C   C150      1.0  0.63210  0.67619  0.44739  1.0000 0.1797459424
C   C151      1.0  0.74100  0.77320  0.45220  1.0000 0.1607086191
C   C152      1.0  0.79340  0.84222  0.49241  1.0000 0.1302891815
C   C153      1.0  0.82340  0.91670  0.58861  1.0000 -0.0477309392
C   C154      1.0  0.74360  0.89390  0.76040  1.0000 -0.0395994747
C   C155      1.0  0.79230  0.19060  0.10320  1.0000 -0.003319652
C   C156      1.0  0.78150  0.25718  0.18816  1.0000 0.1400333074
C   C157      1.0  0.74110  0.30358  0.20319  1.0000 0.1696261262
C   C158      1.0  0.64050  0.35000  0.15469  1.0000 0.1797459424
C   C159      1.0  0.58560  0.35048  0.09155  1.0000 0.1400333074
C   C160      1.0  0.54030  0.30170  0.98230  1.0000 -0.0259906629
C   C161      1.0  0.61520  0.16370  0.95830  1.0000 0.1696261262
C   C162      1.0  0.55860  0.13690  0.99120  1.0000 0.1400333074
C   C163      1.0  0.53130  0.16400  0.08299  1.0000 -0.0395994747
C   C164      1.0  0.67100  0.16740  0.87680  1.0000 -0.0203641334
C   C165      1.0  0.87180  0.68100  0.63100  1.0000 0.1302891815
C   C166      1.0  0.86870  0.75090  0.71960  1.0000 -0.1999305335
C   C167      1.0  0.79040  0.85330  0.75420  1.0000 -0.1780123431
C   C168      1.0  0.49760  0.61490  0.55890  1.0000 0.1495781627
C   C169      1.0  0.51030  0.58960  0.45900  1.0000 -0.2196874545
C   C170      1.0  0.62230  0.64440  0.38700  1.0000 -0.1689625797
C   C171      1.0  0.73550  0.74500  0.39240  1.0000 -0.1897412667
C   C172      1.0  0.83940  0.89100  0.47220  1.0000 -0.2367336357
C   C173      1.0  0.86670  0.96687  0.56910  1.0000 0.1302891815
C   C174      1.0  0.84290  0.16750  0.14660  1.0000 0.1495781627
C   C175      1.0  0.83470  0.23721  0.23314  1.0000 -0.1999305335
C   C176      1.0  0.75390  0.33840  0.26380  1.0000 -0.1897412667
C   C177      1.0  0.64930  0.38500  0.21320  1.0000 -0.1689625797
C   C178      1.0  0.53450  0.38870  0.08175  1.0000 -0.1999305335
C   C179      1.0  0.48700  0.33760  0.97132  1.0000 0.1400333074
C   C180      1.0  0.61390  0.13260  0.90110  1.0000 -0.1596887027
C   C181      1.0  0.48960  0.07650  0.96540  1.0000 -0.2196874545
C   C182      1.0  0.46320  0.10370  0.05910  1.0000 0.1302891815
C   C183      1.0  0.89780  0.70300  0.69630  1.0000 0.0688142611
C   C184      1.0  0.46580  0.57160  0.49820  1.0000 0.0392880237
C   C185      1.0  0.67560  0.67960  0.36020  1.0000 -0.0203641334
C   C186      1.0  0.87590  0.95600  0.51120  1.0000 0.0488290853
C   C187      1.0  0.86540  0.19020  0.21190  1.0000 0.0597499127
C   C188      1.0  0.70700  0.37900  0.26790  1.0000 -0.0395994747
C   C189      1.0  0.48420  0.38320  0.01941  1.0000 0.0597499127
C   C190      1.0  0.43830  0.05890  0.00080  1.0000 0.0488290853
C   C191      1.0  0.94570  0.62310  0.67250  1.0000 0.1696261262
C   C192      1.0  0.94570  0.66420  0.72230  1.0000 -0.2684129828
C   C193      1.0  0.38220  0.53240  0.54830  1.0000 0.1696261262
C   C194      1.0  0.39050  0.51840  0.49240  1.0000 -0.2907301887
C   C195      1.0  0.91760  0.02050  0.50670  1.0000 -0.30735456
C   C196      1.0  0.92890  0.06420  0.56010  1.0000 0.1607086191
C   C197      1.0  0.91980  0.11270  0.19110  1.0000 0.1607086191
C   C198      1.0  0.91640  0.15310  0.23970  1.0000 -0.2907301887
C   C199      1.0  0.42480  0.41140  0.98720  1.0000 -0.2621206397
C   C200      1.0  0.39610  0.38190  0.92500  1.0000 0.1893639362
C   C201      1.0  0.36200  0.00430  0.99270  1.0000 -0.2907301887
C   C202      1.0  0.34680  0.01860  0.04660  1.0000 0.1797459424
C   C203      1.0  0.97820  0.56900  0.66910  1.0000 0.0907338208
C   C204      1.0  0.31980  0.49620  0.57180  1.0000 0.0907338208
C   C205      1.0  0.96470  0.13720  0.58350  1.0000 0.0907338208
C   C206      1.0  0.96100  0.06360  0.18840  1.0000 0.0907338208
C   C207      1.0  0.33040  0.38536  0.86823  1.0000 0.0977018671
C   C208      1.0  0.28330  0.98270  0.06900  1.0000 0.0795275888
C   C209      1.0  0.97560  0.53380  0.61390  1.0000 -0.1999305335
C   C210      1.0  0.01370  0.55160  0.72370  1.0000 -0.1897412667
C   C211      1.0  0.33970  0.50400  0.63560  1.0000 -0.1689625797
C   C212      1.0  0.23670  0.45210  0.52900  1.0000 -0.1999305335
C   C213      1.0  0.96190  0.17020  0.63720  1.0000 -0.1897412667
C   C214      1.0  0.00260  0.17440  0.54940  1.0000 -0.2067876171
C   C215      1.0  0.97460  0.03910  0.13520  1.0000 -0.1897412667
C   C216      1.0  0.98600  0.03880  0.24020  1.0000 -0.2067876171
C   C217      1.0  0.28970  0.33350  0.81270  1.0000 -0.1689625797
C   C218      1.0  0.30860  0.44150  0.86920  1.0000 -0.1689625797
C   C219      1.0  0.30330  0.99400  0.13360  1.0000 -0.1780123431
C   C220      1.0  0.20150  0.93570  0.02670  1.0000 -0.1897412667
C   C221      1.0  0.00710  0.48320  0.61340  1.0000 0.0392880237
C   C222      1.0  0.04250  0.49950  0.71950  1.0000 0.0597499127
C   C223      1.0  0.27690  0.46640  0.65420  1.0000 0.0907338208
C   C224      1.0  0.17810  0.41820  0.55120  1.0000 0.0392880237
C   C225      1.0  0.99690  0.23900  0.65680  1.0000 0.0392880237
C   C226      1.0  0.03610  0.24270  0.57240  1.0000 0.0488290853
C   C227      1.0  0.00970  0.99020  0.13460  1.0000 0.0488290853
C   C228      1.0  0.01940  0.98960  0.23460  1.0000 0.0488290853
C   C229      1.0  0.22760  0.33880  0.76080  1.0000 0.0488290853
C   C230      1.0  0.24700  0.44240  0.81530  1.0000 0.0488290853
C   C231      1.0  0.24040  0.95540  0.15170  1.0000 0.0795275888
C   C232      1.0  0.14440  0.90110  0.05030  1.0000 0.0597499127
N   N1        1.0  0.80810  0.11554  0.73479  1.0000 -0.2196874545
N   N2        1.0  0.99000  0.23529  0.86229  1.0000 -0.1999305335
N   N3        1.0  0.96910  0.03558  0.81683  1.0000 -0.1999305335
N   N4        1.0  0.83700  0.08944  0.88724  1.0000 -0.2196874545
N   N5        1.0  0.38940  0.18189  0.46487  1.0000 -0.1689625797
N   N6        1.0  0.23470  0.65846  0.93670  1.0000 -0.1596887027
N   N7        1.0  0.20880  0.25110  0.38844  1.0000 -0.1780123431
N   N8        1.0  0.28520  0.17712  0.35839  1.0000 -0.2276492471
N   N9        1.0  0.39200  0.30808  0.45755  1.0000 -0.1689625797
N   N10       1.0  0.30900  0.26203  0.52152  1.0000 -0.2196874545
N   N11       1.0  0.21390  0.14540  0.44957  1.0000 -0.1780123431
N   N12       1.0  0.23900  0.76529  0.87615  1.0000 -0.1596887027
N   N13       1.0  0.31500  0.69004  0.84930  1.0000 -0.2196874545
N   N14       1.0  0.41040  0.69110  0.95738  1.0000 -0.1689625797
N   N15       1.0  0.32760  0.77359  0.00928  1.0000 -0.2196874545
N   N16       1.0  0.42030  0.81910  0.95120  1.0000 -0.1780123431
N   N17       1.0  0.95970  0.53450  0.33440  1.0000 -0.1897412667
N   N18       1.0  0.80250  0.57455  0.38691  1.0000 -0.2067876171
N   N19       1.0  0.96600  0.72488  0.37488  1.0000 -0.1897412667
N   N20       1.0  0.79450  0.60768  0.23952  1.0000 -0.2276492471
N   N21       1.0  0.19190  0.88446  0.26521  1.0000 -0.2196874545
N   N22       1.0  0.01000  0.76471  0.13771  1.0000 -0.1999305335
N   N23       1.0  0.03090  0.96442  0.18317  1.0000 -0.1999305335
N   N24       1.0  0.16300  0.91056  0.11276  1.0000 -0.2196874545
N   N25       1.0  0.61060  0.81811  0.53513  1.0000 -0.1689625797
N   N26       1.0  0.76530  0.34154  0.06330  1.0000 -0.1596887027
N   N27       1.0  0.79120  0.74890  0.61156  1.0000 -0.1780123431
N   N28       1.0  0.71480  0.82288  0.64161  1.0000 -0.2276492471
N   N29       1.0  0.60800  0.69192  0.54245  1.0000 -0.1689625797
N   N30       1.0  0.69100  0.73797  0.47848  1.0000 -0.2196874545
N   N31       1.0  0.78610  0.85460  0.55043  1.0000 -0.1780123431
N   N32       1.0  0.76100  0.23471  0.12385  1.0000 -0.1596887027
N   N33       1.0  0.68500  0.30996  0.15070  1.0000 -0.2196874545
N   N34       1.0  0.58960  0.30890  0.04262  1.0000 -0.1689625797
N   N35       1.0  0.67240  0.22641  0.99072  1.0000 -0.2196874545
N   N36       1.0  0.57970  0.18090  0.04880  1.0000 -0.1780123431
N   N37       1.0  0.04030  0.46550  0.66560  1.0000 -0.1897412667
N   N38       1.0  0.19750  0.42545  0.61309  1.0000 -0.2067876171
N   N39       1.0  0.03400  0.27512  0.62512  1.0000 -0.1897412667
N   N40       1.0  0.20550  0.39232  0.76048  1.0000 -0.2276492471
O   O1        1.0  0.56265  0.16316  0.59028  1.0000 -0.1596887027
O   O2        1.0  0.11360  0.47910  0.88099  1.0000 -0.1780123431
O   O3        1.0  0.09940  0.36854  0.38488  1.0000 -0.1999305335
O   O4        1.0  0.55160  0.40912  0.40939  1.0000 -0.1407257261
O   O5        1.0  0.10160  0.96756  0.40007  1.0000 -0.1780123431
O   O6        1.0  0.12390  0.87900  0.86730  1.0000 -0.1596887027
O   O7        1.0  0.56720  0.66448  0.08708  1.0000 -0.1536896879
O   O8        1.0  0.59180  0.92065  0.91174  1.0000 -0.1407257261
O   O9        1.0  0.43735  0.83684  0.40972  1.0000 -0.1596887027
O   O10       1.0  0.88640  0.52090  0.11901  1.0000 -0.1780123431
O   O11       1.0  0.90060  0.63146  0.61512  1.0000 -0.1999305335
O   O12       1.0  0.44840  0.59088  0.59061  1.0000 -0.1407257261
O   O13       1.0  0.89840  0.03244  0.59993  1.0000 -0.1689625797
O   O14       1.0  0.87610  0.12100  0.13270  1.0000 -0.1596887027
O   O15       1.0  0.43280  0.33552  0.91292  1.0000 -0.1536896879
O   O16       1.0  0.40820  0.07935  0.08826  1.0000 -0.1407257261
F   F1        1.0  0.93810  0.71780  0.94074  1.0000 -0.4106993766
F   F2        1.0  0.98430  0.63240  0.93520  1.0000 -0.4205635542
F   F3        1.0  0.04627  0.66772  0.86924  1.0000 -0.4503271591
F   F4        1.0  0.99910  0.75241  0.87432  1.0000 -0.4405771945
F   F5        1.0  0.08109  0.73738  0.96427  1.0000 -0.4503271591
F   F6        1.0  0.90316  0.64740  0.84578  1.0000 -0.4002622122
F   F7        1.0  0.06190  0.28220  0.05926  1.0000 -0.4106993766
F   F8        1.0  0.01570  0.36760  0.06480  1.0000 -0.4205635542
F   F9        1.0  0.95373  0.33228  0.13076  1.0000 -0.4405771945
F   F10       1.0  0.00090  0.24759  0.12568  1.0000 -0.4405771945
F   F11       1.0  0.91891  0.26262  0.03573  1.0000 -0.4503271591
F   F12       1.0  0.09684  0.35260  0.15422  1.0000 -0.4002622122
F   F13       1.0  0.42206  0.47920  0.77355  1.0000 -0.4503271591
F   F14       1.0  0.52250  0.48049  0.86388  1.0000 -0.4205635542
F   F15       1.0  0.62049  0.49060  0.81821  1.0000 -0.3770081604
F   F16       1.0  0.51980  0.48892  0.72781  1.0000 -0.4263928065
F   F17       1.0  0.48850  0.40609  0.77165  1.0000 -0.4106993766
F   F18       1.0  0.55300  0.56333  0.81969  1.0000 -0.4002622122
F   F19       1.0  0.57794  0.52080  0.22645  1.0000 -0.4503271591
F   F20       1.0  0.47750  0.51951  0.13612  1.0000 -0.4205635542
F   F21       1.0  0.37951  0.50940  0.18179  1.0000 -0.3770081604
F   F22       1.0  0.48020  0.51108  0.27219  1.0000 -0.4263928065
F   F23       1.0  0.51150  0.59391  0.22835  1.0000 -0.4106993766
F   F24       1.0  0.44700  0.43667  0.18031  1.0000 -0.4002622122
F   F25       1.0  0.50853  0.98374  0.36326  1.0000 -0.4205635542
F   F26       1.0  0.60012  0.00277  0.31231  1.0000 -0.3934534544
F   F27       1.0  0.48964  0.99768  0.22553  1.0000 -0.4263928065
F   F28       1.0  0.39844  0.97929  0.27658  1.0000 -0.4503271591
F   F29       1.0  0.47355  0.91292  0.26864  1.0000 -0.4106993766
F   F30       1.0  0.52440  0.06856  0.31989  1.0000 -0.4106993766
F   F31       1.0  0.49147  0.01626  0.63674  1.0000 -0.4205635542
F   F32       1.0  0.39988  0.99723  0.68769  1.0000 -0.3934534544
F   F33       1.0  0.51036  0.00232  0.77447  1.0000 -0.4263928065
F   F34       1.0  0.60156  0.02071  0.72342  1.0000 -0.4503271591
F   F35       1.0  0.52645  0.08708  0.73136  1.0000 -0.4106993766
F   F36       1.0  0.47560  0.93144  0.68011  1.0000 -0.4106993766
