# DDEC6 charges by PACMAN v1.1 (https://github.com/mtap-research/PACMAN-charge/)
data_2015[Co][bnn]3[ION]3
_chemical_formula_sum              "Co8 H152 C184 N30 O42"
_cell_length_a       11.4393
_cell_length_b       24.6749
_cell_length_c       20.3245
_cell_angle_alpha    90
_cell_angle_beta     92.3471
_cell_angle_gamma    90

_symmetry_space_group_name_H-M    "P 1"
_symmetry_Int_Tables_number       1

loop_
  _symmetry_equiv_pos_as_xyz
  'x, y, z'

loop_
  _atom_site_type_symbol
  _atom_site_label
  _atom_site_symmetry_multiplicity
  _atom_site_fract_x
  _atom_site_fract_y
  _atom_site_fract_z
  _atom_site_occupancy
  _atom_site_charge
Co  Co1       1.0  0.55524  0.49063  0.73620  1.0000 0.7680976887
Co  Co2       1.0  0.44476  0.99063  0.26380  1.0000 0.7680976887
Co  Co3       1.0  0.57485  0.40842  0.48980  1.0000 0.7822672923
Co  Co4       1.0  0.42515  0.90842  0.51020  1.0000 0.7822672923
Co  Co5       1.0  0.55704  0.41232  0.98828  1.0000 0.746801128
Co  Co6       1.0  0.44296  0.91232  0.01172  1.0000 0.746801128
Co  Co7       1.0  0.54229  0.49402  0.23888  1.0000 0.7680976887
Co  Co8       1.0  0.45771  0.99402  0.76112  1.0000 0.7680976887
H   H1        1.0  0.50000  0.39440  0.77700  1.0000 0.327664574
H   H2        1.0  0.50000  0.89440  0.22300  1.0000 0.327664574
H   H3        1.0  0.35010  0.47980  0.83240  1.0000 0.1001422685
H   H4        1.0  0.64990  0.97980  0.16760  1.0000 0.1001422685
H   H5        1.0  0.34290  0.50390  0.64120  1.0000 0.1001422685
H   H6        1.0  0.65710  0.00390  0.35880  1.0000 0.1001422685
H   H7        1.0  0.51560  0.34340  0.69840  1.0000 0.0897819081
H   H8        1.0  0.48440  0.84340  0.30160  1.0000 0.0897819081
H   H9        1.0  0.64730  0.55330  0.94150  1.0000 0.0897819081
H   H10       1.0  0.35270  0.05330  0.05850  1.0000 0.0897819081
H   H11       1.0  0.14830  0.48500  0.83380  1.0000 0.1186891285
H   H12       1.0  0.85170  0.98500  0.16620  1.0000 0.1186891285
H   H13       1.0  0.14050  0.50870  0.63690  1.0000 0.1294321739
H   H14       1.0  0.85950  0.00870  0.36310  1.0000 0.1294321739
H   H15       1.0  0.65300  0.50170  0.02630  1.0000 0.3362796505
H   H16       1.0  0.34700  0.00170  0.97370  1.0000 0.3362796505
H   H17       1.0  0.77710  0.39200  0.77370  1.0000 0.1101740849
H   H18       1.0  0.22290  0.89200  0.22630  1.0000 0.1101740849
H   H19       1.0  0.64880  0.27940  0.64540  1.0000 0.1101740849
H   H20       1.0  0.35120  0.77940  0.35460  1.0000 0.1101740849
H   H21       1.0  0.66700  0.50300  0.52400  1.0000 0.327664574
H   H22       1.0  0.33300  0.00300  0.47600  1.0000 0.327664574
H   H23       1.0  0.55410  0.63330  0.90420  1.0000 0.1186891285
H   H24       1.0  0.44590  0.13330  0.09580  1.0000 0.1186891285
H   H25       1.0  0.35850  0.51980  0.99060  1.0000 0.1186891285
H   H26       1.0  0.64150  0.01980  0.00940  1.0000 0.1186891285
H   H27       1.0  0.95960  0.34840  0.77610  1.0000 0.1101740849
H   H28       1.0  0.04040  0.84840  0.22390  1.0000 0.1101740849
H   H29       1.0  0.83250  0.23650  0.64830  1.0000 0.1101740849
H   H30       1.0  0.16750  0.73650  0.35170  1.0000 0.1101740849
H   H31       1.0  0.78100  0.43150  0.39940  1.0000 0.1001422685
H   H32       1.0  0.21900  0.93150  0.60060  1.0000 0.1001422685
H   H33       1.0  0.78810  0.36600  0.57580  1.0000 0.1001422685
H   H34       1.0  0.21190  0.86600  0.42420  1.0000 0.1001422685
H   H35       1.0  0.60780  0.35000  0.35840  1.0000 0.1001422685
H   H36       1.0  0.39220  0.85000  0.64160  1.0000 0.1001422685
H   H37       1.0  0.52370  0.29020  0.52890  1.0000 0.1101740849
H   H38       1.0  0.47630  0.79020  0.47110  1.0000 0.1101740849
H   H39       1.0  0.63330  0.55560  0.44590  1.0000 0.1001422685
H   H40       1.0  0.36670  0.05560  0.55410  1.0000 0.1001422685
H   H41       1.0  0.35020  0.42610  0.08620  1.0000 0.1001422685
H   H42       1.0  0.64980  0.92610  0.91380  1.0000 0.1001422685
H   H43       1.0  0.34590  0.39270  0.89630  1.0000 0.1001422685
H   H44       1.0  0.65410  0.89270  0.10370  1.0000 0.1001422685
H   H45       1.0  0.63490  0.34820  0.86860  1.0000 0.1001422685
H   H46       1.0  0.36510  0.84820  0.13140  1.0000 0.1001422685
H   H47       1.0  0.44920  0.30120  0.01670  1.0000 0.1101740849
H   H48       1.0  0.55080  0.80120  0.98330  1.0000 0.1101740849
H   H49       1.0  0.39260  0.69370  0.90360  1.0000 0.1001422685
H   H50       1.0  0.60740  0.19370  0.09640  1.0000 0.1001422685
H   H51       1.0  0.19890  0.57960  0.99080  1.0000 0.1101740849
H   H52       1.0  0.80110  0.07960  0.00920  1.0000 0.1101740849
H   H53       1.0  0.96270  0.47520  0.63950  1.0000 0.1294321739
H   H54       1.0  0.03730  0.97520  0.36050  1.0000 0.1294321739
H   H55       1.0  0.97320  0.52270  0.83010  1.0000 0.1186891285
H   H56       1.0  0.02680  0.02270  0.16990  1.0000 0.1186891285
H   H57       1.0  0.98840  0.27290  0.71120  1.0000 0.1186891285
H   H58       1.0  0.01160  0.77290  0.28880  1.0000 0.1186891285
H   H59       1.0  0.98240  0.42520  0.39570  1.0000 0.1294321739
H   H60       1.0  0.01760  0.92520  0.60430  1.0000 0.1294321739
H   H61       1.0  0.99020  0.36060  0.57790  1.0000 0.1294321739
H   H62       1.0  0.00980  0.86060  0.42210  1.0000 0.1294321739
H   H63       1.0  0.57740  0.26690  0.30770  1.0000 0.1294321739
H   H64       1.0  0.42260  0.76690  0.69230  1.0000 0.1294321739
H   H65       1.0  0.49340  0.20550  0.48310  1.0000 0.1294321739
H   H66       1.0  0.50660  0.70550  0.51690  1.0000 0.1294321739
H   H67       1.0  0.14790  0.41870  0.08730  1.0000 0.1186891285
H   H68       1.0  0.85210  0.91870  0.91270  1.0000 0.1186891285
H   H69       1.0  0.14410  0.38490  0.89240  1.0000 0.1294321739
H   H70       1.0  0.85590  0.88490  0.10760  1.0000 0.1294321739
H   H71       1.0  0.49300  0.34650  0.19450  1.0000 0.1001422685
H   H72       1.0  0.50700  0.84650  0.80550  1.0000 0.1001422685
H   H73       1.0  0.61040  0.26530  0.81740  1.0000 0.1294321739
H   H74       1.0  0.38960  0.76530  0.18260  1.0000 0.1294321739
H   H75       1.0  0.41750  0.21720  0.96890  1.0000 0.1294321739
H   H76       1.0  0.58250  0.71720  0.03110  1.0000 0.1294321739
H   H77       1.0  0.21850  0.66580  0.94890  1.0000 0.1101740849
H   H78       1.0  0.78150  0.16580  0.05110  1.0000 0.1101740849
H   H79       1.0  0.75980  0.47480  0.64110  1.0000 0.1001422685
H   H80       1.0  0.24020  0.97480  0.35890  1.0000 0.1001422685
H   H81       1.0  0.77080  0.52230  0.82620  1.0000 0.1001422685
H   H82       1.0  0.22920  0.02230  0.17380  1.0000 0.1001422685
H   H83       1.0  0.50000  0.62370  0.40150  1.0000 0.1101740849
H   H84       1.0  0.50000  0.12370  0.59850  1.0000 0.1101740849
H   H85       1.0  0.38350  0.50870  0.52180  1.0000 0.1101740849
H   H86       1.0  0.61650  0.00870  0.47820  1.0000 0.1101740849
H   H87       1.0  0.48600  0.39700  0.27400  1.0000 0.317304482
H   H88       1.0  0.51400  0.89700  0.72600  1.0000 0.317304482
H   H89       1.0  0.31590  0.66720  0.40640  1.0000 0.1001422685
H   H90       1.0  0.68410  0.16720  0.59360  1.0000 0.1001422685
H   H91       1.0  0.20280  0.55130  0.52390  1.0000 0.1101740849
H   H92       1.0  0.79720  0.05130  0.47610  1.0000 0.1101740849
H   H93       1.0  0.74990  0.39430  0.27560  1.0000 0.1101740849
H   H94       1.0  0.25010  0.89430  0.72440  1.0000 0.1101740849
H   H95       1.0  0.63060  0.28500  0.14060  1.0000 0.1101740849
H   H96       1.0  0.36940  0.78500  0.85940  1.0000 0.1101740849
H   H97       1.0  0.16500  0.40380  0.58860  1.0000 0.1294321739
H   H98       1.0  0.83500  0.90380  0.41140  1.0000 0.1294321739
H   H99       1.0  0.16280  0.38440  0.39100  1.0000 0.1294321739
H   H100      1.0  0.83720  0.88440  0.60900  1.0000 0.1294321739
H   H101      1.0  0.33940  0.48430  0.33530  1.0000 0.1001422685
H   H102      1.0  0.66060  0.98430  0.66470  1.0000 0.1001422685
H   H103      1.0  0.32830  0.51480  0.14610  1.0000 0.1001422685
H   H104      1.0  0.67170  0.01480  0.85390  1.0000 0.1001422685
H   H105      1.0  0.60120  0.18290  0.27680  1.0000 0.1294321739
H   H106      1.0  0.39880  0.68290  0.72320  1.0000 0.1294321739
H   H107      1.0  0.39730  0.14410  0.42780  1.0000 0.1294321739
H   H108      1.0  0.60270  0.64410  0.57220  1.0000 0.1294321739
H   H109      1.0  0.17090  0.63210  0.46910  1.0000 0.1186891285
H   H110      1.0  0.82910  0.13210  0.53090  1.0000 0.1186891285
H   H111      1.0  0.96450  0.42650  0.89360  1.0000 0.1294321739
H   H112      1.0  0.03550  0.92650  0.10640  1.0000 0.1294321739
H   H113      1.0  0.97410  0.37220  0.08130  1.0000 0.1391301055
H   H114      1.0  0.02590  0.87220  0.91870  1.0000 0.1391301055
H   H115      1.0  0.93190  0.35040  0.28070  1.0000 0.1101740849
H   H116      1.0  0.06810  0.85040  0.71930  1.0000 0.1101740849
H   H117      1.0  0.80990  0.23970  0.14870  1.0000 0.1001422685
H   H118      1.0  0.19010  0.73970  0.85130  1.0000 0.1001422685
H   H119      1.0  0.50060  0.19950  0.76050  1.0000 0.1391301055
H   H120      1.0  0.49940  0.69950  0.23950  1.0000 0.1391301055
H   H121      1.0  0.47830  0.13520  0.94140  1.0000 0.1186891285
H   H122      1.0  0.52170  0.63520  0.05860  1.0000 0.1186891285
H   H123      1.0  0.36690  0.40890  0.58900  1.0000 0.1001422685
H   H124      1.0  0.63310  0.90890  0.41100  1.0000 0.1001422685
H   H125      1.0  0.36410  0.39190  0.39690  1.0000 0.1001422685
H   H126      1.0  0.63590  0.89190  0.60310  1.0000 0.1001422685
H   H127      1.0  0.13860  0.48780  0.33800  1.0000 0.1294321739
H   H128      1.0  0.86140  0.98780  0.66200  1.0000 0.1294321739
H   H129      1.0  0.12650  0.51880  0.14230  1.0000 0.1294321739
H   H130      1.0  0.87350  0.01880  0.85770  1.0000 0.1294321739
H   H131      1.0  0.56070  0.09890  0.23180  1.0000 0.1001422685
H   H132      1.0  0.43930  0.59890  0.76820  1.0000 0.1001422685
H   H133      1.0  0.36650  0.05950  0.37900  1.0000 0.1101740849
H   H134      1.0  0.63350  0.55950  0.62100  1.0000 0.1101740849
H   H135      1.0  0.76290  0.43090  0.89660  1.0000 0.1001422685
H   H136      1.0  0.23710  0.93090  0.10340  1.0000 0.1001422685
H   H137      1.0  0.77080  0.37450  0.07760  1.0000 0.1001422685
H   H138      1.0  0.22920  0.87450  0.92240  1.0000 0.1001422685
H   H139      1.0  0.96280  0.27440  0.21640  1.0000 0.1186891285
H   H140      1.0  0.03720  0.77440  0.78360  1.0000 0.1186891285
H   H141      1.0  0.47950  0.11300  0.71750  1.0000 0.1101740849
H   H142      1.0  0.52050  0.61300  0.28250  1.0000 0.1101740849
H   H143      1.0  0.45650  0.05140  0.89290  1.0000 0.1001422685
H   H144      1.0  0.54350  0.55140  0.10710  1.0000 0.1001422685
H   H145      1.0  0.94940  0.48020  0.14460  1.0000 0.1186891285
H   H146      1.0  0.05060  0.98020  0.85540  1.0000 0.1186891285
H   H147      1.0  0.95940  0.52580  0.33560  1.0000 0.1294321739
H   H148      1.0  0.04060  0.02580  0.66440  1.0000 0.1294321739
H   H149      1.0  0.74820  0.47830  0.14680  1.0000 0.0897819081
H   H150      1.0  0.25180  0.97830  0.85320  1.0000 0.0897819081
H   H151      1.0  0.75810  0.52350  0.33220  1.0000 0.1101740849
H   H152      1.0  0.24190  0.02350  0.66780  1.0000 0.1101740849
C   C1        1.0  0.57270  0.40569  0.63901  1.0000 0.5507096449
C   C2        1.0  0.42730  0.90569  0.36099  1.0000 0.5507096449
C   C3        1.0  0.55830  0.49475  0.88532  1.0000 0.5325212677
C   C4        1.0  0.44170  0.99475  0.11468  1.0000 0.5325212677
C   C5        1.0  0.30690  0.48580  0.79210  1.0000 0.0814281998
C   C6        1.0  0.69310  0.98580  0.20790  1.0000 0.0814281998
C   C7        1.0  0.30260  0.49970  0.68080  1.0000 0.0814281998
C   C8        1.0  0.69740  0.99970  0.31920  1.0000 0.0814281998
C   C9        1.0  0.57970  0.37100  0.70166  1.0000 -0.0086572964
C   C10       1.0  0.42030  0.87100  0.29834  1.0000 -0.0086572964
C   C11       1.0  0.57370  0.53183  0.94540  1.0000 -0.0086572964
C   C12       1.0  0.42630  0.03183  0.05460  1.0000 -0.0086572964
C   C13       1.0  0.18630  0.48860  0.79330  1.0000 -0.1966791321
C   C14       1.0  0.81370  0.98860  0.20670  1.0000 -0.1966791321
C   C15       1.0  0.18170  0.50259  0.67780  1.0000 -0.1874146926
C   C16       1.0  0.81830  0.00259  0.32220  1.0000 -0.1874146926
C   C17       1.0  0.69600  0.34116  0.70810  1.0000 0.0604589094
C   C18       1.0  0.30400  0.84116  0.29190  1.0000 0.0604589094
C   C19       1.0  0.47120  0.57059  0.94730  1.0000 0.0604589094
C   C20       1.0  0.52880  0.07059  0.05270  1.0000 0.0604589094
C   C21       1.0  0.12130  0.49649  0.73540  1.0000 0.1101740849
C   C22       1.0  0.87870  0.99649  0.26460  1.0000 0.1101740849
C   C23       1.0  0.78790  0.36070  0.74740  1.0000 -0.1411210584
C   C24       1.0  0.21210  0.86070  0.25260  1.0000 -0.1411210584
C   C25       1.0  0.71190  0.29410  0.67150  1.0000 -0.1615074436
C   C26       1.0  0.28810  0.79410  0.32850  1.0000 -0.1615074436
C   C27       1.0  0.48220  0.62220  0.92170  1.0000 -0.1670794686
C   C28       1.0  0.51780  0.12220  0.07830  1.0000 -0.1670794686
C   C29       1.0  0.36610  0.55520  0.97290  1.0000 -0.1411210584
C   C30       1.0  0.63390  0.05520  0.02710  1.0000 -0.1411210584
C   C31       1.0  0.99090  0.49782  0.73460  1.0000 0.1101740849
C   C32       1.0  0.00910  0.99782  0.26540  1.0000 0.1101740849
C   C33       1.0  0.89700  0.33460  0.74880  1.0000 -0.0883992662
C   C34       1.0  0.10300  0.83460  0.25120  1.0000 -0.0883992662
C   C35       1.0  0.82150  0.26850  0.67330  1.0000 -0.1012412428
C   C36       1.0  0.17850  0.76850  0.32670  1.0000 -0.1012412428
C   C37       1.0  0.82390  0.41740  0.43650  1.0000 0.0814281998
C   C38       1.0  0.17610  0.91740  0.56350  1.0000 0.0814281998
C   C39       1.0  0.82840  0.37954  0.53940  1.0000 0.0814281998
C   C40       1.0  0.17160  0.87954  0.46060  1.0000 0.0814281998
C   C41       1.0  0.55730  0.49341  0.38915  1.0000 0.5507096449
C   C42       1.0  0.44270  0.99341  0.61085  1.0000 0.5507096449
C   C43       1.0  0.58270  0.32037  0.38410  1.0000 0.1001422685
C   C44       1.0  0.41730  0.82037  0.61590  1.0000 0.1001422685
C   C45       1.0  0.53420  0.28560  0.48320  1.0000 0.0814281998
C   C46       1.0  0.46580  0.78560  0.51680  1.0000 0.0814281998
C   C47       1.0  0.56800  0.52915  0.45110  1.0000 -0.0086572964
C   C48       1.0  0.43200  0.02915  0.54890  1.0000 -0.0086572964
C   C49       1.0  0.30770  0.41820  0.04620  1.0000 0.0897819081
C   C50       1.0  0.69230  0.91820  0.95380  1.0000 0.0897819081
C   C51       1.0  0.30510  0.39881  0.93540  1.0000 0.0814281998
C   C52       1.0  0.69490  0.89881  0.06460  1.0000 0.0814281998
C   C53       1.0  0.55310  0.41022  0.13770  1.0000 0.5507096449
C   C54       1.0  0.44690  0.91022  0.86230  1.0000 0.5507096449
C   C55       1.0  0.58980  0.32123  0.88910  1.0000 0.1001422685
C   C56       1.0  0.41020  0.82123  0.11090  1.0000 0.1001422685
C   C57       1.0  0.48140  0.29380  0.97530  1.0000 0.0814281998
C   C58       1.0  0.51860  0.79380  0.02470  1.0000 0.0814281998
C   C59       1.0  0.38620  0.65840  0.92160  1.0000 -0.1116049501
C   C60       1.0  0.61380  0.15840  0.07840  1.0000 -0.1116049501
C   C61       1.0  0.27080  0.59070  0.97330  1.0000 -0.1012412428
C   C62       1.0  0.72920  0.09070  0.02670  1.0000 -0.1012412428
C   C63       1.0  0.92530  0.48433  0.67890  1.0000 -0.1792819748
C   C64       1.0  0.07470  0.98433  0.32110  1.0000 -0.1792819748
C   C65       1.0  0.93120  0.51241  0.79070  1.0000 -0.1966791321
C   C66       1.0  0.06880  0.01241  0.20930  1.0000 -0.1966791321
C   C67       1.0  0.91360  0.28970  0.71130  1.0000 -0.1012412428
C   C68       1.0  0.08640  0.78970  0.28870  1.0000 -0.1012412428
C   C69       1.0  0.94470  0.41410  0.43420  1.0000 -0.1874146926
C   C70       1.0  0.05530  0.91410  0.56580  1.0000 -0.1874146926
C   C71       1.0  0.94920  0.37591  0.54080  1.0000 -0.1874146926
C   C72       1.0  0.05080  0.87591  0.45920  1.0000 -0.1874146926
C   C73       1.0  0.56490  0.27068  0.35340  1.0000 -0.1874146926
C   C74       1.0  0.43510  0.77068  0.64660  1.0000 -0.1874146926
C   C75       1.0  0.51550  0.23490  0.45600  1.0000 -0.1966791321
C   C76       1.0  0.48450  0.73490  0.54400  1.0000 -0.1966791321
C   C77       1.0  0.45570  0.56028  0.45880  1.0000 0.0604589094
C   C78       1.0  0.54430  0.06028  0.54120  1.0000 0.0604589094
C   C79       1.0  0.18660  0.41390  0.04730  1.0000 -0.1874146926
C   C80       1.0  0.81340  0.91390  0.95270  1.0000 -0.1874146926
C   C81       1.0  0.18450  0.39398  0.93260  1.0000 -0.1966791321
C   C82       1.0  0.81550  0.89398  0.06740  1.0000 -0.1966791321
C   C83       1.0  0.55680  0.37409  0.19950  1.0000 -0.0240566532
C   C84       1.0  0.44320  0.87409  0.80050  1.0000 -0.0240566532
C   C85       1.0  0.57570  0.27187  0.85830  1.0000 -0.1874146926
C   C86       1.0  0.42430  0.77187  0.14170  1.0000 -0.1874146926
C   C87       1.0  0.46280  0.24350  0.94730  1.0000 -0.1966791321
C   C88       1.0  0.53720  0.74350  0.05270  1.0000 -0.1966791321
C   C89       1.0  0.28270  0.64140  0.94820  1.0000 -0.1168747197
C   C90       1.0  0.71730  0.14140  0.05180  1.0000 -0.1168747197
C   C91       1.0  0.80350  0.48410  0.68020  1.0000 0.0897819081
C   C92       1.0  0.19650  0.98410  0.31980  1.0000 0.0897819081
C   C93       1.0  0.81040  0.51158  0.78810  1.0000 0.0604589094
C   C94       1.0  0.18960  0.01158  0.21190  1.0000 0.0604589094
C   C95       1.0  0.01000  0.39485  0.48750  1.0000 0.1101740849
C   C96       1.0  0.99000  0.89485  0.51250  1.0000 0.1186891285
C   C97       1.0  0.52880  0.22674  0.38940  1.0000 0.1101740849
C   C98       1.0  0.47120  0.72674  0.61060  1.0000 0.1101740849
C   C99       1.0  0.43940  0.60830  0.42610  1.0000 -0.1615074436
C   C100      1.0  0.56060  0.10830  0.57390  1.0000 -0.1615074436
C   C101      1.0  0.36990  0.54070  0.49670  1.0000 -0.1304509739
C   C102      1.0  0.63010  0.04070  0.50330  1.0000 -0.1304509739
C   C103      1.0  0.12290  0.40262  0.98950  1.0000 0.1001422685
C   C104      1.0  0.87710  0.90262  0.01050  1.0000 0.1001422685
C   C105      1.0  0.67310  0.34460  0.20731  1.0000 0.0604589094
C   C106      1.0  0.32690  0.84460  0.79269  1.0000 0.0604589094
C   C107      1.0  0.51040  0.23155  0.88750  1.0000 0.1101740849
C   C108      1.0  0.48960  0.73155  0.11250  1.0000 0.1186891285
C   C109      1.0  0.14000  0.39511  0.48900  1.0000 0.1101740849
C   C110      1.0  0.86000  0.89511  0.51100  1.0000 0.1101740849
C   C111      1.0  0.50550  0.17337  0.35850  1.0000 0.1101740849
C   C112      1.0  0.49450  0.67337  0.64150  1.0000 0.1101740849
C   C113      1.0  0.32970  0.63440  0.42990  1.0000 -0.1116049501
C   C114      1.0  0.67030  0.13440  0.57010  1.0000 -0.1116049501
C   C115      1.0  0.26310  0.56670  0.49910  1.0000 -0.0883992662
C   C116      1.0  0.73690  0.06670  0.50090  1.0000 -0.0883992662
C   C117      1.0  0.99290  0.40054  0.98850  1.0000 0.1101740849
C   C118      1.0  0.00710  0.90054  0.01150  1.0000 0.1101740849
C   C119      1.0  0.76210  0.36329  0.24890  1.0000 -0.1476515929
C   C120      1.0  0.23790  0.86329  0.75110  1.0000 -0.1476515929
C   C121      1.0  0.69150  0.29830  0.16940  1.0000 -0.1615074436
C   C122      1.0  0.30850  0.79830  0.83060  1.0000 -0.1670794686
C   C123      1.0  0.49330  0.17732  0.85650  1.0000 0.1101740849
C   C124      1.0  0.50670  0.67732  0.14350  1.0000 0.1101740849
C   C125      1.0  0.20400  0.40167  0.54830  1.0000 -0.1874146926
C   C126      1.0  0.79600  0.90167  0.45170  1.0000 -0.1874146926
C   C127      1.0  0.20250  0.39050  0.43230  1.0000 -0.1874146926
C   C128      1.0  0.79750  0.89050  0.56770  1.0000 -0.1874146926
C   C129      1.0  0.29540  0.49120  0.29550  1.0000 0.0897819081
C   C130      1.0  0.70460  0.99120  0.70450  1.0000 0.0897819081
C   C131      1.0  0.28870  0.50883  0.18560  1.0000 0.0897819081
C   C132      1.0  0.71130  0.00883  0.81440  1.0000 0.0897819081
C   C133      1.0  0.55240  0.15836  0.29910  1.0000 -0.1966791321
C   C134      1.0  0.44760  0.65836  0.70090  1.0000 -0.1966791321
C   C135      1.0  0.43340  0.13560  0.38780  1.0000 -0.1874146926
C   C136      1.0  0.56660  0.63560  0.61220  1.0000 -0.1874146926
C   C137      1.0  0.24360  0.61370  0.46650  1.0000 -0.1012412428
C   C138      1.0  0.75640  0.11370  0.53350  1.0000 -0.1012412428
C   C139      1.0  0.92680  0.41680  0.93270  1.0000 -0.1966791321
C   C140      1.0  0.07320  0.91680  0.06730  1.0000 -0.1966791321
C   C141      1.0  0.93270  0.38445  0.04270  1.0000 -0.1966791321
C   C142      1.0  0.06730  0.88445  0.95730  1.0000 -0.1966791321
C   C143      1.0  0.87060  0.33700  0.25230  1.0000 -0.0883992662
C   C144      1.0  0.12940  0.83700  0.74770  1.0000 -0.0883992662
C   C145      1.0  0.79840  0.27160  0.17370  1.0000 -0.1012412428
C   C146      1.0  0.20160  0.77160  0.82630  1.0000 -0.1012412428
C   C147      1.0  0.49220  0.16950  0.78930  1.0000 -0.1966791321
C   C148      1.0  0.50780  0.66950  0.21070  1.0000 -0.1966791321
C   C149      1.0  0.47900  0.13200  0.89480  1.0000 -0.1966791321
C   C150      1.0  0.52100  0.63200  0.10520  1.0000 -0.1966791321
C   C151      1.0  0.32470  0.40507  0.54800  1.0000 0.0897819081
C   C152      1.0  0.67530  0.90507  0.45200  1.0000 0.0897819081
C   C153      1.0  0.32290  0.39490  0.43640  1.0000 0.0814281998
C   C154      1.0  0.67710  0.89490  0.56360  1.0000 0.0814281998
C   C155      1.0  0.17550  0.49300  0.29750  1.0000 -0.1874146926
C   C156      1.0  0.82450  0.99300  0.70250  1.0000 -0.1874146926
C   C157      1.0  0.16810  0.51125  0.18270  1.0000 -0.1966791321
C   C158      1.0  0.83190  0.01125  0.81730  1.0000 -0.1966791321
C   C159      1.0  0.52830  0.10807  0.27270  1.0000 0.0814281998
C   C160      1.0  0.47170  0.60807  0.72730  1.0000 0.0814281998
C   C161      1.0  0.41460  0.08510  0.35810  1.0000 0.1001422685
C   C162      1.0  0.58540  0.58510  0.64190  1.0000 0.1001422685
C   C163      1.0  0.80630  0.41869  0.93464  1.0000 0.0720120569
C   C164      1.0  0.19370  0.91869  0.06536  1.0000 0.0720120569
C   C165      1.0  0.81090  0.38635  0.04020  1.0000 0.0814281998
C   C166      1.0  0.18910  0.88635  0.95980  1.0000 0.0814281998
C   C167      1.0  0.88870  0.29180  0.21450  1.0000 -0.1012412428
C   C168      1.0  0.11130  0.79180  0.78550  1.0000 -0.1012412428
C   C169      1.0  0.47880  0.11750  0.76390  1.0000 0.0897819081
C   C170      1.0  0.52120  0.61750  0.23610  1.0000 0.0814281998
C   C171      1.0  0.46570  0.08200  0.86530  1.0000 0.0720120569
C   C172      1.0  0.53430  0.58200  0.13470  1.0000 0.0720120569
C   C173      1.0  0.10830  0.50240  0.24020  1.0000 0.1186891285
C   C174      1.0  0.89170  0.00240  0.75980  1.0000 0.1186891285
C   C175      1.0  0.97850  0.50208  0.23990  1.0000 0.1101740849
C   C176      1.0  0.02150  0.00208  0.76010  1.0000 0.1101740849
C   C177      1.0  0.91220  0.48867  0.18430  1.0000 -0.1966791321
C   C178      1.0  0.08780  0.98867  0.81570  1.0000 -0.1966791321
C   C179      1.0  0.91780  0.51550  0.29620  1.0000 -0.1792819748
C   C180      1.0  0.08220  0.01550  0.70380  1.0000 -0.1792819748
C   C181      1.0  0.79180  0.48758  0.18600  1.0000 0.0720120569
C   C182      1.0  0.20820  0.98758  0.81400  1.0000 0.0720120569
C   C183      1.0  0.79770  0.51370  0.29370  1.0000 0.0814281998
C   C184      1.0  0.20230  0.01370  0.70630  1.0000 0.0814281998
N   N1        1.0  0.36580  0.49115  0.73706  1.0000 -0.2603789667
N   N2        1.0  0.63420  0.99115  0.26294  1.0000 -0.2603789667
N   N3        1.0  0.46130  0.07148  0.30165  1.0000 -0.2408564041
N   N4        1.0  0.53870  0.57148  0.69835  1.0000 -0.2408564041
N   N5        1.0  0.74530  0.49634  0.73412  1.0000 -0.2508821766
N   N6        1.0  0.25470  0.99634  0.26588  1.0000 -0.2508821766
N   N7        1.0  0.76510  0.40145  0.48853  1.0000 -0.2508821766
N   N8        1.0  0.23490  0.90145  0.51147  1.0000 -0.2508821766
N   N9        1.0  0.56660  0.32884  0.44773  1.0000 -0.2408564041
N   N10       1.0  0.43340  0.82884  0.55227  1.0000 -0.2408564041
N   N11       1.0  0.38500  0.40323  0.49303  1.0000 -0.2508821766
N   N12       1.0  0.61500  0.90323  0.50697  1.0000 -0.2508821766
N   N13       1.0  0.36750  0.41175  0.99094  1.0000 -0.2655496101
N   N14       1.0  0.63250  0.91175  0.00906  1.0000 -0.2655496101
N   N15       1.0  0.54300  0.33294  0.94664  1.0000 -0.2408564041
N   N16       1.0  0.45700  0.83294  0.05336  1.0000 -0.2408564041
N   N17       1.0  0.74760  0.40414  0.98751  1.0000 -0.2603789667
N   N18       1.0  0.25240  0.90414  0.01249  1.0000 -0.2603789667
N   N19       1.0  0.35320  0.49862  0.24032  1.0000 -0.2508821766
N   N20       1.0  0.64680  0.99862  0.75968  1.0000 -0.2508821766
N   N21       1.0  0.46500  0.07395  0.80077  1.0000 -0.2408564041
N   N22       1.0  0.53500  0.57395  0.19923  1.0000 -0.2408564041
N   N23       1.0  0.73300  0.49891  0.24002  1.0000 -0.2508821766
N   N24       1.0  0.26700  0.99891  0.75998  1.0000 -0.2508821766
N   N25       1.0  0.11670  0.04270  0.49430  1.0000 0.6924776186
N   N26       1.0  0.88330  0.54270  0.50570  1.0000 0.6924776186
N   N27       1.0  0.71970  0.86015  0.24855  1.0000 0.6924776186
N   N28       1.0  0.28030  0.36015  0.75145  1.0000 0.6924776186
N   N29       1.0  0.74560  0.86444  0.75100  1.0000 0.7020113071
N   N30       1.0  0.25440  0.36444  0.24900  1.0000 0.7020113071
O   O1        1.0  0.55240  0.45537  0.64372  1.0000 -0.529289941
O   O2        1.0  0.44760  0.95537  0.35628  1.0000 -0.529289941
O   O3        1.0  0.55970  0.51851  0.83057  1.0000 -0.5502805611
O   O4        1.0  0.44030  0.01851  0.16943  1.0000 -0.5502805611
O   O5        1.0  0.56080  0.40429  0.75696  1.0000 -0.481757025
O   O6        1.0  0.43920  0.90429  0.24304  1.0000 -0.4859006504
O   O7        1.0  0.58350  0.38049  0.58519  1.0000 -0.5576985578
O   O8        1.0  0.41650  0.88049  0.41481  1.0000 -0.5576985578
O   O9        1.0  0.54570  0.44485  0.89375  1.0000 -0.529289941
O   O10       1.0  0.45430  0.94485  0.10625  1.0000 -0.529289941
O   O11       1.0  0.58390  0.49912  0.00345  1.0000 -0.481757025
O   O12       1.0  0.41610  0.99912  0.99655  1.0000 -0.481757025
O   O13       1.0  0.55940  0.44307  0.39573  1.0000 -0.5364071528
O   O14       1.0  0.44060  0.94307  0.60427  1.0000 -0.5364071528
O   O15       1.0  0.59580  0.49524  0.50669  1.0000 -0.4859006504
O   O16       1.0  0.40420  0.99524  0.49331  1.0000 -0.4859006504
O   O17       1.0  0.56290  0.38599  0.08394  1.0000 -0.5502805611
O   O18       1.0  0.43710  0.88599  0.91606  1.0000 -0.5502805611
O   O19       1.0  0.54810  0.51855  0.33538  1.0000 -0.5576985578
O   O20       1.0  0.45190  0.01855  0.66462  1.0000 -0.5576985578
O   O21       1.0  0.53960  0.46046  0.14466  1.0000 -0.5502805611
O   O22       1.0  0.46040  0.96046  0.85534  1.0000 -0.5502805611
O   O23       1.0  0.53480  0.40706  0.25530  1.0000 -0.4309230546
O   O24       1.0  0.46520  0.90706  0.74470  1.0000 -0.4309230546
O   O25       1.0  0.19230  0.02870  0.45640  1.0000 -0.4309230546
O   O26       1.0  0.01400  0.03290  0.47900  1.0000 -0.4172950039
O   O27       1.0  0.14510  0.06300  0.54930  1.0000 -0.4563842068
O   O28       1.0  0.80770  0.52870  0.54360  1.0000 -0.4309230546
O   O29       1.0  0.98600  0.53290  0.52100  1.0000 -0.4172950039
O   O30       1.0  0.85490  0.56300  0.45070  1.0000 -0.4563842068
O   O31       1.0  0.63400  0.85822  0.20611  1.0000 -0.4674732486
O   O32       1.0  0.69950  0.86654  0.30693  1.0000 -0.4309230546
O   O33       1.0  0.82080  0.85730  0.23010  1.0000 -0.4413615664
O   O34       1.0  0.36600  0.35822  0.79389  1.0000 -0.4674732486
O   O35       1.0  0.30050  0.36654  0.69307  1.0000 -0.4309230546
O   O36       1.0  0.17920  0.35730  0.76990  1.0000 -0.4413615664
O   O37       1.0  0.65890  0.86096  0.70912  1.0000 -0.481757025
O   O38       1.0  0.72590  0.87717  0.80867  1.0000 -0.4466736416
O   O39       1.0  0.84530  0.85480  0.73270  1.0000 -0.4413615664
O   O40       1.0  0.34110  0.36096  0.29088  1.0000 -0.481757025
O   O41       1.0  0.27410  0.37717  0.19133  1.0000 -0.4466736416
O   O42       1.0  0.15470  0.35480  0.26730  1.0000 -0.4466736416
