# DDEC6 charges by PACMAN v1.1 (https://github.com/mtap-research/PACMAN-charge/)
data_2015[Ag][nbo]3[ION]6
_chemical_formula_sum              "Ag6 B6 H48 C54 N24 F24"
_cell_length_a       16.7374
_cell_length_b       16.7374
_cell_length_c       16.7374
_cell_angle_alpha    114.534
_cell_angle_beta     114.534
_cell_angle_gamma    114.534

_symmetry_space_group_name_H-M    "P 1"
_symmetry_Int_Tables_number       1

loop_
  _symmetry_equiv_pos_as_xyz
  'x, y, z'

loop_
  _atom_site_type_symbol
  _atom_site_label
  _atom_site_symmetry_multiplicity
  _atom_site_fract_x
  _atom_site_fract_y
  _atom_site_fract_z
  _atom_site_occupancy
  _atom_site_charge
Ag  Ag1       1.0  0.66933  0.77942  0.12236  1.0000 0.2694644776
Ag  Ag2       1.0  0.77942  0.12236  0.66933  1.0000 0.2694644776
Ag  Ag3       1.0  0.12236  0.66933  0.77942  1.0000 0.2694644776
Ag  Ag4       1.0  0.33067  0.22058  0.87764  1.0000 0.2694644776
Ag  Ag5       1.0  0.22058  0.87764  0.33067  1.0000 0.2694644776
Ag  Ag6       1.0  0.87764  0.33067  0.22058  1.0000 0.2694644776
B   B1        1.0  0.39700  0.88800  0.73320  1.0000 1.0371626166
B   B2        1.0  0.73320  0.39700  0.88800  1.0000 1.0337023881
B   B3        1.0  0.88800  0.73320  0.39700  1.0000 1.0337023881
B   B4        1.0  0.60300  0.11200  0.26680  1.0000 1.0337023881
B   B5        1.0  0.26680  0.60300  0.11200  1.0000 1.0371626166
B   B6        1.0  0.11200  0.26680  0.60300  1.0000 1.0337023881
H   H1        1.0  0.38410  0.59970  0.98560  1.0000 0.1301335838
H   H2        1.0  0.59970  0.98560  0.38410  1.0000 0.1301335838
H   H3        1.0  0.98560  0.38410  0.59970  1.0000 0.1301335838
H   H4        1.0  0.61590  0.40030  0.01440  1.0000 0.1301335838
H   H5        1.0  0.40030  0.01440  0.61590  1.0000 0.1301335838
H   H6        1.0  0.01440  0.61590  0.40030  1.0000 0.1301335838
H   H7        1.0  0.67900  0.03970  0.01750  1.0000 0.1301335838
H   H8        1.0  0.03970  0.01750  0.67900  1.0000 0.1301335838
H   H9        1.0  0.01750  0.67900  0.03970  1.0000 0.1301335838
H   H10       1.0  0.32100  0.96030  0.98250  1.0000 0.1301335838
H   H11       1.0  0.96030  0.98250  0.32100  1.0000 0.1301335838
H   H12       1.0  0.98250  0.32100  0.96030  1.0000 0.1301335838
H   H13       1.0  0.87520  0.09340  0.34780  1.0000 0.114466005
H   H14       1.0  0.09340  0.34780  0.87520  1.0000 0.114466005
H   H15       1.0  0.34780  0.87520  0.09340  1.0000 0.114466005
H   H16       1.0  0.12480  0.90660  0.65220  1.0000 0.114466005
H   H17       1.0  0.90660  0.65220  0.12480  1.0000 0.114466005
H   H18       1.0  0.65220  0.12480  0.90660  1.0000 0.114466005
H   H19       1.0  0.21550  0.57390  0.88210  1.0000 0.1166999833
H   H20       1.0  0.57390  0.88210  0.21550  1.0000 0.1166999833
H   H21       1.0  0.88210  0.21550  0.57390  1.0000 0.1166999833
H   H22       1.0  0.78450  0.42610  0.11790  1.0000 0.1166999833
H   H23       1.0  0.42610  0.11790  0.78450  1.0000 0.1166999833
H   H24       1.0  0.11790  0.78450  0.42610  1.0000 0.1166999833
H   H25       1.0  0.37100  0.76680  0.83100  1.0000 0.1301335838
H   H26       1.0  0.76680  0.83100  0.37100  1.0000 0.1301335838
H   H27       1.0  0.83100  0.37100  0.76680  1.0000 0.1301335838
H   H28       1.0  0.62900  0.23320  0.16900  1.0000 0.1301335838
H   H29       1.0  0.23320  0.16900  0.62900  1.0000 0.1301335838
H   H30       1.0  0.16900  0.62900  0.23320  1.0000 0.1301335838
H   H31       1.0  0.94270  0.26650  0.38080  1.0000 0.1301335838
H   H32       1.0  0.26650  0.38080  0.94270  1.0000 0.1301335838
H   H33       1.0  0.38080  0.94270  0.26650  1.0000 0.1301335838
H   H34       1.0  0.05730  0.73350  0.61920  1.0000 0.1301335838
H   H35       1.0  0.73350  0.61920  0.05730  1.0000 0.1301335838
H   H36       1.0  0.61920  0.05730  0.73350  1.0000 0.1301335838
H   H37       1.0  0.61080  0.78220  0.93190  1.0000 0.1446436492
H   H38       1.0  0.78220  0.93190  0.61080  1.0000 0.1446436492
H   H39       1.0  0.93190  0.61080  0.78220  1.0000 0.1446436492
H   H40       1.0  0.38920  0.21780  0.06810  1.0000 0.1446436492
H   H41       1.0  0.21780  0.06810  0.38920  1.0000 0.1446436492
H   H42       1.0  0.06810  0.38920  0.21780  1.0000 0.1446436492
H   H43       1.0  0.55490  0.82480  0.87890  1.0000 0.1531360295
H   H44       1.0  0.82480  0.87890  0.55490  1.0000 0.1531360295
H   H45       1.0  0.87890  0.55490  0.82480  1.0000 0.1531360295
H   H46       1.0  0.44510  0.17520  0.12110  1.0000 0.1531360295
H   H47       1.0  0.17520  0.12110  0.44510  1.0000 0.1531360295
H   H48       1.0  0.12110  0.44510  0.17520  1.0000 0.1531360295
C   C1        1.0  0.38330  0.63540  0.95400  1.0000 0.0487834174
C   C2        1.0  0.63540  0.95400  0.38330  1.0000 0.0487834174
C   C3        1.0  0.95400  0.38330  0.63540  1.0000 0.0487834174
C   C4        1.0  0.61670  0.36460  0.04600  1.0000 0.0487834174
C   C5        1.0  0.36460  0.04600  0.61670  1.0000 0.0487834174
C   C6        1.0  0.04600  0.61670  0.36460  1.0000 0.0487834174
C   C7        1.0  0.72400  0.05440  0.08860  1.0000 -0.0089394836
C   C8        1.0  0.05440  0.08860  0.72400  1.0000 -0.0089394836
C   C9        1.0  0.08860  0.72400  0.05440  1.0000 -0.0089394836
C   C10       1.0  0.27600  0.94560  0.91140  1.0000 -0.0089394836
C   C11       1.0  0.94560  0.91140  0.27600  1.0000 -0.0089394836
C   C12       1.0  0.91140  0.27600  0.94560  1.0000 -0.0089394836
C   C13       1.0  0.68940  0.95650  0.07260  1.0000 0.2093541321
C   C14       1.0  0.95650  0.07260  0.68940  1.0000 0.2093541321
C   C15       1.0  0.07260  0.68940  0.95650  1.0000 0.2093541321
C   C16       1.0  0.31060  0.04350  0.92740  1.0000 0.2093541321
C   C17       1.0  0.04350  0.92740  0.31060  1.0000 0.2093541321
C   C18       1.0  0.92740  0.31060  0.04350  1.0000 0.2093541321
C   C19       1.0  0.83510  0.08160  0.27790  1.0000 0.0655656305
C   C20       1.0  0.08160  0.27790  0.83510  1.0000 0.0655656305
C   C21       1.0  0.27790  0.83510  0.08160  1.0000 0.0655656305
C   C22       1.0  0.16490  0.91840  0.72210  1.0000 0.0655656305
C   C23       1.0  0.91840  0.72210  0.16490  1.0000 0.0655656305
C   C24       1.0  0.72210  0.16490  0.91840  1.0000 0.0655656305
C   C25       1.0  0.28280  0.62090  0.89260  1.0000 0.0308455946
C   C26       1.0  0.62090  0.89260  0.28280  1.0000 0.0308455946
C   C27       1.0  0.89260  0.28280  0.62090  1.0000 0.0308455946
C   C28       1.0  0.71720  0.37910  0.10740  1.0000 0.0308455946
C   C29       1.0  0.37910  0.10740  0.71720  1.0000 0.0308455946
C   C30       1.0  0.10740  0.71720  0.37910  1.0000 0.0308455946
C   C31       1.0  0.47430  0.74910  0.92270  1.0000 0.2401042279
C   C32       1.0  0.74910  0.92270  0.47430  1.0000 0.2401042279
C   C33       1.0  0.92270  0.47430  0.74910  1.0000 0.2401042279
C   C34       1.0  0.52570  0.25090  0.07730  1.0000 0.2401042279
C   C35       1.0  0.25090  0.07730  0.52570  1.0000 0.2401042279
C   C36       1.0  0.07730  0.52570  0.25090  1.0000 0.2401042279
C   C37       1.0  0.37290  0.73200  0.86360  1.0000 -0.0228482432
C   C38       1.0  0.73200  0.86360  0.37290  1.0000 -0.0228482432
C   C39       1.0  0.86360  0.37290  0.73200  1.0000 -0.0228482432
C   C40       1.0  0.62710  0.26800  0.13640  1.0000 -0.0228482432
C   C41       1.0  0.26800  0.13640  0.62710  1.0000 -0.0228482432
C   C42       1.0  0.13640  0.62710  0.26800  1.0000 -0.0228482432
C   C43       1.0  0.87520  0.18510  0.29840  1.0000 -0.0089394836
C   C44       1.0  0.18510  0.29840  0.87520  1.0000 -0.0089394836
C   C45       1.0  0.29840  0.87520  0.18510  1.0000 -0.0089394836
C   C46       1.0  0.12480  0.81490  0.70160  1.0000 -0.0089394836
C   C47       1.0  0.81490  0.70160  0.12480  1.0000 -0.0089394836
C   C48       1.0  0.70160  0.12480  0.81490  1.0000 -0.0089394836
C   C49       1.0  0.58170  0.82290  0.94250  1.0000 -0.3500963304
C   C50       1.0  0.82290  0.94250  0.58170  1.0000 -0.3500963304
C   C51       1.0  0.94250  0.58170  0.82290  1.0000 -0.3500963304
C   C52       1.0  0.41830  0.17710  0.05750  1.0000 -0.3500963304
C   C53       1.0  0.17710  0.05750  0.41830  1.0000 -0.3500963304
C   C54       1.0  0.05750  0.41830  0.17710  1.0000 -0.3500963304
N   N1        1.0  0.47850  0.69970  0.96820  1.0000 -0.2038092716
N   N2        1.0  0.69970  0.96820  0.47850  1.0000 -0.2038092716
N   N3        1.0  0.96820  0.47850  0.69970  1.0000 -0.2038092716
N   N4        1.0  0.52150  0.30030  0.03180  1.0000 -0.2038092716
N   N5        1.0  0.30030  0.03180  0.52150  1.0000 -0.2038092716
N   N6        1.0  0.03180  0.52150  0.30030  1.0000 -0.2038092716
N   N7        1.0  0.27870  0.67050  0.84920  1.0000 -0.1554051939
N   N8        1.0  0.67050  0.84920  0.27870  1.0000 -0.1554051939
N   N9        1.0  0.84920  0.27870  0.67050  1.0000 -0.1554051939
N   N10       1.0  0.72130  0.32950  0.15080  1.0000 -0.1554051939
N   N11       1.0  0.32950  0.15080  0.72130  1.0000 -0.1554051939
N   N12       1.0  0.15080  0.72130  0.32950  1.0000 -0.1554051939
N   N13       1.0  0.74520  0.97010  0.16760  1.0000 -0.2190957743
N   N14       1.0  0.97010  0.16760  0.74520  1.0000 -0.2190957743
N   N15       1.0  0.16760  0.74520  0.97010  1.0000 -0.2190957743
N   N16       1.0  0.25480  0.02990  0.83240  1.0000 -0.2190957743
N   N17       1.0  0.02990  0.83240  0.25480  1.0000 -0.2190957743
N   N18       1.0  0.83240  0.25480  0.02990  1.0000 -0.2190957743
N   N19       1.0  0.81680  0.16850  0.19850  1.0000 -0.1360180977
N   N20       1.0  0.16850  0.19850  0.81680  1.0000 -0.1360180977
N   N21       1.0  0.19850  0.81680  0.16850  1.0000 -0.1360180977
N   N22       1.0  0.18320  0.83150  0.80150  1.0000 -0.1360180977
N   N23       1.0  0.83150  0.80150  0.18320  1.0000 -0.1360180977
N   N24       1.0  0.80150  0.18320  0.83150  1.0000 -0.1360180977
F   F1        1.0  0.46560  0.86440  0.77430  1.0000 -0.4519148323
F   F2        1.0  0.44100  0.99200  0.82640  1.0000 -0.4605974219
F   F3        1.0  0.40560  0.89510  0.65630  1.0000 -0.4605974219
F   F4        1.0  0.27670  0.78480  0.66480  1.0000 -0.4688211108
F   F5        1.0  0.77430  0.46560  0.86440  1.0000 -0.4519148323
F   F6        1.0  0.82640  0.44100  0.99200  1.0000 -0.4605974219
F   F7        1.0  0.65630  0.40560  0.89510  1.0000 -0.4605974219
F   F8        1.0  0.66480  0.27670  0.78480  1.0000 -0.4688211108
F   F9        1.0  0.86440  0.77430  0.46560  1.0000 -0.4519148323
F   F10       1.0  0.99200  0.82640  0.44100  1.0000 -0.4605974219
F   F11       1.0  0.89510  0.65630  0.40560  1.0000 -0.4688211108
F   F12       1.0  0.78480  0.66480  0.27670  1.0000 -0.4688211108
F   F13       1.0  0.53440  0.13560  0.22570  1.0000 -0.4519148323
F   F14       1.0  0.55900  0.00800  0.17360  1.0000 -0.4605974219
F   F15       1.0  0.59440  0.10490  0.34370  1.0000 -0.4605974219
F   F16       1.0  0.72330  0.21520  0.33520  1.0000 -0.4688211108
F   F17       1.0  0.22570  0.53440  0.13560  1.0000 -0.4519148323
F   F18       1.0  0.17360  0.55900  0.00800  1.0000 -0.4605974219
F   F19       1.0  0.34370  0.59440  0.10490  1.0000 -0.4605974219
F   F20       1.0  0.33520  0.72330  0.21520  1.0000 -0.4688211108
F   F21       1.0  0.13560  0.22570  0.53440  1.0000 -0.4519148323
F   F22       1.0  0.00800  0.17360  0.55900  1.0000 -0.4605974219
F   F23       1.0  0.10490  0.34370  0.59440  1.0000 -0.4605974219
F   F24       1.0  0.21520  0.33520  0.72330  1.0000 -0.4688211108
