# DDEC6 charges by PACMAN v1.1 (https://github.com/mtap-research/PACMAN-charge/)
data_2015[Co][bnn]3[ION]5
_chemical_formula_sum              "Co4 H76 C92 N16 O24"
_cell_length_a       10.2292
_cell_length_b       24.7002
_cell_length_c       11.4243
_cell_angle_alpha    90
_cell_angle_beta     90.087
_cell_angle_gamma    90

_symmetry_space_group_name_H-M    "P 1"
_symmetry_Int_Tables_number       1

loop_
  _symmetry_equiv_pos_as_xyz
  'x, y, z'

loop_
  _atom_site_type_symbol
  _atom_site_label
  _atom_site_symmetry_multiplicity
  _atom_site_fract_x
  _atom_site_fract_y
  _atom_site_fract_z
  _atom_site_occupancy
  _atom_site_charge
Co  Co1       1.0  0.04432  0.81817  0.92082  1.0000 0.7697047576
Co  Co2       1.0  0.95568  0.31817  0.07918  1.0000 0.7697047576
Co  Co3       1.0  0.54313  0.73887  0.94344  1.0000 0.7537612304
Co  Co4       1.0  0.45687  0.23887  0.05656  1.0000 0.7537612304
H   H1        1.0  0.22940  0.80990  0.12900  1.0000 0.100555119
H   H2        1.0  0.77060  0.30990  0.87100  1.0000 0.100555119
H   H3        1.0  0.71890  0.76000  0.15580  1.0000 0.100555119
H   H4        1.0  0.28110  0.26000  0.84420  1.0000 0.100555119
H   H5        1.0  0.96500  0.71700  0.85400  1.0000 0.3356677279
H   H6        1.0  0.03500  0.21700  0.14600  1.0000 0.3356677279
H   H7        1.0  0.73190  0.74910  0.35550  1.0000 0.1306812624
H   H8        1.0  0.26810  0.24910  0.64450  1.0000 0.1306812624
H   H9        1.0  0.49400  0.83000  0.02400  1.0000 0.3161627039
H   H10       1.0  0.50600  0.33000  0.97600  1.0000 0.3161627039
H   H11       1.0  0.85470  0.81280  0.70680  1.0000 0.100555119
H   H12       1.0  0.14530  0.31280  0.29320  1.0000 0.100555119
H   H13       1.0  0.23800  0.81340  0.33010  1.0000 0.1306812624
H   H14       1.0  0.76200  0.31340  0.66990  1.0000 0.1306812624
H   H15       1.0  0.34290  0.73370  0.52840  1.0000 0.1306812624
H   H16       1.0  0.65710  0.23370  0.47160  1.0000 0.1306812624
H   H17       1.0  0.36240  0.70550  0.14880  1.0000 0.100555119
H   H18       1.0  0.63760  0.20550  0.85120  1.0000 0.100555119
H   H19       1.0  0.85980  0.84560  0.13090  1.0000 0.100555119
H   H20       1.0  0.14020  0.34560  0.86910  1.0000 0.100555119
H   H21       1.0  0.85090  0.81920  0.50840  1.0000 0.1306812624
H   H22       1.0  0.14910  0.31920  0.49160  1.0000 0.1306812624
H   H23       1.0  0.23780  0.84450  0.51210  1.0000 0.1306812624
H   H24       1.0  0.76220  0.34450  0.48790  1.0000 0.1306812624
H   H25       1.0  0.35910  0.69920  0.35490  1.0000 0.1306812624
H   H26       1.0  0.64090  0.19920  0.64510  1.0000 0.1306812624
H   H27       1.0  0.34640  0.73920  0.72860  1.0000 0.109214341
H   H28       1.0  0.65360  0.23920  0.27140  1.0000 0.109214341
H   H29       1.0  0.23320  0.83770  0.71140  1.0000 0.100555119
H   H30       1.0  0.76680  0.33770  0.28860  1.0000 0.100555119
H   H31       1.0  0.85710  0.85210  0.33010  1.0000 0.1306812624
H   H32       1.0  0.14290  0.35210  0.66990  1.0000 0.1306812624
H   H33       1.0  0.63730  0.88520  0.98750  1.0000 0.100555119
H   H34       1.0  0.36270  0.38520  0.01250  1.0000 0.100555119
H   H35       1.0  0.13440  0.67320  0.85990  1.0000 0.100555119
H   H36       1.0  0.86560  0.17320  0.14010  1.0000 0.100555119
H   H37       1.0  0.72680  0.71940  0.73880  1.0000 0.100555119
H   H38       1.0  0.27320  0.21940  0.26120  1.0000 0.100555119
H   H39       1.0  0.69420  0.37770  0.06940  1.0000 0.109214341
H   H40       1.0  0.30580  0.87770  0.93060  1.0000 0.109214341
H   H41       1.0  0.80460  0.68090  0.97570  1.0000 0.109214341
H   H42       1.0  0.19540  0.18090  0.02430  1.0000 0.109214341
H   H43       1.0  0.45640  0.62240  0.95420  1.0000 0.100555119
H   H44       1.0  0.54360  0.12240  0.04580  1.0000 0.100555119
H   H45       1.0  0.73350  0.71480  0.53830  1.0000 0.1306812624
H   H46       1.0  0.26650  0.21480  0.46170  1.0000 0.1306812624
H   H47       1.0  0.53550  0.53590  0.99420  1.0000 0.1306812624
H   H48       1.0  0.46450  0.03590  0.00580  1.0000 0.1306812624
H   H49       1.0  0.89270  0.59740  0.01540  1.0000 0.1306812624
H   H50       1.0  0.10730  0.09740  0.98460  1.0000 0.1306812624
H   H51       1.0  0.03880  0.43650  0.08520  1.0000 0.109214341
H   H52       1.0  0.96120  0.93650  0.91480  1.0000 0.109214341
H   H53       1.0  0.62820  0.94790  0.50700  1.0000 0.1183083559
H   H54       1.0  0.37180  0.44790  0.49300  1.0000 0.1183083559
H   H55       1.0  0.48820  0.83470  0.73240  1.0000 0.109214341
H   H56       1.0  0.51180  0.33470  0.26760  1.0000 0.109214341
H   H57       1.0  0.60700  0.46200  0.03110  1.0000 0.1306812624
H   H58       1.0  0.39300  0.96200  0.96890  1.0000 0.1306812624
H   H59       1.0  0.96330  0.52200  0.05890  1.0000 0.1306812624
H   H60       1.0  0.03670  0.02200  0.94110  1.0000 0.1306812624
H   H61       1.0  0.00260  0.71630  0.13220  1.0000 0.109214341
H   H62       1.0  0.99740  0.21630  0.86780  1.0000 0.109214341
H   H63       1.0  0.74970  0.94620  0.84050  1.0000 0.109214341
H   H64       1.0  0.25030  0.44620  0.15950  1.0000 0.109214341
H   H65       1.0  0.23410  0.55110  0.14380  1.0000 0.109214341
H   H66       1.0  0.76590  0.05110  0.85620  1.0000 0.109214341
H   H67       1.0  0.01110  0.66160  0.31130  1.0000 0.1183083559
H   H68       1.0  0.98890  0.16160  0.68870  1.0000 0.1183083559
H   H69       1.0  0.22590  0.60390  0.97430  1.0000 0.109214341
H   H70       1.0  0.77410  0.10390  0.02570  1.0000 0.109214341
H   H71       1.0  0.13410  0.58250  0.30770  1.0000 0.1183083559
H   H72       1.0  0.86590  0.08250  0.69230  1.0000 0.1183083559
H   H73       1.0  0.50490  0.87290  0.54510  1.0000 0.1183083559
H   H74       1.0  0.49510  0.37290  0.45490  1.0000 0.1183083559
H   H75       1.0  0.76450  0.97990  0.65580  1.0000 0.109214341
H   H76       1.0  0.23550  0.47990  0.34420  1.0000 0.109214341
C   C1        1.0  0.15090  0.81620  0.17110  1.0000 0.100555119
C   C2        1.0  0.84910  0.31620  0.82890  1.0000 0.100555119
C   C3        1.0  0.74830  0.82060  0.92630  1.0000 0.5445435032
C   C4        1.0  0.25170  0.32060  0.07370  1.0000 0.5445435032
C   C5        1.0  0.64370  0.74750  0.19630  1.0000 0.0905528631
C   C6        1.0  0.35630  0.24750  0.80370  1.0000 0.0905528631
C   C7        1.0  0.04630  0.82900  0.48820  1.0000 0.109214341
C   C8        1.0  0.95370  0.32900  0.51180  1.0000 0.109214341
C   C9        1.0  0.65130  0.74260  0.31650  1.0000 -0.1898571964
C   C10       1.0  0.34870  0.24260  0.68350  1.0000 -0.1898571964
C   C11       1.0  0.93490  0.81890  0.66720  1.0000 0.081518781
C   C12       1.0  0.06510  0.31890  0.33280  1.0000 0.081518781
C   C13       1.0  0.04440  0.82860  0.35880  1.0000 0.1183083559
C   C14       1.0  0.95560  0.32860  0.64120  1.0000 0.1183083559
C   C15       1.0  0.15650  0.81860  0.29170  1.0000 -0.2012301897
C   C16       1.0  0.84350  0.31860  0.70830  1.0000 -0.2012301897
C   C17       1.0  0.42370  0.73210  0.56940  1.0000 -0.1694544196
C   C18       1.0  0.57630  0.23210  0.43060  1.0000 -0.1694544196
C   C19       1.0  0.43690  0.71680  0.19220  1.0000 0.081518781
C   C20       1.0  0.56310  0.21680  0.80780  1.0000 0.081518781
C   C21       1.0  0.93730  0.83710  0.17300  1.0000 0.0637345299
C   C22       1.0  0.06270  0.33710  0.82700  1.0000 0.0637345299
C   C23       1.0  0.93170  0.82200  0.54910  1.0000 -0.1822407286
C   C24       1.0  0.06830  0.32200  0.45090  1.0000 -0.1822407286
C   C25       1.0  0.54100  0.72820  0.38040  1.0000 0.1183083559
C   C26       1.0  0.45900  0.22820  0.61960  1.0000 0.1183083559
C   C27       1.0  0.15790  0.83680  0.55080  1.0000 -0.1694544196
C   C28       1.0  0.84210  0.33680  0.44920  1.0000 -0.1694544196
C   C29       1.0  0.53940  0.72710  0.51020  1.0000 0.109214341
C   C30       1.0  0.46060  0.22710  0.48980  1.0000 0.109214341
C   C31       1.0  0.24580  0.73460  0.93320  1.0000 0.5576261267
C   C32       1.0  0.75420  0.23460  0.06680  1.0000 0.5576261267
C   C33       1.0  0.43470  0.71270  0.31650  1.0000 -0.1898571964
C   C34       1.0  0.56530  0.21270  0.68350  1.0000 -0.1898571964
C   C35       1.0  0.42730  0.73470  0.68910  1.0000 0.0683957621
C   C36       1.0  0.57270  0.23470  0.31090  1.0000 0.0683957621
C   C37       1.0  0.15360  0.83330  0.66960  1.0000 0.0683957621
C   C38       1.0  0.84640  0.33333  0.33040  1.0000 0.0683957621
C   C39       1.0  0.93500  0.84090  0.29210  1.0000 -0.1822407286
C   C40       1.0  0.06500  0.34090  0.70790  1.0000 -0.1822407286
C   C41       1.0  0.62700  0.85740  0.92450  1.0000 -0.0099317975
C   C42       1.0  0.37300  0.35740  0.07550  1.0000 -0.0099317975
C   C43       1.0  0.72300  0.55680  0.01000  1.0000 0.1183083559
C   C44       1.0  0.27700  0.05680  0.99000  1.0000 0.1183083559
C   C45       1.0  0.12490  0.69850  0.92770  1.0000 -0.0099317975
C   C46       1.0  0.87510  0.19850  0.07230  1.0000 -0.0099317975
C   C47       1.0  0.64760  0.72350  0.69620  1.0000 0.0905528631
C   C48       1.0  0.35240  0.22350  0.30380  1.0000 0.081518781
C   C49       1.0  0.75230  0.40750  0.06230  1.0000 0.0905528631
C   C50       1.0  0.24770  0.90750  0.93770  1.0000 0.0905528631
C   C51       1.0  0.74740  0.65060  0.97840  1.0000 0.0905528631
C   C52       1.0  0.25260  0.15060  0.02160  1.0000 0.081518781
C   C53       1.0  0.54760  0.61750  0.96600  1.0000 0.0905528631
C   C54       1.0  0.45240  0.11750  0.03400  1.0000 0.0905528631
C   C55       1.0  0.77650  0.50160  0.03640  1.0000 0.1183083559
C   C56       1.0  0.22350  0.00160  0.96360  1.0000 0.1183083559
C   C57       1.0  0.11800  0.66510  0.03970  1.0000 0.0637345299
C   C58       1.0  0.88200  0.16510  0.96030  1.0000 0.0637345299
C   C59       1.0  0.65230  0.72090  0.57630  1.0000 -0.1822407286
C   C60       1.0  0.34770  0.22090  0.42370  1.0000 -0.1822407286
C   C61       1.0  0.59480  0.56540  0.99100  1.0000 -0.2012301897
C   C62       1.0  0.40520  0.06540  0.00900  1.0000 -0.2012301897
C   C63       1.0  0.80120  0.60080  0.00320  1.0000 -0.1898571964
C   C64       1.0  0.19880  0.10080  0.99680  1.0000 -0.1898571964
C   C65       1.0  0.94760  0.44100  0.07300  1.0000 0.081518781
C   C66       1.0  0.05240  0.94100  0.92700  1.0000 0.081518781
C   C67       1.0  0.61830  0.88640  0.80820  1.0000 0.0683957621
C   C68       1.0  0.38170  0.38640  0.19180  1.0000 0.081518781
C   C69       1.0  0.62900  0.93170  0.58200  1.0000 -0.0917411089
C   C70       1.0  0.37100  0.43170  0.41800  1.0000 -0.0917411089
C   C71       1.0  0.54420  0.86470  0.71900  1.0000 -0.135202618
C   C72       1.0  0.45580  0.36470  0.28100  1.0000 -0.135202618
C   C73       1.0  0.69870  0.45810  0.04160  1.0000 -0.2012301897
C   C74       1.0  0.30130  0.95810  0.95840  1.0000 -0.2012301897
C   C75       1.0  0.90370  0.49250  0.05600  1.0000 -0.2074962721
C   C76       1.0  0.09630  0.99250  0.94400  1.0000 -0.2074962721
C   C77       1.0  0.05080  0.68340  0.13510  1.0000 -0.1490248308
C   C78       1.0  0.94920  0.18340  0.86490  1.0000 -0.1490248308
C   C79       1.0  0.69820  0.93030  0.78030  1.0000 -0.1593447306
C   C80       1.0  0.30180  0.43030  0.21970  1.0000 -0.1593447306
C   C81       1.0  0.18870  0.58470  0.14300  1.0000 -0.1103980855
C   C82       1.0  0.81130  0.08470  0.85700  1.0000 -0.1103980855
C   C83       1.0  0.05500  0.65070  0.24220  1.0000 -0.0774753071
C   C84       1.0  0.94500  0.15070  0.75780  1.0000 -0.0774753071
C   C85       1.0  0.18320  0.61630  0.04300  1.0000 -0.1593447306
C   C86       1.0  0.81680  0.11630  0.95700  1.0000 -0.1593447306
C   C87       1.0  0.12800  0.60330  0.23800  1.0000 -0.1199010328
C   C88       1.0  0.87200  0.10330  0.76200  1.0000 -0.1199010328
C   C89       1.0  0.55400  0.88850  0.60710  1.0000 -0.0917411089
C   C90       1.0  0.44600  0.38850  0.39290  1.0000 -0.0917411089
C   C91       1.0  0.70500  0.95120  0.67120  1.0000 -0.1004124746
C   C92       1.0  0.29500  0.45120  0.32880  1.0000 -0.1004124746
N   N1        1.0  0.04330  0.82390  0.73240  1.0000 -0.2531002179
N   N2        1.0  0.95670  0.32390  0.26760  1.0000 -0.2531002179
N   N3        1.0  0.04290  0.82210  0.11280  1.0000 -0.240925742
N   N4        1.0  0.95710  0.32210  0.88720  1.0000 -0.240925742
N   N5        1.0  0.54000  0.73600  0.13500  1.0000 -0.240925742
N   N6        1.0  0.46000  0.23600  0.86500  1.0000 -0.240925742
N   N7        1.0  0.53700  0.73140  0.75600  1.0000 -0.2531002179
N   N8        1.0  0.46300  0.23140  0.24400  1.0000 -0.2531002179
N   N9        1.0  0.62420  0.65920  0.95840  1.0000 -0.2074962721
N   N10       1.0  0.37580  0.15920  0.04160  1.0000 -0.2074962721
N   N11       1.0  0.87690  0.39820  0.07260  1.0000 -0.2169419765
N   N12       1.0  0.12310  0.89820  0.92740  1.0000 -0.2169419765
N   N13       1.0  0.98450  0.19210  0.37870  1.0000 0.7085865423
N   N14       1.0  0.01550  0.69210  0.62130  1.0000 0.7085865423
N   N15       1.0  0.48640  0.36510  0.76630  1.0000 0.6983452424
N   N16       1.0  0.51360  0.86510  0.23370  1.0000 0.6983452424
O   O1        1.0  0.23120  0.78580  0.92500  1.0000 -0.5385402605
O   O2        1.0  0.76880  0.28580  0.07500  1.0000 -0.5385402605
O   O3        1.0  0.73130  0.77170  0.93580  1.0000 -0.5074419395
O   O4        1.0  0.26870  0.27170  0.06420  1.0000 -0.5074419395
O   O5        1.0  0.35350  0.71200  0.94450  1.0000 -0.5385402605
O   O6        1.0  0.64650  0.21200  0.05550  1.0000 -0.5385402605
O   O7        1.0  0.85490  0.84440  0.91860  1.0000 -0.5349418536
O   O8        1.0  0.14510  0.34440  0.08140  1.0000 -0.5349418536
O   O9        1.0  0.01310  0.73080  0.90910  1.0000 -0.4781706349
O   O10       1.0  0.98690  0.23080  0.09090  1.0000 -0.4781706349
O   O11       1.0  0.51360  0.82640  0.94920  1.0000 -0.4704852268
O   O12       1.0  0.48640  0.32640  0.05080  1.0000 -0.4704852268
O   O13       1.0  0.06450  0.19030  0.29340  1.0000 -0.4781706349
O   O14       1.0  0.86900  0.20250  0.35780  1.0000 -0.4318680406
O   O15       1.0  0.02490  0.18400  0.48060  1.0000 -0.4435864107
O   O16       1.0  0.93550  0.69030  0.70660  1.0000 -0.4781706349
O   O17       1.0  0.13100  0.70250  0.64220  1.0000 -0.4318680406
O   O18       1.0  0.97510  0.68400  0.51940  1.0000 -0.4496579384
O   O19       1.0  0.56810  0.36040  0.84510  1.0000 -0.4318680406
O   O20       1.0  0.52420  0.36470  0.66190  1.0000 -0.4435864107
O   O21       1.0  0.36770  0.37010  0.78770  1.0000 -0.4496579384
O   O22       1.0  0.43190  0.86040  0.15490  1.0000 -0.4318680406
O   O23       1.0  0.47580  0.86470  0.33810  1.0000 -0.4435864107
O   O24       1.0  0.63230  0.87010  0.21230  1.0000 -0.4496579384
