# DDEC6 charges by PACMAN v1.1 (https://github.com/mtap-research/PACMAN-charge/)
data_2015[Cd][nan]3[ION]1
_chemical_formula_sum              "Cd12 H252 C300 N106 O54"
_cell_length_a       19.5639
_cell_length_b       19.5639
_cell_length_c       26.8732
_cell_angle_alpha    90
_cell_angle_beta     90
_cell_angle_gamma    120

_symmetry_space_group_name_H-M    "P 1"
_symmetry_Int_Tables_number       1

loop_
  _symmetry_equiv_pos_as_xyz
  'x, y, z'

loop_
  _atom_site_type_symbol
  _atom_site_label
  _atom_site_symmetry_multiplicity
  _atom_site_fract_x
  _atom_site_fract_y
  _atom_site_fract_z
  _atom_site_occupancy
  _atom_site_charge
Cd  Cd1       1.0  0.28993  0.01014  0.36144  1.0000 0.7570209315
Cd  Cd2       1.0  0.98986  0.27979  0.36144  1.0000 0.7570209315
Cd  Cd3       1.0  0.72021  0.71007  0.36144  1.0000 0.7570209315
Cd  Cd4       1.0  0.98986  0.71007  0.13856  1.0000 0.7570209315
Cd  Cd5       1.0  0.72021  0.01014  0.13856  1.0000 0.7570209315
Cd  Cd6       1.0  0.28993  0.27979  0.13856  1.0000 0.7570209315
Cd  Cd7       1.0  0.71007  0.98986  0.63856  1.0000 0.7570209315
Cd  Cd8       1.0  0.01014  0.72021  0.63856  1.0000 0.7570209315
Cd  Cd9       1.0  0.27979  0.28993  0.63856  1.0000 0.7570209315
Cd  Cd10      1.0  0.01014  0.28993  0.86144  1.0000 0.7570209315
Cd  Cd11      1.0  0.27979  0.98986  0.86144  1.0000 0.7570209315
Cd  Cd12      1.0  0.71007  0.72021  0.86144  1.0000 0.7570209315
H   H1        1.0  0.99950  0.92230  0.33830  1.0000 0.1017985024
H   H2        1.0  0.07770  0.07720  0.33830  1.0000 0.1017985024
H   H3        1.0  0.92280  0.00050  0.33830  1.0000 0.1017985024
H   H4        1.0  0.07770  0.00050  0.16170  1.0000 0.1017985024
H   H5        1.0  0.92280  0.92230  0.16170  1.0000 0.1017985024
H   H6        1.0  0.99950  0.07720  0.16170  1.0000 0.1017985024
H   H7        1.0  0.00050  0.07770  0.66170  1.0000 0.1017985024
H   H8        1.0  0.92230  0.92280  0.66170  1.0000 0.1017985024
H   H9        1.0  0.07720  0.99950  0.66170  1.0000 0.1017985024
H   H10       1.0  0.92230  0.99950  0.83830  1.0000 0.1017985024
H   H11       1.0  0.07720  0.07770  0.83830  1.0000 0.1017985024
H   H12       1.0  0.00050  0.92280  0.83830  1.0000 0.1017985024
H   H13       1.0  0.99930  0.87910  0.38750  1.0000 0.094345719
H   H14       1.0  0.12090  0.12020  0.38750  1.0000 0.094345719
H   H15       1.0  0.87980  0.00070  0.38750  1.0000 0.094345719
H   H16       1.0  0.12090  0.00070  0.11250  1.0000 0.094345719
H   H17       1.0  0.87980  0.87910  0.11250  1.0000 0.094345719
H   H18       1.0  0.99930  0.12020  0.11250  1.0000 0.094345719
H   H19       1.0  0.00070  0.12090  0.61250  1.0000 0.094345719
H   H20       1.0  0.87910  0.87980  0.61250  1.0000 0.094345719
H   H21       1.0  0.12020  0.99930  0.61250  1.0000 0.094345719
H   H22       1.0  0.87910  0.99930  0.88750  1.0000 0.094345719
H   H23       1.0  0.12020  0.12090  0.88750  1.0000 0.094345719
H   H24       1.0  0.00070  0.87980  0.88750  1.0000 0.094345719
H   H25       1.0  0.07400  0.99960  0.42800  1.0000 0.094345719
H   H26       1.0  0.00040  0.07440  0.42800  1.0000 0.094345719
H   H27       1.0  0.92560  0.92600  0.42800  1.0000 0.094345719
H   H28       1.0  0.00040  0.92600  0.07200  1.0000 0.094345719
H   H29       1.0  0.92560  0.99960  0.07200  1.0000 0.094345719
H   H30       1.0  0.07400  0.07440  0.07200  1.0000 0.094345719
H   H31       1.0  0.92600  0.00040  0.57200  1.0000 0.094345719
H   H32       1.0  0.99960  0.92560  0.57200  1.0000 0.094345719
H   H33       1.0  0.07440  0.07400  0.57200  1.0000 0.094345719
H   H34       1.0  0.99960  0.07400  0.92800  1.0000 0.094345719
H   H35       1.0  0.07440  0.00040  0.92800  1.0000 0.094345719
H   H36       1.0  0.92600  0.92560  0.92800  1.0000 0.094345719
H   H37       1.0  0.48350  0.10660  0.53790  1.0000 0.1387809356
H   H38       1.0  0.89340  0.37690  0.53790  1.0000 0.1387809356
H   H39       1.0  0.62310  0.51650  0.53790  1.0000 0.1387809356
H   H40       1.0  0.89340  0.51650  0.96210  1.0000 0.1387809356
H   H41       1.0  0.62310  0.10660  0.96210  1.0000 0.1387809356
H   H42       1.0  0.48350  0.37690  0.96210  1.0000 0.1387809356
H   H43       1.0  0.51650  0.89340  0.46210  1.0000 0.1387809356
H   H44       1.0  0.10660  0.62310  0.46210  1.0000 0.1387809356
H   H45       1.0  0.37690  0.48350  0.46210  1.0000 0.1387809356
H   H46       1.0  0.10660  0.48350  0.03790  1.0000 0.1387809356
H   H47       1.0  0.37690  0.89340  0.03790  1.0000 0.1387809356
H   H48       1.0  0.51650  0.62310  0.03790  1.0000 0.1387809356
H   H49       1.0  0.47260  0.07960  0.68640  1.0000 0.1387809356
H   H50       1.0  0.92040  0.39300  0.68640  1.0000 0.1387809356
H   H51       1.0  0.60700  0.52740  0.68640  1.0000 0.1387809356
H   H52       1.0  0.92040  0.52740  0.81360  1.0000 0.1387809356
H   H53       1.0  0.60700  0.07960  0.81360  1.0000 0.1387809356
H   H54       1.0  0.47260  0.39300  0.81360  1.0000 0.1387809356
H   H55       1.0  0.52740  0.92040  0.31360  1.0000 0.1387809356
H   H56       1.0  0.07960  0.60700  0.31360  1.0000 0.1387809356
H   H57       1.0  0.39300  0.47260  0.31360  1.0000 0.1387809356
H   H58       1.0  0.07960  0.47260  0.18640  1.0000 0.1387809356
H   H59       1.0  0.39300  0.92040  0.18640  1.0000 0.1387809356
H   H60       1.0  0.52740  0.60700  0.18640  1.0000 0.1387809356
H   H61       1.0  0.28980  0.07190  0.61220  1.0000 0.1451236766
H   H62       1.0  0.92810  0.21790  0.61220  1.0000 0.1451236766
H   H63       1.0  0.78210  0.71020  0.61220  1.0000 0.1387809356
H   H64       1.0  0.92810  0.71020  0.88780  1.0000 0.1451236766
H   H65       1.0  0.78210  0.07190  0.88780  1.0000 0.1451236766
H   H66       1.0  0.28980  0.21790  0.88780  1.0000 0.1451236766
H   H67       1.0  0.71020  0.92810  0.38780  1.0000 0.1451236766
H   H68       1.0  0.07190  0.78210  0.38780  1.0000 0.1451236766
H   H69       1.0  0.21790  0.28980  0.38780  1.0000 0.1451236766
H   H70       1.0  0.07190  0.28980  0.11220  1.0000 0.1451236766
H   H71       1.0  0.21790  0.92810  0.11220  1.0000 0.1451236766
H   H72       1.0  0.71020  0.78210  0.11220  1.0000 0.1387809356
H   H73       1.0  0.26710  0.12890  0.53800  1.0000 0.1387809356
H   H74       1.0  0.87110  0.13820  0.53800  1.0000 0.1387809356
H   H75       1.0  0.86180  0.73290  0.53800  1.0000 0.1387809356
H   H76       1.0  0.87110  0.73290  0.96200  1.0000 0.1387809356
H   H77       1.0  0.86180  0.12890  0.96200  1.0000 0.1387809356
H   H78       1.0  0.26710  0.13820  0.96200  1.0000 0.1387809356
H   H79       1.0  0.73290  0.87110  0.46200  1.0000 0.1387809356
H   H80       1.0  0.12890  0.86180  0.46200  1.0000 0.1387809356
H   H81       1.0  0.13820  0.26710  0.46200  1.0000 0.1387809356
H   H82       1.0  0.12890  0.26710  0.03800  1.0000 0.1387809356
H   H83       1.0  0.13820  0.87110  0.03800  1.0000 0.1387809356
H   H84       1.0  0.73290  0.86180  0.03800  1.0000 0.1387809356
H   H85       1.0  0.22830  0.09900  0.45130  1.0000 0.1206999159
H   H86       1.0  0.90100  0.12930  0.45130  1.0000 0.1206999159
H   H87       1.0  0.87070  0.77170  0.45130  1.0000 0.1206999159
H   H88       1.0  0.90100  0.77170  0.04870  1.0000 0.1206999159
H   H89       1.0  0.87070  0.09900  0.04870  1.0000 0.1206999159
H   H90       1.0  0.22830  0.12930  0.04870  1.0000 0.1206999159
H   H91       1.0  0.77170  0.90100  0.54870  1.0000 0.1206999159
H   H92       1.0  0.09900  0.87070  0.54870  1.0000 0.1206999159
H   H93       1.0  0.12930  0.22830  0.54870  1.0000 0.1206999159
H   H94       1.0  0.09900  0.22830  0.95130  1.0000 0.1206999159
H   H95       1.0  0.12930  0.90100  0.95130  1.0000 0.1206999159
H   H96       1.0  0.77170  0.87070  0.95130  1.0000 0.1206999159
H   H97       1.0  0.38870  0.03940  0.47410  1.0000 0.1017985024
H   H98       1.0  0.96060  0.34930  0.47410  1.0000 0.1017985024
H   H99       1.0  0.65070  0.61130  0.47410  1.0000 0.1017985024
H   H100      1.0  0.96060  0.61130  0.02590  1.0000 0.1017985024
H   H101      1.0  0.65070  0.03940  0.02590  1.0000 0.1017985024
H   H102      1.0  0.38870  0.34930  0.02590  1.0000 0.1017985024
H   H103      1.0  0.61130  0.96060  0.52590  1.0000 0.1017985024
H   H104      1.0  0.03940  0.65070  0.52590  1.0000 0.1017985024
H   H105      1.0  0.34930  0.38870  0.52590  1.0000 0.1017985024
H   H106      1.0  0.03940  0.38870  0.97410  1.0000 0.1017985024
H   H107      1.0  0.34930  0.96060  0.97410  1.0000 0.1017985024
H   H108      1.0  0.61130  0.65070  0.97410  1.0000 0.1017985024
H   H109      1.0  0.63410  0.18850  0.56050  1.0000 0.1333257179
H   H110      1.0  0.81150  0.44560  0.56050  1.0000 0.1333257179
H   H111      1.0  0.55440  0.36590  0.56050  1.0000 0.1333257179
H   H112      1.0  0.81150  0.36590  0.93950  1.0000 0.1333257179
H   H113      1.0  0.55440  0.18850  0.93950  1.0000 0.1333257179
H   H114      1.0  0.63410  0.44560  0.93950  1.0000 0.1333257179
H   H115      1.0  0.36590  0.81150  0.43950  1.0000 0.1333257179
H   H116      1.0  0.18850  0.55440  0.43950  1.0000 0.1387809356
H   H117      1.0  0.44560  0.63410  0.43950  1.0000 0.1333257179
H   H118      1.0  0.18850  0.63410  0.06050  1.0000 0.1387809356
H   H119      1.0  0.44560  0.81150  0.06050  1.0000 0.1387809356
H   H120      1.0  0.36590  0.55440  0.06050  1.0000 0.1387809356
H   H121      1.0  0.73220  0.14680  0.57380  1.0000 0.1206999159
H   H122      1.0  0.85320  0.58540  0.57380  1.0000 0.1206999159
H   H123      1.0  0.41460  0.26780  0.57380  1.0000 0.1206999159
H   H124      1.0  0.85320  0.26780  0.92620  1.0000 0.1206999159
H   H125      1.0  0.41460  0.14680  0.92620  1.0000 0.1206999159
H   H126      1.0  0.73220  0.58540  0.92620  1.0000 0.1206999159
H   H127      1.0  0.26780  0.85320  0.42620  1.0000 0.1206999159
H   H128      1.0  0.14680  0.41460  0.42620  1.0000 0.1206999159
H   H129      1.0  0.58540  0.73220  0.42620  1.0000 0.1206999159
H   H130      1.0  0.14680  0.73220  0.07380  1.0000 0.1206999159
H   H131      1.0  0.58540  0.85320  0.07380  1.0000 0.1206999159
H   H132      1.0  0.26780  0.41460  0.07380  1.0000 0.1206999159
H   H133      1.0  0.54700  0.00560  0.65100  1.0000 0.094345719
H   H134      1.0  0.99440  0.54140  0.65100  1.0000 0.094345719
H   H135      1.0  0.45860  0.45300  0.65100  1.0000 0.094345719
H   H136      1.0  0.99440  0.45300  0.84900  1.0000 0.094345719
H   H137      1.0  0.45860  0.00560  0.84900  1.0000 0.094345719
H   H138      1.0  0.54700  0.54140  0.84900  1.0000 0.094345719
H   H139      1.0  0.45300  0.99440  0.34900  1.0000 0.1017985024
H   H140      1.0  0.00560  0.45860  0.34900  1.0000 0.1017985024
H   H141      1.0  0.54140  0.54700  0.34900  1.0000 0.094345719
H   H142      1.0  0.00560  0.54700  0.15100  1.0000 0.094345719
H   H143      1.0  0.54140  0.99440  0.15100  1.0000 0.1017985024
H   H144      1.0  0.45300  0.45860  0.15100  1.0000 0.094345719
H   H145      1.0  0.20820  0.98460  0.67280  1.0000 0.1128719267
H   H146      1.0  0.01540  0.22360  0.67280  1.0000 0.1128719267
H   H147      1.0  0.77640  0.79180  0.67280  1.0000 0.1128719267
H   H148      1.0  0.01540  0.79180  0.82720  1.0000 0.1128719267
H   H149      1.0  0.77640  0.98460  0.82720  1.0000 0.1128719267
H   H150      1.0  0.20820  0.22360  0.82720  1.0000 0.1128719267
H   H151      1.0  0.79180  0.01540  0.32720  1.0000 0.1128719267
H   H152      1.0  0.98460  0.77640  0.32720  1.0000 0.1128719267
H   H153      1.0  0.22360  0.20820  0.32720  1.0000 0.1128719267
H   H154      1.0  0.98460  0.20820  0.17280  1.0000 0.1128719267
H   H155      1.0  0.22360  0.01540  0.17280  1.0000 0.1128719267
H   H156      1.0  0.79180  0.77640  0.17280  1.0000 0.1128719267
H   H157      1.0  0.16960  0.95820  0.76100  1.0000 0.1128719267
H   H158      1.0  0.04180  0.21140  0.76100  1.0000 0.1128719267
H   H159      1.0  0.78860  0.83040  0.76100  1.0000 0.1128719267
H   H160      1.0  0.04180  0.83040  0.73900  1.0000 0.1128719267
H   H161      1.0  0.78860  0.95820  0.73900  1.0000 0.1128719267
H   H162      1.0  0.16960  0.21140  0.73900  1.0000 0.1128719267
H   H163      1.0  0.83040  0.04180  0.23900  1.0000 0.1128719267
H   H164      1.0  0.95820  0.78860  0.23900  1.0000 0.1128719267
H   H165      1.0  0.21140  0.16960  0.23900  1.0000 0.1128719267
H   H166      1.0  0.95820  0.16960  0.26100  1.0000 0.1128719267
H   H167      1.0  0.21140  0.04180  0.26100  1.0000 0.1128719267
H   H168      1.0  0.83040  0.78860  0.26100  1.0000 0.1128719267
H   H169      1.0  0.39490  0.04940  0.75450  1.0000 0.1128719267
H   H170      1.0  0.95060  0.34550  0.75450  1.0000 0.1128719267
H   H171      1.0  0.65450  0.60510  0.75450  1.0000 0.1128719267
H   H172      1.0  0.95060  0.60510  0.74550  1.0000 0.1128719267
H   H173      1.0  0.65450  0.04940  0.74550  1.0000 0.1128719267
H   H174      1.0  0.39490  0.34550  0.74550  1.0000 0.1128719267
H   H175      1.0  0.60510  0.95060  0.24550  1.0000 0.1128719267
H   H176      1.0  0.04940  0.65450  0.24550  1.0000 0.1128719267
H   H177      1.0  0.34550  0.39490  0.24550  1.0000 0.1128719267
H   H178      1.0  0.04940  0.39490  0.25450  1.0000 0.1128719267
H   H179      1.0  0.34550  0.95060  0.25450  1.0000 0.1128719267
H   H180      1.0  0.60510  0.65450  0.25450  1.0000 0.1128719267
H   H181      1.0  0.58530  0.38810  0.32090  1.0000 0.1333257179
H   H182      1.0  0.61190  0.19720  0.32090  1.0000 0.1333257179
H   H183      1.0  0.80280  0.41470  0.32090  1.0000 0.1333257179
H   H184      1.0  0.61190  0.41470  0.17910  1.0000 0.1333257179
H   H185      1.0  0.80280  0.38810  0.17910  1.0000 0.1333257179
H   H186      1.0  0.58530  0.19720  0.17910  1.0000 0.1333257179
H   H187      1.0  0.41470  0.61190  0.67910  1.0000 0.1333257179
H   H188      1.0  0.38810  0.80280  0.67910  1.0000 0.1333257179
H   H189      1.0  0.19720  0.58530  0.67910  1.0000 0.1333257179
H   H190      1.0  0.38810  0.58530  0.82090  1.0000 0.1333257179
H   H191      1.0  0.19720  0.61190  0.82090  1.0000 0.1333257179
H   H192      1.0  0.41470  0.80280  0.82090  1.0000 0.1333257179
H   H193      1.0  0.45720  0.29860  0.28890  1.0000 0.1206999159
H   H194      1.0  0.70140  0.15860  0.28890  1.0000 0.1206999159
H   H195      1.0  0.84140  0.54280  0.28890  1.0000 0.1206999159
H   H196      1.0  0.70140  0.54280  0.21110  1.0000 0.1206999159
H   H197      1.0  0.84140  0.29860  0.21110  1.0000 0.1206999159
H   H198      1.0  0.45720  0.15860  0.21110  1.0000 0.1206999159
H   H199      1.0  0.54280  0.70140  0.71110  1.0000 0.1206999159
H   H200      1.0  0.29860  0.84140  0.71110  1.0000 0.1206999159
H   H201      1.0  0.15860  0.45720  0.71110  1.0000 0.1206999159
H   H202      1.0  0.29860  0.45720  0.78890  1.0000 0.1206999159
H   H203      1.0  0.15860  0.70140  0.78890  1.0000 0.1206999159
H   H204      1.0  0.54280  0.84140  0.78890  1.0000 0.1206999159
H   H205      1.0  0.32780  0.18420  0.31340  1.0000 0.1128719267
H   H206      1.0  0.81580  0.14360  0.31340  1.0000 0.1128719267
H   H207      1.0  0.85640  0.67220  0.31340  1.0000 0.1128719267
H   H208      1.0  0.81580  0.67220  0.18660  1.0000 0.1128719267
H   H209      1.0  0.85640  0.18420  0.18660  1.0000 0.1128719267
H   H210      1.0  0.32780  0.14360  0.18660  1.0000 0.1128719267
H   H211      1.0  0.67220  0.81580  0.68660  1.0000 0.1128719267
H   H212      1.0  0.18420  0.85640  0.68660  1.0000 0.1128719267
H   H213      1.0  0.14360  0.32780  0.68660  1.0000 0.1128719267
H   H214      1.0  0.18420  0.32780  0.81340  1.0000 0.1128719267
H   H215      1.0  0.14360  0.81580  0.81340  1.0000 0.1128719267
H   H216      1.0  0.67220  0.85640  0.81340  1.0000 0.1128719267
H   H217      1.0  0.48890  0.13330  0.34820  1.0000 0.1017985024
H   H218      1.0  0.86670  0.35560  0.34820  1.0000 0.1017985024
H   H219      1.0  0.64440  0.51110  0.34820  1.0000 0.1017985024
H   H220      1.0  0.86670  0.51110  0.15180  1.0000 0.1017985024
H   H221      1.0  0.64440  0.13330  0.15180  1.0000 0.1017985024
H   H222      1.0  0.48890  0.35560  0.15180  1.0000 0.1017985024
H   H223      1.0  0.51110  0.86670  0.65180  1.0000 0.1017985024
H   H224      1.0  0.13330  0.64440  0.65180  1.0000 0.1017985024
H   H225      1.0  0.35560  0.48890  0.65180  1.0000 0.1017985024
H   H226      1.0  0.13330  0.48890  0.84820  1.0000 0.1017985024
H   H227      1.0  0.35560  0.86670  0.84820  1.0000 0.1017985024
H   H228      1.0  0.51110  0.64440  0.84820  1.0000 0.1017985024
H   H229      1.0  0.26800  0.11910  0.68990  1.0000 0.0803085502
H   H230      1.0  0.88090  0.14890  0.68990  1.0000 0.0803085502
H   H231      1.0  0.85110  0.73200  0.68990  1.0000 0.0803085502
H   H232      1.0  0.88090  0.73200  0.81010  1.0000 0.0803085502
H   H233      1.0  0.85110  0.11910  0.81010  1.0000 0.0803085502
H   H234      1.0  0.26800  0.14890  0.81010  1.0000 0.0803085502
H   H235      1.0  0.73200  0.88090  0.31010  1.0000 0.0803085502
H   H236      1.0  0.11910  0.85110  0.31010  1.0000 0.0803085502
H   H237      1.0  0.14890  0.26800  0.31010  1.0000 0.0803085502
H   H238      1.0  0.11910  0.26800  0.18990  1.0000 0.0803085502
H   H239      1.0  0.14890  0.88090  0.18990  1.0000 0.0803085502
H   H240      1.0  0.73200  0.85110  0.18990  1.0000 0.0803085502
H   H241      1.0  0.23040  0.08970  0.77730  1.0000 0.0803085502
H   H242      1.0  0.91030  0.14070  0.77730  1.0000 0.0803085502
H   H243      1.0  0.85930  0.76960  0.77730  1.0000 0.0803085502
H   H244      1.0  0.91030  0.76960  0.72270  1.0000 0.0803085502
H   H245      1.0  0.85930  0.08970  0.72270  1.0000 0.0803085502
H   H246      1.0  0.23040  0.14070  0.72270  1.0000 0.0803085502
H   H247      1.0  0.76960  0.91030  0.22270  1.0000 0.0803085502
H   H248      1.0  0.08970  0.85930  0.22270  1.0000 0.0803085502
H   H249      1.0  0.14070  0.23040  0.22270  1.0000 0.0803085502
H   H250      1.0  0.08970  0.23040  0.27730  1.0000 0.0803085502
H   H251      1.0  0.14070  0.91030  0.27730  1.0000 0.0803085502
H   H252      1.0  0.76960  0.85930  0.27730  1.0000 0.0803085502
C   C1        1.0  0.99950  0.92530  0.37434  1.0000 -0.2126060316
C   C2        1.0  0.07470  0.07420  0.37434  1.0000 -0.2126060316
C   C3        1.0  0.92580  0.00050  0.37434  1.0000 -0.2126060316
C   C4        1.0  0.07470  0.00050  0.12566  1.0000 -0.2126060316
C   C5        1.0  0.92580  0.92530  0.12566  1.0000 -0.2126060316
C   C6        1.0  0.99950  0.07420  0.12566  1.0000 -0.2126060316
C   C7        1.0  0.00050  0.07470  0.62566  1.0000 -0.2126060316
C   C8        1.0  0.92530  0.92580  0.62566  1.0000 -0.2126060316
C   C9        1.0  0.07420  0.99950  0.62566  1.0000 -0.2126060316
C   C10       1.0  0.92530  0.99950  0.87434  1.0000 -0.2126060316
C   C11       1.0  0.07420  0.07470  0.87434  1.0000 -0.2126060316
C   C12       1.0  0.00050  0.92580  0.87434  1.0000 -0.2126060316
C   C13       1.0  0.07450  0.99960  0.39157  1.0000 -0.1005655013
C   C14       1.0  0.00040  0.07490  0.39157  1.0000 -0.1005655013
C   C15       1.0  0.92510  0.92550  0.39157  1.0000 -0.1005655013
C   C16       1.0  0.00040  0.92550  0.10843  1.0000 -0.1005655013
C   C17       1.0  0.92510  0.99960  0.10843  1.0000 -0.1005655013
C   C18       1.0  0.07450  0.07490  0.10843  1.0000 -0.1005655013
C   C19       1.0  0.92550  0.00040  0.60843  1.0000 -0.1005655013
C   C20       1.0  0.99960  0.92510  0.60843  1.0000 -0.1005655013
C   C21       1.0  0.07490  0.07450  0.60843  1.0000 -0.1005655013
C   C22       1.0  0.99960  0.07450  0.89157  1.0000 -0.1005655013
C   C23       1.0  0.07490  0.00040  0.89157  1.0000 -0.1005655013
C   C24       1.0  0.92550  0.92510  0.89157  1.0000 -0.1005655013
C   C25       1.0  0.14810  0.99810  0.37529  1.0000 0.5388798626
C   C26       1.0  0.00190  0.15000  0.37529  1.0000 0.5388798626
C   C27       1.0  0.85000  0.85190  0.37529  1.0000 0.5388798626
C   C28       1.0  0.00190  0.85190  0.12471  1.0000 0.5388798626
C   C29       1.0  0.85000  0.99810  0.12471  1.0000 0.5388798626
C   C30       1.0  0.14810  0.15000  0.12471  1.0000 0.5388798626
C   C31       1.0  0.85190  0.00190  0.62471  1.0000 0.5388798626
C   C32       1.0  0.99810  0.85000  0.62471  1.0000 0.5388798626
C   C33       1.0  0.15000  0.14810  0.62471  1.0000 0.5388798626
C   C34       1.0  0.99810  0.14810  0.87529  1.0000 0.5388798626
C   C35       1.0  0.15000  0.00190  0.87529  1.0000 0.5388798626
C   C36       1.0  0.85190  0.85000  0.87529  1.0000 0.5388798626
C   C37       1.0  0.38170  0.08850  0.56840  1.0000 0.20153852
C   C38       1.0  0.91150  0.29320  0.56840  1.0000 0.20153852
C   C39       1.0  0.70680  0.61830  0.56840  1.0000 0.20153852
C   C40       1.0  0.91150  0.61830  0.93160  1.0000 0.20153852
C   C41       1.0  0.70680  0.08850  0.93160  1.0000 0.20153852
C   C42       1.0  0.38170  0.29320  0.93160  1.0000 0.20153852
C   C43       1.0  0.61830  0.91150  0.43160  1.0000 0.20153852
C   C44       1.0  0.08850  0.70680  0.43160  1.0000 0.20153852
C   C45       1.0  0.29320  0.38170  0.43160  1.0000 0.20153852
C   C46       1.0  0.08850  0.38170  0.06840  1.0000 0.20153852
C   C47       1.0  0.29320  0.91150  0.06840  1.0000 0.20153852
C   C48       1.0  0.61830  0.70680  0.06840  1.0000 0.20153852
C   C49       1.0  0.45610  0.09790  0.56760  1.0000 -0.2612287342
C   C50       1.0  0.90210  0.35820  0.56760  1.0000 -0.2612287342
C   C51       1.0  0.64180  0.54390  0.56760  1.0000 -0.2612287342
C   C52       1.0  0.90210  0.54390  0.93240  1.0000 -0.2612287342
C   C53       1.0  0.64180  0.09790  0.93240  1.0000 -0.2612287342
C   C54       1.0  0.45610  0.35820  0.93240  1.0000 -0.2612287342
C   C55       1.0  0.54390  0.90210  0.43240  1.0000 -0.2612287342
C   C56       1.0  0.09790  0.64180  0.43240  1.0000 -0.2612287342
C   C57       1.0  0.35820  0.45610  0.43240  1.0000 -0.2612287342
C   C58       1.0  0.09790  0.45610  0.06760  1.0000 -0.2612287342
C   C59       1.0  0.35820  0.90210  0.06760  1.0000 -0.2612287342
C   C60       1.0  0.54390  0.64180  0.06760  1.0000 -0.2612287342
C   C61       1.0  0.48920  0.09410  0.61247  1.0000 0.20153852
C   C62       1.0  0.90590  0.39510  0.61247  1.0000 0.20153852
C   C63       1.0  0.60490  0.51080  0.61247  1.0000 0.20153852
C   C64       1.0  0.90590  0.51080  0.88753  1.0000 0.20153852
C   C65       1.0  0.60490  0.09410  0.88753  1.0000 0.20153852
C   C66       1.0  0.48920  0.39510  0.88753  1.0000 0.20153852
C   C67       1.0  0.51080  0.90590  0.38753  1.0000 0.20153852
C   C68       1.0  0.09410  0.60490  0.38753  1.0000 0.20153852
C   C69       1.0  0.39510  0.48920  0.38753  1.0000 0.20153852
C   C70       1.0  0.09410  0.48920  0.11247  1.0000 0.20153852
C   C71       1.0  0.39510  0.90590  0.11247  1.0000 0.20153852
C   C72       1.0  0.51080  0.60490  0.11247  1.0000 0.20153852
C   C73       1.0  0.44960  0.08190  0.65666  1.0000 -0.2539911756
C   C74       1.0  0.91810  0.36770  0.65666  1.0000 -0.2539911756
C   C75       1.0  0.63230  0.55040  0.65666  1.0000 -0.2539911756
C   C76       1.0  0.91810  0.55040  0.84334  1.0000 -0.2539911756
C   C77       1.0  0.63230  0.08190  0.84334  1.0000 -0.2539911756
C   C78       1.0  0.44960  0.36770  0.84334  1.0000 -0.2539911756
C   C79       1.0  0.55040  0.91810  0.34334  1.0000 -0.2539911756
C   C80       1.0  0.08190  0.63230  0.34334  1.0000 -0.2539911756
C   C81       1.0  0.36770  0.44960  0.34334  1.0000 -0.2539911756
C   C82       1.0  0.08190  0.44960  0.15666  1.0000 -0.2539911756
C   C83       1.0  0.36770  0.91810  0.15666  1.0000 -0.2539911756
C   C84       1.0  0.55040  0.63230  0.15666  1.0000 -0.2539911756
C   C85       1.0  0.37490  0.07320  0.65621  1.0000 0.1793246554
C   C86       1.0  0.92680  0.30170  0.65621  1.0000 0.1793246554
C   C87       1.0  0.69830  0.62510  0.65621  1.0000 0.1793246554
C   C88       1.0  0.92680  0.62510  0.84379  1.0000 0.1793246554
C   C89       1.0  0.69830  0.07320  0.84379  1.0000 0.1793246554
C   C90       1.0  0.37490  0.30170  0.84379  1.0000 0.1793246554
C   C91       1.0  0.62510  0.92680  0.34379  1.0000 0.1793246554
C   C92       1.0  0.07320  0.69830  0.34379  1.0000 0.1793246554
C   C93       1.0  0.30170  0.37490  0.34379  1.0000 0.1793246554
C   C94       1.0  0.07320  0.37490  0.15621  1.0000 0.1793246554
C   C95       1.0  0.30170  0.92680  0.15621  1.0000 0.1793246554
C   C96       1.0  0.62510  0.69830  0.15621  1.0000 0.1793246554
C   C97       1.0  0.33960  0.07690  0.61224  1.0000 -0.2612287342
C   C98       1.0  0.92310  0.26270  0.61224  1.0000 -0.2612287342
C   C99       1.0  0.73730  0.66040  0.61224  1.0000 -0.2612287342
C   C100      1.0  0.92310  0.66040  0.88776  1.0000 -0.2612287342
C   C101      1.0  0.73730  0.07690  0.88776  1.0000 -0.2612287342
C   C102      1.0  0.33960  0.26270  0.88776  1.0000 -0.2612287342
C   C103      1.0  0.66040  0.92310  0.38776  1.0000 -0.2612287342
C   C104      1.0  0.07690  0.73730  0.38776  1.0000 -0.2612287342
C   C105      1.0  0.26270  0.33960  0.38776  1.0000 -0.2612287342
C   C106      1.0  0.07690  0.33960  0.11224  1.0000 -0.2612287342
C   C107      1.0  0.26270  0.92310  0.11224  1.0000 -0.2612287342
C   C108      1.0  0.66040  0.73730  0.11224  1.0000 -0.2612287342
C   C109      1.0  0.28660  0.10750  0.51495  1.0000 -0.1122150249
C   C110      1.0  0.89250  0.17910  0.51495  1.0000 -0.1122150249
C   C111      1.0  0.82090  0.71340  0.51495  1.0000 -0.1122150249
C   C112      1.0  0.89250  0.71340  0.98505  1.0000 -0.1122150249
C   C113      1.0  0.82090  0.10750  0.98505  1.0000 -0.1122150249
C   C114      1.0  0.28660  0.17910  0.98505  1.0000 -0.1122150249
C   C115      1.0  0.71340  0.89250  0.48505  1.0000 -0.1122150249
C   C116      1.0  0.10750  0.82090  0.48505  1.0000 -0.1122150249
C   C117      1.0  0.17910  0.28660  0.48505  1.0000 -0.1122150249
C   C118      1.0  0.10750  0.28660  0.01495  1.0000 -0.1122150249
C   C119      1.0  0.17910  0.89250  0.01495  1.0000 -0.1122150249
C   C120      1.0  0.71340  0.82090  0.01495  1.0000 -0.1122150249
C   C121      1.0  0.26580  0.09060  0.46703  1.0000 -0.0373853188
C   C122      1.0  0.90940  0.17520  0.46703  1.0000 -0.0373853188
C   C123      1.0  0.82480  0.73420  0.46703  1.0000 -0.0373853188
C   C124      1.0  0.90940  0.73420  0.03297  1.0000 -0.0373853188
C   C125      1.0  0.82480  0.09060  0.03297  1.0000 -0.0373853188
C   C126      1.0  0.26580  0.17520  0.03297  1.0000 -0.0373853188
C   C127      1.0  0.73420  0.90940  0.53297  1.0000 -0.0373853188
C   C128      1.0  0.09060  0.82480  0.53297  1.0000 -0.0373853188
C   C129      1.0  0.17520  0.26580  0.53297  1.0000 -0.0373853188
C   C130      1.0  0.09060  0.26580  0.96703  1.0000 -0.0373853188
C   C131      1.0  0.17520  0.90940  0.96703  1.0000 -0.0373853188
C   C132      1.0  0.73420  0.82480  0.96703  1.0000 -0.0373853188
C   C133      1.0  0.35350  0.05760  0.47880  1.0000 0.0803085502
C   C134      1.0  0.94240  0.29590  0.47880  1.0000 0.0803085502
C   C135      1.0  0.70410  0.64650  0.47880  1.0000 0.0803085502
C   C136      1.0  0.94240  0.64650  0.02120  1.0000 0.0803085502
C   C137      1.0  0.70410  0.05760  0.02120  1.0000 0.0803085502
C   C138      1.0  0.35350  0.29590  0.02120  1.0000 0.0803085502
C   C139      1.0  0.64650  0.94240  0.52120  1.0000 0.0803085502
C   C140      1.0  0.05760  0.70410  0.52120  1.0000 0.0803085502
C   C141      1.0  0.29590  0.35350  0.52120  1.0000 0.0803085502
C   C142      1.0  0.05760  0.35350  0.97880  1.0000 0.0803085502
C   C143      1.0  0.29590  0.94240  0.97880  1.0000 0.0803085502
C   C144      1.0  0.64650  0.70410  0.97880  1.0000 0.0803085502
C   C145      1.0  0.62910  0.14840  0.58140  1.0000 -0.1005655013
C   C146      1.0  0.85160  0.48070  0.58140  1.0000 -0.1005655013
C   C147      1.0  0.51930  0.37090  0.58140  1.0000 -0.1005655013
C   C148      1.0  0.85160  0.37090  0.91860  1.0000 -0.1005655013
C   C149      1.0  0.51930  0.14840  0.91860  1.0000 -0.1005655013
C   C150      1.0  0.62910  0.48070  0.91860  1.0000 -0.1005655013
C   C151      1.0  0.37090  0.85160  0.41860  1.0000 -0.1005655013
C   C152      1.0  0.14840  0.51930  0.41860  1.0000 -0.1005655013
C   C153      1.0  0.48070  0.62910  0.41860  1.0000 -0.1005655013
C   C154      1.0  0.14840  0.62910  0.08140  1.0000 -0.1005655013
C   C155      1.0  0.48070  0.85160  0.08140  1.0000 -0.1005655013
C   C156      1.0  0.37090  0.51930  0.08140  1.0000 -0.1005655013
C   C157      1.0  0.68300  0.12460  0.58900  1.0000 -0.0373853188
C   C158      1.0  0.87540  0.55840  0.58900  1.0000 -0.0348173742
C   C159      1.0  0.44160  0.31700  0.58900  1.0000 -0.0373853188
C   C160      1.0  0.87540  0.31700  0.91100  1.0000 -0.0348173742
C   C161      1.0  0.44160  0.12460  0.91100  1.0000 -0.0348173742
C   C162      1.0  0.68300  0.55840  0.91100  1.0000 -0.0348173742
C   C163      1.0  0.31700  0.87540  0.41100  1.0000 -0.0373853188
C   C164      1.0  0.12460  0.44160  0.41100  1.0000 -0.0373853188
C   C165      1.0  0.55840  0.68300  0.41100  1.0000 -0.0373853188
C   C166      1.0  0.12460  0.68300  0.08900  1.0000 -0.0373853188
C   C167      1.0  0.55840  0.87540  0.08900  1.0000 -0.0373853188
C   C168      1.0  0.31700  0.44160  0.08900  1.0000 -0.0373853188
C   C169      1.0  0.58220  0.04830  0.63170  1.0000 0.0803085502
C   C170      1.0  0.95170  0.53390  0.63170  1.0000 0.0803085502
C   C171      1.0  0.46610  0.41780  0.63170  1.0000 0.0803085502
C   C172      1.0  0.95170  0.41780  0.86830  1.0000 0.0803085502
C   C173      1.0  0.46610  0.04830  0.86830  1.0000 0.0803085502
C   C174      1.0  0.58220  0.53390  0.86830  1.0000 0.0803085502
C   C175      1.0  0.41780  0.95170  0.36830  1.0000 0.0803085502
C   C176      1.0  0.04830  0.46610  0.36830  1.0000 0.0803085502
C   C177      1.0  0.53390  0.58220  0.36830  1.0000 0.0803085502
C   C178      1.0  0.04830  0.58220  0.13170  1.0000 0.0803085502
C   C179      1.0  0.53390  0.95170  0.13170  1.0000 0.0803085502
C   C180      1.0  0.41780  0.46610  0.13170  1.0000 0.0803085502
C   C181      1.0  0.24120  0.00320  0.70040  1.0000 -0.078899267
C   C182      1.0  0.99680  0.23800  0.70040  1.0000 -0.078899267
C   C183      1.0  0.76200  0.75880  0.70040  1.0000 -0.078899267
C   C184      1.0  0.99680  0.75880  0.79960  1.0000 -0.078899267
C   C185      1.0  0.76200  0.00320  0.79960  1.0000 -0.078899267
C   C186      1.0  0.24120  0.23800  0.79960  1.0000 -0.078899267
C   C187      1.0  0.75880  0.99680  0.29960  1.0000 -0.078899267
C   C188      1.0  0.00320  0.76200  0.29960  1.0000 -0.078899267
C   C189      1.0  0.23800  0.24120  0.29960  1.0000 -0.078899267
C   C190      1.0  0.00320  0.24120  0.20040  1.0000 -0.078899267
C   C191      1.0  0.23800  0.99680  0.20040  1.0000 -0.078899267
C   C192      1.0  0.75880  0.76200  0.20040  1.0000 -0.078899267
C   C193      1.0  0.22070  0.98870  0.74870  1.0000 -0.0544532005
C   C194      1.0  0.01130  0.23200  0.74870  1.0000 -0.0544532005
C   C195      1.0  0.76800  0.77930  0.74870  1.0000 -0.0544532005
C   C196      1.0  0.01130  0.77930  0.75130  1.0000 -0.0544532005
C   C197      1.0  0.76800  0.98870  0.75130  1.0000 -0.0544532005
C   C198      1.0  0.22070  0.23200  0.75130  1.0000 -0.0544532005
C   C199      1.0  0.77930  0.01130  0.25130  1.0000 -0.0544532005
C   C200      1.0  0.98870  0.76800  0.25130  1.0000 -0.0544532005
C   C201      1.0  0.23200  0.22070  0.25130  1.0000 -0.0544532005
C   C202      1.0  0.98870  0.22070  0.24870  1.0000 -0.0544532005
C   C203      1.0  0.23200  0.01130  0.24870  1.0000 -0.0544532005
C   C204      1.0  0.77930  0.76800  0.24870  1.0000 -0.0544532005
C   C205      1.0  0.34700  0.04590  0.74649  1.0000 0.0089186554
C   C206      1.0  0.95410  0.30110  0.74649  1.0000 0.0089186554
C   C207      1.0  0.69890  0.65300  0.74649  1.0000 0.0089186554
C   C208      1.0  0.95410  0.65300  0.75351  1.0000 0.0089186554
C   C209      1.0  0.69890  0.04590  0.75351  1.0000 0.0089186554
C   C210      1.0  0.34700  0.30110  0.75351  1.0000 0.0089186554
C   C211      1.0  0.65300  0.95410  0.25351  1.0000 0.0089186554
C   C212      1.0  0.04590  0.69890  0.25351  1.0000 0.0089186554
C   C213      1.0  0.30110  0.34700  0.25351  1.0000 0.0089186554
C   C214      1.0  0.04590  0.34700  0.24649  1.0000 0.0089186554
C   C215      1.0  0.30110  0.95410  0.24649  1.0000 0.0089186554
C   C216      1.0  0.65300  0.69890  0.24649  1.0000 0.0089186554
C   C217      1.0  0.61780  0.36610  0.32230  1.0000 -0.2807881424
C   C218      1.0  0.63390  0.25170  0.32230  1.0000 -0.2807881424
C   C219      1.0  0.74830  0.38220  0.32230  1.0000 -0.2807881424
C   C220      1.0  0.63390  0.38220  0.17770  1.0000 -0.2807881424
C   C221      1.0  0.74830  0.36610  0.17770  1.0000 -0.2807881424
C   C222      1.0  0.61780  0.25170  0.17770  1.0000 -0.2807881424
C   C223      1.0  0.38220  0.63390  0.67770  1.0000 -0.2807881424
C   C224      1.0  0.36610  0.74830  0.67770  1.0000 -0.2807881424
C   C225      1.0  0.25170  0.61780  0.67770  1.0000 -0.2807881424
C   C226      1.0  0.36610  0.61780  0.82230  1.0000 -0.2807881424
C   C227      1.0  0.25170  0.63390  0.82230  1.0000 -0.2807881424
C   C228      1.0  0.38220  0.74830  0.82230  1.0000 -0.2807881424
C   C229      1.0  0.58600  0.28550  0.32330  1.0000 0.20153852
C   C230      1.0  0.71450  0.30050  0.32330  1.0000 0.20153852
C   C231      1.0  0.69950  0.41400  0.32330  1.0000 0.20153852
C   C232      1.0  0.71450  0.41400  0.17670  1.0000 0.20153852
C   C233      1.0  0.69950  0.28550  0.17670  1.0000 0.20153852
C   C234      1.0  0.58600  0.30050  0.17670  1.0000 0.20153852
C   C235      1.0  0.41400  0.71450  0.67670  1.0000 0.20153852
C   C236      1.0  0.28550  0.69950  0.67670  1.0000 0.20153852
C   C237      1.0  0.30050  0.58600  0.67670  1.0000 0.20153852
C   C238      1.0  0.28550  0.58600  0.82330  1.0000 0.20153852
C   C239      1.0  0.30050  0.71450  0.82330  1.0000 0.20153852
C   C240      1.0  0.41400  0.69950  0.82330  1.0000 0.20153852
C   C241      1.0  0.44830  0.25320  0.30550  1.0000 -0.1122150249
C   C242      1.0  0.74680  0.19510  0.30550  1.0000 -0.1122150249
C   C243      1.0  0.80490  0.55170  0.30550  1.0000 -0.1122150249
C   C244      1.0  0.74680  0.55170  0.19450  1.0000 -0.1122150249
C   C245      1.0  0.80490  0.25320  0.19450  1.0000 -0.1122150249
C   C246      1.0  0.44830  0.19510  0.19450  1.0000 -0.1122150249
C   C247      1.0  0.55170  0.74680  0.69450  1.0000 -0.1122150249
C   C248      1.0  0.25320  0.80490  0.69450  1.0000 -0.1122150249
C   C249      1.0  0.19510  0.44830  0.69450  1.0000 -0.1122150249
C   C250      1.0  0.25320  0.44830  0.80550  1.0000 -0.1122150249
C   C251      1.0  0.19510  0.74680  0.80550  1.0000 -0.1122150249
C   C252      1.0  0.55170  0.80490  0.80550  1.0000 -0.1122150249
C   C253      1.0  0.37670  0.18800  0.31770  1.0000 -0.0223539116
C   C254      1.0  0.81200  0.18870  0.31770  1.0000 -0.0223539116
C   C255      1.0  0.81130  0.62330  0.31770  1.0000 -0.0223539116
C   C256      1.0  0.81200  0.62330  0.18230  1.0000 -0.0223539116
C   C257      1.0  0.81130  0.18800  0.18230  1.0000 -0.0223539116
C   C258      1.0  0.37670  0.18870  0.18230  1.0000 -0.0223539116
C   C259      1.0  0.62330  0.81200  0.68230  1.0000 -0.0223539116
C   C260      1.0  0.18800  0.81130  0.68230  1.0000 -0.0223539116
C   C261      1.0  0.18870  0.37670  0.68230  1.0000 -0.0223539116
C   C262      1.0  0.18800  0.37670  0.81770  1.0000 -0.0223539116
C   C263      1.0  0.18870  0.81200  0.81770  1.0000 -0.0223539116
C   C264      1.0  0.62330  0.81130  0.81770  1.0000 -0.0223539116
C   C265      1.0  0.46420  0.16100  0.33800  1.0000 0.0803085502
C   C266      1.0  0.83900  0.30320  0.33800  1.0000 0.0803085502
C   C267      1.0  0.69680  0.53580  0.33800  1.0000 0.0803085502
C   C268      1.0  0.83900  0.53580  0.16200  1.0000 0.0803085502
C   C269      1.0  0.69680  0.16100  0.16200  1.0000 0.0803085502
C   C270      1.0  0.46420  0.30320  0.16200  1.0000 0.0803085502
C   C271      1.0  0.53580  0.83900  0.66200  1.0000 0.0803085502
C   C272      1.0  0.16100  0.69680  0.66200  1.0000 0.0803085502
C   C273      1.0  0.30320  0.46420  0.66200  1.0000 0.0803085502
C   C274      1.0  0.16100  0.46420  0.83800  1.0000 0.0803085502
C   C275      1.0  0.30320  0.83900  0.83800  1.0000 0.0803085502
C   C276      1.0  0.53580  0.69680  0.83800  1.0000 0.0803085502
C   C277      1.0  0.28200  0.09120  0.71170  1.0000 -0.0880759428
C   C278      1.0  0.90880  0.19080  0.71170  1.0000 -0.0880759428
C   C279      1.0  0.80920  0.71800  0.71170  1.0000 -0.0880759428
C   C280      1.0  0.90880  0.71800  0.78830  1.0000 -0.0880759428
C   C281      1.0  0.80920  0.09120  0.78830  1.0000 -0.0880759428
C   C282      1.0  0.28200  0.19080  0.78830  1.0000 -0.0880759428
C   C283      1.0  0.71800  0.90880  0.28830  1.0000 -0.0880759428
C   C284      1.0  0.09120  0.80920  0.28830  1.0000 -0.0880759428
C   C285      1.0  0.19080  0.28200  0.28830  1.0000 -0.0880759428
C   C286      1.0  0.09120  0.28200  0.21170  1.0000 -0.0880759428
C   C287      1.0  0.19080  0.90880  0.21170  1.0000 -0.0880759428
C   C288      1.0  0.71800  0.80920  0.21170  1.0000 -0.0880759428
C   C289      1.0  0.26150  0.07450  0.75960  1.0000 -0.0593883394
C   C290      1.0  0.92550  0.18700  0.75960  1.0000 -0.0593883394
C   C291      1.0  0.81300  0.73850  0.75960  1.0000 -0.0593883394
C   C292      1.0  0.92550  0.73850  0.74040  1.0000 -0.0593883394
C   C293      1.0  0.81300  0.07450  0.74040  1.0000 -0.0593883394
C   C294      1.0  0.26150  0.18700  0.74040  1.0000 -0.0593883394
C   C295      1.0  0.73850  0.92550  0.24040  1.0000 -0.0593883394
C   C296      1.0  0.07450  0.81300  0.24040  1.0000 -0.0593883394
C   C297      1.0  0.18700  0.26150  0.24040  1.0000 -0.0593883394
C   C298      1.0  0.07450  0.26150  0.25960  1.0000 -0.0593883394
C   C299      1.0  0.18700  0.92550  0.25960  1.0000 -0.0593883394
C   C300      1.0  0.73850  0.81300  0.25960  1.0000 -0.0593883394
N   N1        1.0  0.30720  0.05930  0.44402  1.0000 -0.2807881424
N   N2        1.0  0.94070  0.24790  0.44402  1.0000 -0.2807881424
N   N3        1.0  0.75210  0.69280  0.44402  1.0000 -0.2807881424
N   N4        1.0  0.94070  0.69280  0.05598  1.0000 -0.2807881424
N   N5        1.0  0.75210  0.05930  0.05598  1.0000 -0.2807881424
N   N6        1.0  0.30720  0.24790  0.05598  1.0000 -0.2807881424
N   N7        1.0  0.69280  0.94070  0.55598  1.0000 -0.2807881424
N   N8        1.0  0.05930  0.75210  0.55598  1.0000 -0.2807881424
N   N9        1.0  0.24790  0.30720  0.55598  1.0000 -0.2807881424
N   N10       1.0  0.05930  0.30720  0.94402  1.0000 -0.2807881424
N   N11       1.0  0.24790  0.94070  0.94402  1.0000 -0.2807881424
N   N12       1.0  0.69280  0.75210  0.94402  1.0000 -0.2807881424
N   N13       1.0  0.34310  0.08600  0.52248  1.0000 0.0089186554
N   N14       1.0  0.91400  0.25710  0.52248  1.0000 0.0049620598
N   N15       1.0  0.74290  0.65690  0.52248  1.0000 0.0049620598
N   N16       1.0  0.91400  0.65690  0.97752  1.0000 0.0089186554
N   N17       1.0  0.74290  0.08600  0.97752  1.0000 0.0089186554
N   N18       1.0  0.34310  0.25710  0.97752  1.0000 0.0089186554
N   N19       1.0  0.65690  0.91400  0.47752  1.0000 0.0049620598
N   N20       1.0  0.08600  0.74290  0.47752  1.0000 0.0089186554
N   N21       1.0  0.25710  0.34310  0.47752  1.0000 0.0089186554
N   N22       1.0  0.08600  0.34310  0.02248  1.0000 0.0049620598
N   N23       1.0  0.25710  0.91400  0.02248  1.0000 0.0049620598
N   N24       1.0  0.65690  0.74290  0.02248  1.0000 0.0089186554
N   N25       1.0  0.65480  0.06460  0.62154  1.0000 -0.291186421
N   N26       1.0  0.93540  0.59020  0.62154  1.0000 -0.291186421
N   N27       1.0  0.40980  0.34520  0.62154  1.0000 -0.291186421
N   N28       1.0  0.93540  0.34520  0.87846  1.0000 -0.291186421
N   N29       1.0  0.40980  0.06460  0.87846  1.0000 -0.291186421
N   N30       1.0  0.65480  0.59020  0.87846  1.0000 -0.291186421
N   N31       1.0  0.34520  0.93540  0.37846  1.0000 -0.291186421
N   N32       1.0  0.06460  0.40980  0.37846  1.0000 -0.291186421
N   N33       1.0  0.59020  0.65480  0.37846  1.0000 -0.291186421
N   N34       1.0  0.06460  0.65480  0.12154  1.0000 -0.291186421
N   N35       1.0  0.59020  0.93540  0.12154  1.0000 -0.291186421
N   N36       1.0  0.34520  0.40980  0.12154  1.0000 -0.291186421
N   N37       1.0  0.56520  0.09980  0.61142  1.0000 0.0183945921
N   N38       1.0  0.90020  0.46540  0.61142  1.0000 0.0183945921
N   N39       1.0  0.53460  0.43480  0.61142  1.0000 0.0183945921
N   N40       1.0  0.90020  0.43480  0.88858  1.0000 0.0183945921
N   N41       1.0  0.53460  0.09980  0.88858  1.0000 0.0183945921
N   N42       1.0  0.56520  0.46540  0.88858  1.0000 0.0183945921
N   N43       1.0  0.43480  0.90020  0.38858  1.0000 0.0183945921
N   N44       1.0  0.09980  0.53460  0.38858  1.0000 0.0183945921
N   N45       1.0  0.46540  0.56520  0.38858  1.0000 0.0183945921
N   N46       1.0  0.09980  0.56520  0.11142  1.0000 0.0183945921
N   N47       1.0  0.46540  0.90020  0.11142  1.0000 0.0183945921
N   N48       1.0  0.43480  0.53460  0.11142  1.0000 0.0183945921
N   N49       1.0  0.29440  0.03030  0.77921  1.0000 -0.1767163676
N   N50       1.0  0.96970  0.26410  0.77921  1.0000 -0.1767163676
N   N51       1.0  0.73590  0.70560  0.77921  1.0000 -0.1767163676
N   N52       1.0  0.96970  0.70560  0.72079  1.0000 -0.1767163676
N   N53       1.0  0.73590  0.03030  0.72079  1.0000 -0.1767163676
N   N54       1.0  0.29440  0.26410  0.72079  1.0000 -0.1767163676
N   N55       1.0  0.70560  0.96970  0.22079  1.0000 -0.1767163676
N   N56       1.0  0.03030  0.73590  0.22079  1.0000 -0.1767163676
N   N57       1.0  0.26410  0.29440  0.22079  1.0000 -0.1767163676
N   N58       1.0  0.03030  0.29440  0.27921  1.0000 -0.1767163676
N   N59       1.0  0.26410  0.96970  0.27921  1.0000 -0.1767163676
N   N60       1.0  0.70560  0.73590  0.27921  1.0000 -0.1767163676
N   N61       1.0  0.33040  0.05670  0.70088  1.0000 0.0183945921
N   N62       1.0  0.94330  0.27370  0.70088  1.0000 0.0183945921
N   N63       1.0  0.72630  0.66960  0.70088  1.0000 0.0183945921
N   N64       1.0  0.94330  0.66960  0.79912  1.0000 0.0183945921
N   N65       1.0  0.72630  0.05670  0.79912  1.0000 0.0183945921
N   N66       1.0  0.33040  0.27370  0.79912  1.0000 0.0183945921
N   N67       1.0  0.66960  0.94330  0.29912  1.0000 0.0183945921
N   N68       1.0  0.05670  0.72630  0.29912  1.0000 0.0183945921
N   N69       1.0  0.27370  0.33040  0.29912  1.0000 0.0183945921
N   N70       1.0  0.05670  0.33040  0.20088  1.0000 0.0183945921
N   N71       1.0  0.27370  0.94330  0.20088  1.0000 0.0183945921
N   N72       1.0  0.66960  0.72630  0.20088  1.0000 0.0183945921
N   N73       1.0  0.38800  0.13020  0.33680  1.0000 -0.2807881424
N   N74       1.0  0.86980  0.25780  0.33680  1.0000 -0.2807881424
N   N75       1.0  0.74220  0.61200  0.33680  1.0000 -0.2807881424
N   N76       1.0  0.86980  0.61200  0.16320  1.0000 -0.2807881424
N   N77       1.0  0.74220  0.13020  0.16320  1.0000 -0.2807881424
N   N78       1.0  0.38800  0.25780  0.16320  1.0000 -0.2807881424
N   N79       1.0  0.61200  0.86980  0.66320  1.0000 -0.2807881424
N   N80       1.0  0.13020  0.74220  0.66320  1.0000 -0.2807881424
N   N81       1.0  0.25780  0.38800  0.66320  1.0000 -0.2807881424
N   N82       1.0  0.13020  0.38800  0.83680  1.0000 -0.2807881424
N   N83       1.0  0.25780  0.86980  0.83680  1.0000 -0.2807881424
N   N84       1.0  0.61200  0.74220  0.83680  1.0000 -0.2807881424
N   N85       1.0  0.50340  0.23570  0.32340  1.0000 0.0089186554
N   N86       1.0  0.76430  0.26770  0.32340  1.0000 0.0089186554
N   N87       1.0  0.73230  0.49660  0.32340  1.0000 0.0089186554
N   N88       1.0  0.76430  0.49660  0.17660  1.0000 0.0089186554
N   N89       1.0  0.73230  0.23570  0.17660  1.0000 0.0089186554
N   N90       1.0  0.50340  0.26770  0.17660  1.0000 0.0089186554
N   N91       1.0  0.49660  0.76430  0.67660  1.0000 0.0089186554
N   N92       1.0  0.23570  0.73230  0.67660  1.0000 0.0089186554
N   N93       1.0  0.26770  0.50340  0.67660  1.0000 0.0089186554
N   N94       1.0  0.23570  0.50340  0.82340  1.0000 0.0089186554
N   N95       1.0  0.26770  0.76430  0.82340  1.0000 0.0089186554
N   N96       1.0  0.49660  0.73230  0.82340  1.0000 0.0089186554
N   N97       1.0  0.33333  0.66667  0.04280  1.0000 0.6886374365
N   N98       1.0  0.33333  0.66667  0.45720  1.0000 0.6886374365
N   N99       1.0  0.66667  0.33333  0.95720  1.0000 0.6886374365
N   N100      1.0  0.66667  0.33333  0.54280  1.0000 0.6886374365
N   N101      1.0  0.52455  0.47545  0.25000  1.0000 0.5179648708
N   N102      1.0  0.95090  0.47545  0.25000  1.0000 0.5144589554
N   N103      1.0  0.52455  0.04910  0.25000  1.0000 0.5179648708
N   N104      1.0  0.47545  0.52455  0.75000  1.0000 0.5179648708
N   N105      1.0  0.04910  0.52455  0.75000  1.0000 0.527958573
N   N106      1.0  0.47545  0.95090  0.75000  1.0000 0.5179648708
O   O1        1.0  0.20255  0.05852  0.35486  1.0000 -0.5492493499
O   O2        1.0  0.94148  0.14403  0.35486  1.0000 -0.5492493499
O   O3        1.0  0.85597  0.79745  0.35486  1.0000 -0.5492493499
O   O4        1.0  0.94148  0.79745  0.14514  1.0000 -0.5492493499
O   O5        1.0  0.85597  0.05852  0.14514  1.0000 -0.5492493499
O   O6        1.0  0.20255  0.14403  0.14514  1.0000 -0.5492493499
O   O7        1.0  0.79745  0.94148  0.64514  1.0000 -0.5492493499
O   O8        1.0  0.05852  0.85597  0.64514  1.0000 -0.5492493499
O   O9        1.0  0.14403  0.20255  0.64514  1.0000 -0.5492493499
O   O10       1.0  0.05852  0.20255  0.85486  1.0000 -0.5492493499
O   O11       1.0  0.14403  0.94148  0.85486  1.0000 -0.5492493499
O   O12       1.0  0.79745  0.85597  0.85486  1.0000 -0.5492493499
O   O13       1.0  0.15295  0.93704  0.38453  1.0000 -0.5754972089
O   O14       1.0  0.06296  0.21591  0.38453  1.0000 -0.5754972089
O   O15       1.0  0.78409  0.84705  0.38453  1.0000 -0.5754972089
O   O16       1.0  0.06296  0.84705  0.11547  1.0000 -0.5754972089
O   O17       1.0  0.78409  0.93704  0.11547  1.0000 -0.5754972089
O   O18       1.0  0.15295  0.21591  0.11547  1.0000 -0.5754972089
O   O19       1.0  0.84705  0.06296  0.61547  1.0000 -0.5754972089
O   O20       1.0  0.93704  0.78409  0.61547  1.0000 -0.5754972089
O   O21       1.0  0.21591  0.15295  0.61547  1.0000 -0.5754972089
O   O22       1.0  0.93704  0.15295  0.88453  1.0000 -0.5754972089
O   O23       1.0  0.21591  0.06296  0.88453  1.0000 -0.5754972089
O   O24       1.0  0.84705  0.78409  0.88453  1.0000 -0.5754972089
O   O25       1.0  0.27640  0.59870  0.03970  1.0000 -0.4516344656
O   O26       1.0  0.32230  0.72360  0.03970  1.0000 -0.4516344656
O   O27       1.0  0.40130  0.67770  0.03970  1.0000 -0.4516344656
O   O28       1.0  0.40130  0.72360  0.46030  1.0000 -0.4516344656
O   O29       1.0  0.27640  0.67770  0.46030  1.0000 -0.4516344656
O   O30       1.0  0.32230  0.59870  0.46030  1.0000 -0.4516344656
O   O31       1.0  0.72360  0.40130  0.96030  1.0000 -0.4516344656
O   O32       1.0  0.67770  0.27640  0.96030  1.0000 -0.4516344656
O   O33       1.0  0.59870  0.32230  0.96030  1.0000 -0.4516344656
O   O34       1.0  0.59870  0.27640  0.53970  1.0000 -0.4516344656
O   O35       1.0  0.72360  0.32230  0.53970  1.0000 -0.4516344656
O   O36       1.0  0.67770  0.40130  0.53970  1.0000 -0.4516344656
O   O37       1.0  0.48375  0.51625  0.25000  1.0000 -0.4569126953
O   O38       1.0  0.51090  0.44120  0.28740  1.0000 -0.3583061088
O   O39       1.0  0.55880  0.48910  0.21260  1.0000 -0.3583061088
O   O40       1.0  0.03250  0.51625  0.25000  1.0000 -0.4569126953
O   O41       1.0  0.93030  0.48910  0.28740  1.0000 -0.3583061088
O   O42       1.0  0.93030  0.44120  0.21260  1.0000 -0.3583061088
O   O43       1.0  0.48375  0.96750  0.25000  1.0000 -0.4569126953
O   O44       1.0  0.55880  0.06970  0.28740  1.0000 -0.3583061088
O   O45       1.0  0.51090  0.06970  0.21260  1.0000 -0.3583061088
O   O46       1.0  0.51625  0.48375  0.75000  1.0000 -0.4569126953
O   O47       1.0  0.48910  0.55880  0.71260  1.0000 -0.3583061088
O   O48       1.0  0.44120  0.51090  0.78740  1.0000 -0.3583061088
O   O49       1.0  0.96750  0.48375  0.75000  1.0000 -0.4569126953
O   O50       1.0  0.06970  0.51090  0.71260  1.0000 -0.3583061088
O   O51       1.0  0.06970  0.55880  0.78740  1.0000 -0.3583061088
O   O52       1.0  0.51625  0.03250  0.75000  1.0000 -0.4569126953
O   O53       1.0  0.44120  0.93030  0.71260  1.0000 -0.3583061088
O   O54       1.0  0.48910  0.93030  0.78740  1.0000 -0.3583061088
