# DDEC6 charges by PACMAN v1.1 (https://github.com/mtap-research/PACMAN-charge/)
data_2015[Cu][pts]3[ION]1
_chemical_formula_sum              "Cu8 H128 C208 S32 N32 Cl4 O16"
_cell_length_a       15.8574
_cell_length_b       19.3325
_cell_length_c       26.7406
_cell_angle_alpha    90
_cell_angle_beta     112.652
_cell_angle_gamma    90

_symmetry_space_group_name_H-M    "P 1"
_symmetry_Int_Tables_number       1

loop_
  _symmetry_equiv_pos_as_xyz
  'x, y, z'

loop_
  _atom_site_type_symbol
  _atom_site_label
  _atom_site_symmetry_multiplicity
  _atom_site_fract_x
  _atom_site_fract_y
  _atom_site_fract_z
  _atom_site_occupancy
  _atom_site_charge
Cu  Cu1       1.0  0.63789  0.98638  0.13011  1.0000 0.2039433476
Cu  Cu2       1.0  0.36211  0.48638  0.36989  1.0000 0.2039433476
Cu  Cu3       1.0  0.36211  0.01362  0.86989  1.0000 0.2039433476
Cu  Cu4       1.0  0.63789  0.51362  0.63011  1.0000 0.2039433476
Cu  Cu5       1.0  0.36493  0.99568  0.36878  1.0000 0.2096858379
Cu  Cu6       1.0  0.63507  0.49568  0.13122  1.0000 0.2096858379
Cu  Cu7       1.0  0.63507  0.00432  0.63122  1.0000 0.2096858379
Cu  Cu8       1.0  0.36493  0.50432  0.86878  1.0000 0.2096858379
H   H1        1.0  0.59220  0.12230  0.07090  1.0000 0.1016886494
H   H2        1.0  0.40780  0.62230  0.42910  1.0000 0.1016886494
H   H3        1.0  0.40780  0.87770  0.92910  1.0000 0.1016886494
H   H4        1.0  0.59220  0.37770  0.57090  1.0000 0.1016886494
H   H5        1.0  0.65300  0.20190  0.02980  1.0000 0.1392114961
H   H6        1.0  0.34700  0.70190  0.47020  1.0000 0.1392114961
H   H7        1.0  0.34700  0.79810  0.97020  1.0000 0.1392114961
H   H8        1.0  0.65300  0.29810  0.52980  1.0000 0.1392114961
H   H9        1.0  0.89280  0.10170  0.09590  1.0000 0.1218630613
H   H10       1.0  0.10720  0.60170  0.40410  1.0000 0.1218630613
H   H11       1.0  0.10720  0.89830  0.90410  1.0000 0.1218630613
H   H12       1.0  0.89280  0.39830  0.59590  1.0000 0.1218630613
H   H13       1.0  0.82300  0.02090  0.13010  1.0000 0.1016886494
H   H14       1.0  0.17700  0.52090  0.36990  1.0000 0.1016886494
H   H15       1.0  0.17700  0.97910  0.86990  1.0000 0.1016886494
H   H16       1.0  0.82300  0.47910  0.63010  1.0000 0.1016886494
H   H17       1.0  0.69010  0.37930  0.98340  1.0000 0.1218630613
H   H18       1.0  0.30990  0.87930  0.51660  1.0000 0.1218630613
H   H19       1.0  0.30990  0.62070  0.01660  1.0000 0.1218630613
H   H20       1.0  0.69010  0.12070  0.48340  1.0000 0.1218630613
H   H21       1.0  0.61570  0.44710  0.02280  1.0000 0.1016886494
H   H22       1.0  0.38430  0.94710  0.47720  1.0000 0.1016886494
H   H23       1.0  0.38430  0.55290  0.97720  1.0000 0.1016886494
H   H24       1.0  0.61570  0.05290  0.52280  1.0000 0.1016886494
H   H25       1.0  0.73010  0.35390  0.16120  1.0000 0.1016886494
H   H26       1.0  0.26990  0.85390  0.33880  1.0000 0.1016886494
H   H27       1.0  0.26990  0.64610  0.83880  1.0000 0.1016886494
H   H28       1.0  0.73010  0.14610  0.66120  1.0000 0.1016886494
H   H29       1.0  0.80780  0.28020  0.12610  1.0000 0.1392114961
H   H30       1.0  0.19220  0.78020  0.37390  1.0000 0.1392114961
H   H31       1.0  0.19220  0.71980  0.87390  1.0000 0.1392114961
H   H32       1.0  0.80780  0.21980  0.62610  1.0000 0.1392114961
H   H33       1.0  0.07790  0.41720  0.87430  1.0000 0.1218630613
H   H34       1.0  0.92210  0.91720  0.62570  1.0000 0.1218630613
H   H35       1.0  0.92210  0.58280  0.12570  1.0000 0.1218630613
H   H36       1.0  0.07790  0.08280  0.37430  1.0000 0.1218630613
H   H37       1.0  0.17740  0.49000  0.85900  1.0000 0.1016886494
H   H38       1.0  0.82260  0.99000  0.64100  1.0000 0.1016886494
H   H39       1.0  0.82260  0.51000  0.14100  1.0000 0.1016886494
H   H40       1.0  0.17740  0.01000  0.35900  1.0000 0.1016886494
H   H41       1.0  0.38300  0.36780  0.93240  1.0000 0.1066143461
H   H42       1.0  0.61700  0.86780  0.56760  1.0000 0.1066143461
H   H43       1.0  0.61700  0.63220  0.06760  1.0000 0.1066143461
H   H44       1.0  0.38300  0.13220  0.43240  1.0000 0.1066143461
H   H45       1.0  0.28930  0.29190  0.95300  1.0000 0.1392114961
H   H46       1.0  0.71070  0.79190  0.54700  1.0000 0.1392114961
H   H47       1.0  0.71070  0.70810  0.04700  1.0000 0.1392114961
H   H48       1.0  0.28930  0.20810  0.45300  1.0000 0.1392114961
H   H49       1.0  0.15260  0.21330  0.83880  1.0000 0.1392114961
H   H50       1.0  0.84740  0.71330  0.66120  1.0000 0.1392114961
H   H51       1.0  0.84740  0.78670  0.16120  1.0000 0.1392114961
H   H52       1.0  0.15260  0.28670  0.33880  1.0000 0.1392114961
H   H53       1.0  0.25340  0.14220  0.82120  1.0000 0.1016886494
H   H54       1.0  0.74660  0.64220  0.67880  1.0000 0.1016886494
H   H55       1.0  0.74660  0.85780  0.17880  1.0000 0.1016886494
H   H56       1.0  0.25340  0.35780  0.32120  1.0000 0.1016886494
H   H57       1.0  0.34940  0.07330  0.97010  1.0000 0.1016886494
H   H58       1.0  0.65060  0.57330  0.52990  1.0000 0.1016886494
H   H59       1.0  0.65060  0.92670  0.02990  1.0000 0.1016886494
H   H60       1.0  0.34940  0.42670  0.47010  1.0000 0.1016886494
H   H61       1.0  0.24660  0.14000  0.99090  1.0000 0.1392114961
H   H62       1.0  0.75340  0.64000  0.50910  1.0000 0.1392114961
H   H63       1.0  0.75340  0.86000  0.00910  1.0000 0.1392114961
H   H64       1.0  0.24660  0.36000  0.49090  1.0000 0.1392114961
H   H65       1.0  0.78960  0.06000  0.21960  1.0000 0.1016886494
H   H66       1.0  0.21040  0.56000  0.28040  1.0000 0.1016886494
H   H67       1.0  0.21040  0.94000  0.78040  1.0000 0.1016886494
H   H68       1.0  0.78960  0.44000  0.71960  1.0000 0.1016886494
H   H69       1.0  0.86230  0.06000  0.31110  1.0000 0.1392114961
H   H70       1.0  0.13770  0.56000  0.18890  1.0000 0.1392114961
H   H71       1.0  0.13770  0.94000  0.68890  1.0000 0.1392114961
H   H72       1.0  0.86230  0.44000  0.81110  1.0000 0.1392114961
H   H73       1.0  0.67600  0.92450  0.31950  1.0000 0.1392114961
H   H74       1.0  0.32400  0.42450  0.18050  1.0000 0.1392114961
H   H75       1.0  0.32400  0.07550  0.68050  1.0000 0.1392114961
H   H76       1.0  0.67600  0.57550  0.81950  1.0000 0.1392114961
H   H77       1.0  0.61000  0.92730  0.22710  1.0000 0.1016886494
H   H78       1.0  0.39000  0.42730  0.27290  1.0000 0.1016886494
H   H79       1.0  0.39000  0.07270  0.77290  1.0000 0.1016886494
H   H80       1.0  0.61000  0.57270  0.72710  1.0000 0.1016886494
H   H81       1.0  0.65540  0.08180  0.36440  1.0000 0.1392114961
H   H82       1.0  0.34460  0.58180  0.13560  1.0000 0.1392114961
H   H83       1.0  0.34460  0.91820  0.63560  1.0000 0.1392114961
H   H84       1.0  0.65540  0.41820  0.86440  1.0000 0.1392114961
H   H85       1.0  0.50320  0.08220  0.34750  1.0000 0.1016886494
H   H86       1.0  0.49680  0.58220  0.15250  1.0000 0.1016886494
H   H87       1.0  0.49680  0.91780  0.65250  1.0000 0.1016886494
H   H88       1.0  0.50320  0.41780  0.84750  1.0000 0.1016886494
H   H89       1.0  0.52760  0.91750  0.43650  1.0000 0.1066143461
H   H90       1.0  0.47240  0.41750  0.06350  1.0000 0.1066143461
H   H91       1.0  0.47240  0.08250  0.56350  1.0000 0.1066143461
H   H92       1.0  0.52760  0.58250  0.93650  1.0000 0.1066143461
H   H93       1.0  0.68120  0.91290  0.45730  1.0000 0.1392114961
H   H94       1.0  0.31880  0.41290  0.04270  1.0000 0.1392114961
H   H95       1.0  0.31880  0.08710  0.54270  1.0000 0.1392114961
H   H96       1.0  0.68120  0.58710  0.95730  1.0000 0.1392114961
H   H97       1.0  0.37610  0.92200  0.27240  1.0000 0.1066143461
H   H98       1.0  0.62390  0.42200  0.22760  1.0000 0.1066143461
H   H99       1.0  0.62390  0.07800  0.72760  1.0000 0.1066143461
H   H100      1.0  0.37610  0.57800  0.77240  1.0000 0.1066143461
H   H101      1.0  0.31320  0.92350  0.18010  1.0000 0.1392114961
H   H102      1.0  0.68680  0.42350  0.31990  1.0000 0.1392114961
H   H103      1.0  0.68680  0.07650  0.81990  1.0000 0.1392114961
H   H104      1.0  0.31320  0.57650  0.68010  1.0000 0.1392114961
H   H105      1.0  0.14640  0.07490  0.18840  1.0000 0.1314570271
H   H106      1.0  0.85360  0.57490  0.31160  1.0000 0.1314570271
H   H107      1.0  0.85360  0.92510  0.81160  1.0000 0.1314570271
H   H108      1.0  0.14640  0.42510  0.68840  1.0000 0.1314570271
H   H109      1.0  0.21650  0.07060  0.28090  1.0000 0.1016886494
H   H110      1.0  0.78350  0.57060  0.21910  1.0000 0.1016886494
H   H111      1.0  0.78350  0.92940  0.71910  1.0000 0.1016886494
H   H112      1.0  0.21650  0.42940  0.78090  1.0000 0.1016886494
H   H113      1.0  0.35790  0.06970  0.14860  1.0000 0.1392114961
H   H114      1.0  0.64210  0.56970  0.35140  1.0000 0.1392114961
H   H115      1.0  0.64210  0.93030  0.85140  1.0000 0.1392114961
H   H116      1.0  0.35790  0.43030  0.64860  1.0000 0.1392114961
H   H117      1.0  0.51010  0.06440  0.16280  1.0000 0.1066143461
H   H118      1.0  0.48990  0.56440  0.33720  1.0000 0.1066143461
H   H119      1.0  0.48990  0.93560  0.83720  1.0000 0.1066143461
H   H120      1.0  0.51010  0.43560  0.66280  1.0000 0.1066143461
H   H121      1.0  0.46270  0.92880  0.04870  1.0000 0.1066143461
H   H122      1.0  0.53730  0.42880  0.45130  1.0000 0.1066143461
H   H123      1.0  0.53730  0.07120  0.95130  1.0000 0.1066143461
H   H124      1.0  0.46270  0.57120  0.54870  1.0000 0.1066143461
H   H125      1.0  0.30930  0.93250  0.02890  1.0000 0.1218630613
H   H126      1.0  0.69070  0.43250  0.47110  1.0000 0.1218630613
H   H127      1.0  0.69070  0.06750  0.97110  1.0000 0.1218630613
H   H128      1.0  0.30930  0.56750  0.52890  1.0000 0.1218630613
C   C1        1.0  0.65253  0.11720  0.07453  1.0000 0.078387127
C   C2        1.0  0.34747  0.61720  0.42547  1.0000 0.078387127
C   C3        1.0  0.34747  0.88280  0.92547  1.0000 0.078387127
C   C4        1.0  0.65253  0.38280  0.57453  1.0000 0.078387127
C   C5        1.0  0.68900  0.16620  0.05040  1.0000 -0.1822081608
C   C6        1.0  0.31100  0.66620  0.44960  1.0000 -0.1822081608
C   C7        1.0  0.31100  0.83380  0.94960  1.0000 -0.1822081608
C   C8        1.0  0.68900  0.33380  0.55040  1.0000 -0.1822081608
C   C9        1.0  0.78081  0.16080  0.05781  1.0000 0.1218630613
C   C10       1.0  0.21919  0.66080  0.44219  1.0000 0.1218630613
C   C11       1.0  0.21919  0.83920  0.94219  1.0000 0.1218630613
C   C12       1.0  0.78081  0.33920  0.55781  1.0000 0.1218630613
C   C13       1.0  0.83090  0.10600  0.08910  1.0000 -0.2105650935
C   C14       1.0  0.16910  0.60600  0.41090  1.0000 -0.2105650935
C   C15       1.0  0.16910  0.89400  0.91090  1.0000 -0.2105650935
C   C16       1.0  0.83090  0.39400  0.58910  1.0000 -0.2105650935
C   C17       1.0  0.78880  0.05790  0.11020  1.0000 0.0480932994
C   C18       1.0  0.21120  0.55790  0.38980  1.0000 0.0480932994
C   C19       1.0  0.21120  0.94210  0.88980  1.0000 0.0480932994
C   C20       1.0  0.78880  0.44210  0.61020  1.0000 0.0480932994
C   C21       1.0  0.80950  0.27800  0.02550  1.0000 -0.0480733401
C   C22       1.0  0.19050  0.77800  0.47450  1.0000 -0.0480733401
C   C23       1.0  0.19050  0.72200  0.97450  1.0000 -0.0480733401
C   C24       1.0  0.80950  0.22200  0.52550  1.0000 -0.0480733401
C   C25       1.0  0.75910  0.32180  0.05010  1.0000 0.1314570271
C   C26       1.0  0.24090  0.82180  0.44990  1.0000 0.1314570271
C   C27       1.0  0.24090  0.67820  0.94990  1.0000 0.1314570271
C   C28       1.0  0.75910  0.17820  0.55010  1.0000 0.1314570271
C   C29       1.0  0.69990  0.37300  0.01970  1.0000 -0.1994905601
C   C30       1.0  0.30010  0.87300  0.48030  1.0000 -0.1994905601
C   C31       1.0  0.30010  0.62700  0.98030  1.0000 -0.1994905601
C   C32       1.0  0.69990  0.12700  0.51970  1.0000 -0.1994905601
C   C33       1.0  0.65620  0.41390  0.04400  1.0000 0.0480932994
C   C34       1.0  0.34380  0.91390  0.45600  1.0000 0.0480932994
C   C35       1.0  0.34380  0.58610  0.95600  1.0000 0.0480932994
C   C36       1.0  0.65620  0.08610  0.54400  1.0000 0.0411571294
C   C37       1.0  0.72270  0.35930  0.12520  1.0000 0.0928217285
C   C38       1.0  0.27730  0.85930  0.37480  1.0000 0.0928217285
C   C39       1.0  0.27730  0.64070  0.87480  1.0000 0.0928217285
C   C40       1.0  0.72270  0.14070  0.62520  1.0000 0.0928217285
C   C41       1.0  0.77000  0.31440  0.10440  1.0000 -0.1822081608
C   C42       1.0  0.23000  0.81440  0.39560  1.0000 -0.1822081608
C   C43       1.0  0.23000  0.68560  0.89560  1.0000 -0.1822081608
C   C44       1.0  0.77000  0.18560  0.60440  1.0000 -0.1822081608
C   C45       1.0  0.91780  0.24910  0.97650  1.0000 -0.0908112963
C   C46       1.0  0.08220  0.74910  0.52350  1.0000 -0.0908112963
C   C47       1.0  0.08220  0.75090  0.02350  1.0000 -0.0908112963
C   C48       1.0  0.91780  0.25090  0.47650  1.0000 -0.0908112963
C   C49       1.0  0.98060  0.25310  0.95430  1.0000 -0.0908112963
C   C50       1.0  0.01940  0.75310  0.54570  1.0000 -0.0908112963
C   C51       1.0  0.01940  0.74690  0.04570  1.0000 -0.0908112963
C   C52       1.0  0.98060  0.24690  0.45430  1.0000 -0.0908112963
C   C53       1.0  0.10860  0.29540  0.92410  1.0000 -0.0594620029
C   C54       1.0  0.89140  0.79540  0.57590  1.0000 -0.0594620029
C   C55       1.0  0.89140  0.70460  0.07590  1.0000 -0.0594620029
C   C56       1.0  0.10860  0.20460  0.42410  1.0000 -0.0594620029
C   C57       1.0  0.17040  0.34410  0.91330  1.0000 0.1218630613
C   C58       1.0  0.82960  0.84410  0.58670  1.0000 0.1218630613
C   C59       1.0  0.82960  0.65590  0.08670  1.0000 0.1218630613
C   C60       1.0  0.17040  0.15590  0.41330  1.0000 0.1218630613
C   C61       1.0  0.13940  0.40550  0.88630  1.0000 -0.1994905601
C   C62       1.0  0.86060  0.90550  0.61370  1.0000 -0.1994905601
C   C63       1.0  0.86060  0.59450  0.11370  1.0000 -0.1994905601
C   C64       1.0  0.13940  0.09450  0.38630  1.0000 -0.1994905601
C   C65       1.0  0.20010  0.44900  0.87750  1.0000 0.0319644657
C   C66       1.0  0.79990  0.94900  0.62250  1.0000 0.0319644657
C   C67       1.0  0.79990  0.55100  0.12250  1.0000 0.0319644657
C   C68       1.0  0.20010  0.05100  0.37750  1.0000 0.0319644657
C   C69       1.0  0.32100  0.37810  0.92070  1.0000 0.0713597015
C   C70       1.0  0.67900  0.87810  0.57930  1.0000 0.0713597015
C   C71       1.0  0.67900  0.62190  0.07930  1.0000 0.0713597015
C   C72       1.0  0.32100  0.12190  0.42070  1.0000 0.0713597015
C   C73       1.0  0.26460  0.33130  0.93250  1.0000 -0.1721751633
C   C74       1.0  0.73540  0.83130  0.56750  1.0000 -0.1721751633
C   C75       1.0  0.73540  0.66870  0.06750  1.0000 -0.1721751633
C   C76       1.0  0.26460  0.16870  0.43250  1.0000 -0.1721751633
C   C77       1.0  0.11730  0.22610  0.92800  1.0000 -0.0594620029
C   C78       1.0  0.88270  0.72610  0.57200  1.0000 -0.0594620029
C   C79       1.0  0.88270  0.77390  0.07200  1.0000 -0.0594620029
C   C80       1.0  0.11730  0.27390  0.42800  1.0000 -0.0594620029
C   C81       1.0  0.18660  0.18340  0.91700  1.0000 0.1218630613
C   C82       1.0  0.81340  0.68340  0.58300  1.0000 0.1218630613
C   C83       1.0  0.81340  0.81660  0.08300  1.0000 0.1218630613
C   C84       1.0  0.18660  0.31660  0.41700  1.0000 0.1218630613
C   C85       1.0  0.19060  0.18420  0.86570  1.0000 -0.1822081608
C   C86       1.0  0.80940  0.68420  0.63430  1.0000 -0.1822081608
C   C87       1.0  0.80940  0.81580  0.13430  1.0000 -0.1822081608
C   C88       1.0  0.19060  0.31580  0.36570  1.0000 -0.1822081608
C   C89       1.0  0.25160  0.14140  0.85560  1.0000 0.058746175
C   C90       1.0  0.74840  0.64140  0.64440  1.0000 0.058746175
C   C91       1.0  0.74840  0.85860  0.14440  1.0000 0.058746175
C   C92       1.0  0.25160  0.35860  0.35560  1.0000 0.058746175
C   C93       1.0  0.30760  0.10030  0.94310  1.0000 0.078387127
C   C94       1.0  0.69240  0.60030  0.55690  1.0000 0.078387127
C   C95       1.0  0.69240  0.89970  0.05690  1.0000 0.078387127
C   C96       1.0  0.30760  0.39970  0.44310  1.0000 0.078387127
C   C97       1.0  0.24680  0.14120  0.95620  1.0000 -0.1917797395
C   C98       1.0  0.75320  0.64120  0.54380  1.0000 -0.1917797395
C   C99       1.0  0.75320  0.85880  0.04380  1.0000 -0.1917797395
C   C100      1.0  0.24680  0.35880  0.45620  1.0000 -0.1917797395
C   C101      1.0  0.76720  0.03190  0.23990  1.0000 0.058746175
C   C102      1.0  0.23280  0.53190  0.26010  1.0000 0.058746175
C   C103      1.0  0.23280  0.96810  0.76010  1.0000 0.058746175
C   C104      1.0  0.76720  0.46810  0.73990  1.0000 0.058746175
C   C105      1.0  0.81040  0.03290  0.29490  1.0000 -0.1994905601
C   C106      1.0  0.18960  0.53290  0.20510  1.0000 -0.1994905601
C   C107      1.0  0.18960  0.96710  0.70510  1.0000 -0.1994905601
C   C108      1.0  0.81040  0.46710  0.79490  1.0000 -0.1994905601
C   C109      1.0  0.77758  0.99360  0.32688  1.0000 0.1218630613
C   C110      1.0  0.22242  0.49360  0.17312  1.0000 0.1218630613
C   C111      1.0  0.22242  0.00640  0.67312  1.0000 0.1218630613
C   C112      1.0  0.77758  0.50640  0.82688  1.0000 0.1218630613
C   C113      1.0  0.70043  0.95240  0.30003  1.0000 -0.1917797395
C   C114      1.0  0.29957  0.45240  0.19997  1.0000 -0.1917797395
C   C115      1.0  0.29957  0.04760  0.69997  1.0000 -0.1917797395
C   C116      1.0  0.70043  0.54760  0.80003  1.0000 -0.1917797395
C   C117      1.0  0.66178  0.95430  0.24438  1.0000 0.0480932994
C   C118      1.0  0.33822  0.45430  0.25562  1.0000 0.0480932994
C   C119      1.0  0.33822  0.04570  0.75562  1.0000 0.0480932994
C   C120      1.0  0.66178  0.54570  0.74438  1.0000 0.0480932994
C   C121      1.0  0.82400  0.99270  0.38630  1.0000 -0.0719185653
C   C122      1.0  0.17600  0.49270  0.11370  1.0000 -0.0719185653
C   C123      1.0  0.17600  0.00730  0.61370  1.0000 -0.0719185653
C   C124      1.0  0.82400  0.50730  0.88630  1.0000 -0.0719185653
C   C125      1.0  0.95884  0.99530  0.47994  1.0000 -0.1085928473
C   C126      1.0  0.04116  0.49530  0.02006  1.0000 -0.1085928473
C   C127      1.0  0.04116  0.00470  0.52006  1.0000 -0.1085928473
C   C128      1.0  0.95884  0.50470  0.97994  1.0000 -0.1085928473
C   C129      1.0  0.78558  0.99340  0.42318  1.0000 -0.0719185653
C   C130      1.0  0.21442  0.49340  0.07682  1.0000 -0.0719185653
C   C131      1.0  0.21442  0.00660  0.57682  1.0000 -0.0719185653
C   C132      1.0  0.78558  0.50660  0.92318  1.0000 -0.0719185653
C   C133      1.0  0.68665  0.99620  0.41175  1.0000 0.1218630613
C   C134      1.0  0.31335  0.49620  0.08825  1.0000 0.1218630613
C   C135      1.0  0.31335  0.00380  0.58825  1.0000 0.1218630613
C   C136      1.0  0.68665  0.50380  0.91175  1.0000 0.1218630613
C   C137      1.0  0.63100  0.04780  0.37940  1.0000 -0.1917797395
C   C138      1.0  0.36900  0.54780  0.12060  1.0000 -0.1917797395
C   C139      1.0  0.36900  0.95220  0.62060  1.0000 -0.1917797395
C   C140      1.0  0.63100  0.45220  0.87940  1.0000 -0.1917797395
C   C141      1.0  0.53980  0.04780  0.36980  1.0000 0.0480932994
C   C142      1.0  0.46020  0.54780  0.13020  1.0000 0.0480932994
C   C143      1.0  0.46020  0.95220  0.63020  1.0000 0.0411571294
C   C144      1.0  0.53980  0.45220  0.86980  1.0000 0.0411571294
C   C145      1.0  0.55407  0.95110  0.42227  1.0000 0.0713597015
C   C146      1.0  0.44593  0.45110  0.07773  1.0000 0.0713597015
C   C147      1.0  0.44593  0.04890  0.57773  1.0000 0.0713597015
C   C148      1.0  0.55407  0.54890  0.92227  1.0000 0.0713597015
C   C149      1.0  0.64613  0.94730  0.43443  1.0000 -0.1994905601
C   C150      1.0  0.35387  0.44730  0.06557  1.0000 -0.1994905601
C   C151      1.0  0.35387  0.05270  0.56557  1.0000 -0.1994905601
C   C152      1.0  0.64613  0.55270  0.93443  1.0000 -0.1994905601
C   C153      1.0  0.32960  0.95350  0.25530  1.0000 0.058746175
C   C154      1.0  0.67040  0.45350  0.24470  1.0000 0.058746175
C   C155      1.0  0.67040  0.04650  0.74470  1.0000 0.058746175
C   C156      1.0  0.32960  0.54650  0.75530  1.0000 0.058746175
C   C157      1.0  0.29200  0.95380  0.19960  1.0000 -0.1994905601
C   C158      1.0  0.70800  0.45380  0.30040  1.0000 -0.1994905601
C   C159      1.0  0.70800  0.04620  0.80040  1.0000 -0.1994905601
C   C160      1.0  0.29200  0.54620  0.69960  1.0000 -0.1994905601
C   C161      1.0  0.22170  0.00060  0.17280  1.0000 0.1218630613
C   C162      1.0  0.77830  0.50060  0.32720  1.0000 0.1218630613
C   C163      1.0  0.77830  0.99940  0.82720  1.0000 0.1218630613
C   C164      1.0  0.22170  0.49940  0.67280  1.0000 0.1218630613
C   C165      1.0  0.19380  0.04370  0.20460  1.0000 -0.1994905601
C   C166      1.0  0.80620  0.54370  0.29540  1.0000 -0.1994905601
C   C167      1.0  0.80620  0.95630  0.79540  1.0000 -0.1994905601
C   C168      1.0  0.19380  0.45630  0.70460  1.0000 -0.1994905601
C   C169      1.0  0.23580  0.04040  0.26040  1.0000 0.058746175
C   C170      1.0  0.76420  0.54040  0.23960  1.0000 0.058746175
C   C171      1.0  0.76420  0.95960  0.73960  1.0000 0.058746175
C   C172      1.0  0.23580  0.45960  0.76040  1.0000 0.058746175
C   C173      1.0  0.17730  0.00310  0.11330  1.0000 -0.0719185653
C   C174      1.0  0.82270  0.50310  0.38670  1.0000 -0.0719185653
C   C175      1.0  0.82270  0.99690  0.88670  1.0000 -0.0719185653
C   C176      1.0  0.17730  0.49690  0.61330  1.0000 -0.0719185653
C   C177      1.0  0.21570  0.00240  0.07660  1.0000 -0.0719185653
C   C178      1.0  0.78430  0.50240  0.42340  1.0000 -0.0719185653
C   C179      1.0  0.78430  0.99760  0.92340  1.0000 -0.0719185653
C   C180      1.0  0.21570  0.49760  0.57660  1.0000 -0.0719185653
C   C181      1.0  0.31470  0.00130  0.08710  1.0000 0.1218630613
C   C182      1.0  0.68530  0.50130  0.41290  1.0000 0.1218630613
C   C183      1.0  0.68530  0.99870  0.91290  1.0000 0.1218630613
C   C184      1.0  0.31470  0.49870  0.58710  1.0000 0.1218630613
C   C185      1.0  0.37720  0.04070  0.12730  1.0000 -0.1822081608
C   C186      1.0  0.62280  0.54070  0.37270  1.0000 -0.1822081608
C   C187      1.0  0.62280  0.95930  0.87270  1.0000 -0.1822081608
C   C188      1.0  0.37720  0.45930  0.62730  1.0000 -0.1822081608
C   C189      1.0  0.46923  0.03680  0.13590  1.0000 0.078387127
C   C190      1.0  0.53077  0.53680  0.36410  1.0000 0.078387127
C   C191      1.0  0.53077  0.96320  0.86410  1.0000 0.078387127
C   C192      1.0  0.46923  0.46320  0.63590  1.0000 0.078387127
C   C193      1.0  0.44141  0.95790  0.06891  1.0000 0.0713597015
C   C194      1.0  0.55859  0.45790  0.43109  1.0000 0.0713597015
C   C195      1.0  0.55859  0.04210  0.93109  1.0000 0.0713597015
C   C196      1.0  0.44141  0.54210  0.56891  1.0000 0.0713597015
C   C197      1.0  0.34870  0.95940  0.05690  1.0000 -0.2105650935
C   C198      1.0  0.65130  0.45940  0.44310  1.0000 -0.2105650935
C   C199      1.0  0.65130  0.04060  0.94310  1.0000 -0.2105650935
C   C200      1.0  0.34870  0.54060  0.55690  1.0000 -0.2105650935
C   C201      1.0  0.04150  0.00400  0.01990  1.0000 -0.1085928473
C   C202      1.0  0.95850  0.50400  0.48010  1.0000 -0.1085928473
C   C203      1.0  0.95850  0.99600  0.98010  1.0000 -0.1085928473
C   C204      1.0  0.04150  0.49600  0.51990  1.0000 -0.1085928473
C   C205      1.0  0.82190  0.20880  0.03110  1.0000 -0.0719185653
C   C206      1.0  0.17810  0.70880  0.46890  1.0000 -0.0719185653
C   C207      1.0  0.17810  0.79120  0.96890  1.0000 -0.0719185653
C   C208      1.0  0.82190  0.29120  0.53110  1.0000 -0.0719185653
S   S1        1.0  0.85841  0.32220  0.98546  1.0000 0.0319644657
S   S2        1.0  0.14159  0.82220  0.51454  1.0000 0.0319644657
S   S3        1.0  0.14159  0.67780  0.01454  1.0000 0.0319644657
S   S4        1.0  0.85841  0.17780  0.48546  1.0000 0.0319644657
S   S5        1.0  0.88481  0.17056  0.99659  1.0000 0.0480932994
S   S6        1.0  0.11519  0.67056  0.50341  1.0000 0.0480932994
S   S7        1.0  0.11519  0.82944  0.00341  1.0000 0.0480932994
S   S8        1.0  0.88481  0.32944  0.49659  1.0000 0.0480932994
S   S9        1.0  0.03603  0.17902  0.94378  1.0000 0.0411571294
S   S10       1.0  0.96397  0.67902  0.55622  1.0000 0.0411571294
S   S11       1.0  0.96397  0.82098  0.05622  1.0000 0.0411571294
S   S12       1.0  0.03603  0.32098  0.44378  1.0000 0.0411571294
S   S13       1.0  0.01145  0.33063  0.93230  1.0000 0.0319644657
S   S14       1.0  0.98855  0.83063  0.56770  1.0000 0.0319644657
S   S15       1.0  0.98855  0.66937  0.06770  1.0000 0.0319644657
S   S16       1.0  0.01145  0.16937  0.43230  1.0000 0.0319644657
S   S17       1.0  0.94408  0.98713  0.41170  1.0000 0.0411571294
S   S18       1.0  0.05592  0.48713  0.08830  1.0000 0.0411571294
S   S19       1.0  0.05592  0.01287  0.58830  1.0000 0.0411571294
S   S20       1.0  0.94408  0.51287  0.91170  1.0000 0.0411571294
S   S21       1.0  0.85775  0.98871  0.49204  1.0000 0.0480932994
S   S22       1.0  0.14225  0.48871  0.00796  1.0000 0.0480932994
S   S23       1.0  0.14225  0.01129  0.50796  1.0000 0.0480932994
S   S24       1.0  0.85775  0.51129  0.99204  1.0000 0.0480932994
S   S25       1.0  0.14254  0.00771  0.00760  1.0000 0.0411571294
S   S26       1.0  0.85746  0.50771  0.49240  1.0000 0.0411571294
S   S27       1.0  0.85746  0.99229  0.99240  1.0000 0.0480932994
S   S28       1.0  0.14254  0.49229  0.50760  1.0000 0.0411571294
S   S29       1.0  0.05757  0.01073  0.08830  1.0000 0.0411571294
S   S30       1.0  0.94243  0.51073  0.41170  1.0000 0.0411571294
S   S31       1.0  0.94243  0.98927  0.91170  1.0000 0.0411571294
S   S32       1.0  0.05757  0.48927  0.58830  1.0000 0.0411571294
N   N1        1.0  0.69995  0.06280  0.10285  1.0000 -0.2213149366
N   N2        1.0  0.30005  0.56280  0.39715  1.0000 -0.2213149366
N   N3        1.0  0.30005  0.93720  0.89715  1.0000 -0.2213149366
N   N4        1.0  0.69995  0.43720  0.60285  1.0000 -0.2213149366
N   N5        1.0  0.66788  0.40920  0.09678  1.0000 -0.2213149366
N   N6        1.0  0.33212  0.90920  0.40322  1.0000 -0.2213149366
N   N7        1.0  0.33212  0.59080  0.90322  1.0000 -0.2213149366
N   N8        1.0  0.66788  0.09080  0.59678  1.0000 -0.2213149366
N   N9        1.0  0.29120  0.43660  0.89370  1.0000 -0.2213149366
N   N10       1.0  0.70880  0.93660  0.60630  1.0000 -0.2213149366
N   N11       1.0  0.70880  0.56340  0.10630  1.0000 -0.2213149366
N   N12       1.0  0.29120  0.06340  0.39370  1.0000 -0.2213149366
N   N13       1.0  0.30863  0.09830  0.89313  1.0000 -0.2105650935
N   N14       1.0  0.69137  0.59830  0.60687  1.0000 -0.2213149366
N   N15       1.0  0.69137  0.90170  0.10687  1.0000 -0.2105650935
N   N16       1.0  0.30863  0.40170  0.39313  1.0000 -0.2105650935
N   N17       1.0  0.69306  0.99210  0.21316  1.0000 -0.2213149366
N   N18       1.0  0.30694  0.49210  0.28684  1.0000 -0.2213149366
N   N19       1.0  0.30694  0.00790  0.78684  1.0000 -0.2213149366
N   N20       1.0  0.69306  0.50790  0.71316  1.0000 -0.2213149366
N   N21       1.0  0.49967  0.00060  0.39087  1.0000 -0.2213149366
N   N22       1.0  0.50033  0.50060  0.10913  1.0000 -0.2213149366
N   N23       1.0  0.50033  0.99940  0.60913  1.0000 -0.2213149366
N   N24       1.0  0.49967  0.49940  0.89087  1.0000 -0.2213149366
N   N25       1.0  0.50193  0.99570  0.10763  1.0000 -0.2105650935
N   N26       1.0  0.49807  0.49570  0.39237  1.0000 -0.2105650935
N   N27       1.0  0.49807  0.00430  0.89237  1.0000 -0.2105650935
N   N28       1.0  0.50193  0.50430  0.60763  1.0000 -0.2105650935
N   N29       1.0  0.30366  0.99540  0.28656  1.0000 -0.2213149366
N   N30       1.0  0.69634  0.49540  0.21344  1.0000 -0.2213149366
N   N31       1.0  0.69634  0.00460  0.71344  1.0000 -0.2213149366
N   N32       1.0  0.30366  0.50460  0.78656  1.0000 -0.2213149366
Cl  Cl1       1.0  0.46334  0.24181  0.04976  1.0000 1.2441586909
Cl  Cl2       1.0  0.53666  0.74181  0.45024  1.0000 1.2467932956
Cl  Cl3       1.0  0.53666  0.75819  0.95024  1.0000 1.2467932956
Cl  Cl4       1.0  0.46334  0.25819  0.54976  1.0000 1.2467932956
O   O1        1.0  0.45310  0.22880  0.99230  1.0000 -0.5443164054
O   O2        1.0  0.54820  0.26470  0.08090  1.0000 -0.4730114656
O   O3        1.0  0.44630  0.17600  0.06850  1.0000 -0.4845772925
O   O4        1.0  0.39100  0.28500  0.04930  1.0000 -0.4917750749
O   O5        1.0  0.54690  0.72880  0.50770  1.0000 -0.5443164054
O   O6        1.0  0.45180  0.76470  0.41910  1.0000 -0.4730114656
O   O7        1.0  0.55370  0.67600  0.43150  1.0000 -0.4845772925
O   O8        1.0  0.60900  0.78500  0.45070  1.0000 -0.4917750749
O   O9        1.0  0.54690  0.77120  0.00770  1.0000 -0.5443164054
O   O10       1.0  0.45180  0.73530  0.91910  1.0000 -0.4730114656
O   O11       1.0  0.55370  0.82400  0.93150  1.0000 -0.4917750749
O   O12       1.0  0.60900  0.71500  0.95070  1.0000 -0.4917750749
O   O13       1.0  0.45310  0.27120  0.49230  1.0000 -0.5443164054
O   O14       1.0  0.54820  0.23530  0.58090  1.0000 -0.4730114656
O   O15       1.0  0.44630  0.32400  0.56850  1.0000 -0.4917750749
O   O16       1.0  0.39100  0.21500  0.54930  1.0000 -0.4917750749
