# DDEC6 charges by PACMAN v1.1 (https://github.com/mtap-research/PACMAN-charge/)
data_2015[Zn][nan]3[ION]2
_chemical_formula_sum              "Zn16 H152 C200 N8 O88"
_cell_length_a       14.123
_cell_length_b       33.38
_cell_length_c       17.4681
_cell_angle_alpha    90
_cell_angle_beta     116.641
_cell_angle_gamma    90

_symmetry_space_group_name_H-M    "P 1"
_symmetry_Int_Tables_number       1

loop_
  _symmetry_equiv_pos_as_xyz
  'x, y, z'

loop_
  _atom_site_type_symbol
  _atom_site_label
  _atom_site_symmetry_multiplicity
  _atom_site_fract_x
  _atom_site_fract_y
  _atom_site_fract_z
  _atom_site_occupancy
  _atom_site_charge
Zn  Zn1       1.0  0.01257  0.94199  0.32205  1.0000 0.9488886214
Zn  Zn2       1.0  0.98743  0.44199  0.17795  1.0000 0.9488886214
Zn  Zn3       1.0  0.98743  0.05801  0.67795  1.0000 0.9488886214
Zn  Zn4       1.0  0.01257  0.55801  0.82205  1.0000 0.9488886214
Zn  Zn5       1.0  0.25589  0.91262  0.35075  1.0000 0.9402292735
Zn  Zn6       1.0  0.74411  0.41262  0.14925  1.0000 0.9402292735
Zn  Zn7       1.0  0.74411  0.08738  0.64925  1.0000 0.9402292735
Zn  Zn8       1.0  0.25589  0.58738  0.85075  1.0000 0.9402292735
Zn  Zn9       1.0  0.23447  0.63506  0.40211  1.0000 0.8929961688
Zn  Zn10      1.0  0.76553  0.13506  0.09789  1.0000 0.8929961688
Zn  Zn11      1.0  0.76553  0.36494  0.59789  1.0000 0.8929961688
Zn  Zn12      1.0  0.23447  0.86494  0.90211  1.0000 0.8929961688
Zn  Zn13      1.0  0.41917  0.71182  0.41495  1.0000 0.9488886214
Zn  Zn14      1.0  0.58083  0.21182  0.08505  1.0000 0.9488886214
Zn  Zn15      1.0  0.58083  0.28818  0.58505  1.0000 0.9488886214
Zn  Zn16      1.0  0.41917  0.78818  0.91495  1.0000 0.9488886214
H   H1        1.0  0.75940  0.68890  0.44150  1.0000 0.1195640474
H   H2        1.0  0.24060  0.18890  0.05850  1.0000 0.1195640474
H   H3        1.0  0.24060  0.31110  0.55850  1.0000 0.1195640474
H   H4        1.0  0.75940  0.81110  0.94150  1.0000 0.1195640474
H   H5        1.0  0.90850  0.70480  0.42580  1.0000 0.1279680566
H   H6        1.0  0.09150  0.20480  0.07420  1.0000 0.1279680566
H   H7        1.0  0.09150  0.29520  0.57420  1.0000 0.1279680566
H   H8        1.0  0.90850  0.79520  0.92580  1.0000 0.1279680566
H   H9        1.0  0.74970  0.79560  0.27300  1.0000 0.113449808
H   H10       1.0  0.25030  0.29560  0.22700  1.0000 0.113449808
H   H11       1.0  0.25030  0.20440  0.72700  1.0000 0.113449808
H   H12       1.0  0.74970  0.70440  0.77300  1.0000 0.113449808
H   H13       1.0  0.55410  0.80690  0.38410  1.0000 0.113449808
H   H14       1.0  0.44590  0.30690  0.11590  1.0000 0.113449808
H   H15       1.0  0.44590  0.19310  0.61590  1.0000 0.113449808
H   H16       1.0  0.55410  0.69310  0.88410  1.0000 0.113449808
H   H17       1.0  0.55610  0.78800  0.15930  1.0000 0.1195640474
H   H18       1.0  0.44390  0.28800  0.34070  1.0000 0.1195640474
H   H19       1.0  0.44390  0.21200  0.84070  1.0000 0.1195640474
H   H20       1.0  0.55610  0.71200  0.65930  1.0000 0.1195640474
H   H21       1.0  0.34650  0.86380  0.17480  1.0000 0.1395466692
H   H22       1.0  0.65350  0.36380  0.32520  1.0000 0.1395466692
H   H23       1.0  0.65350  0.13620  0.82520  1.0000 0.1395466692
H   H24       1.0  0.34650  0.63620  0.67480  1.0000 0.1395466692
H   H25       1.0  0.90890  0.82380  0.33040  1.0000 0.1195640474
H   H26       1.0  0.09110  0.32380  0.16960  1.0000 0.1195640474
H   H27       1.0  0.09110  0.17620  0.66960  1.0000 0.1195640474
H   H28       1.0  0.90890  0.67620  0.83040  1.0000 0.1195640474
H   H29       1.0  0.18360  0.79820  0.32580  1.0000 0.1395466692
H   H30       1.0  0.81640  0.29820  0.17420  1.0000 0.1395466692
H   H31       1.0  0.81640  0.20180  0.67420  1.0000 0.1395466692
H   H32       1.0  0.18360  0.70180  0.82580  1.0000 0.1395466692
H   H33       1.0  0.00560  0.71070  0.34990  1.0000 0.1395466692
H   H34       1.0  0.99440  0.21070  0.15010  1.0000 0.1395466692
H   H35       1.0  0.99440  0.28930  0.65010  1.0000 0.1395466692
H   H36       1.0  0.00560  0.78930  0.84990  1.0000 0.1395466692
H   H37       1.0  0.00730  0.96110  0.81310  1.0000 0.1279680566
H   H38       1.0  0.99270  0.46110  0.68690  1.0000 0.1279680566
H   H39       1.0  0.99270  0.03890  0.18690  1.0000 0.1279680566
H   H40       1.0  0.00730  0.53890  0.31310  1.0000 0.1279680566
H   H41       1.0  0.85590  0.88240  0.89080  1.0000 0.1195640474
H   H42       1.0  0.14410  0.38240  0.60920  1.0000 0.1195640474
H   H43       1.0  0.14410  0.11760  0.10920  1.0000 0.1195640474
H   H44       1.0  0.85590  0.61760  0.39080  1.0000 0.1195640474
H   H45       1.0  0.71430  0.98490  0.78030  1.0000 0.1195640474
H   H46       1.0  0.28570  0.48490  0.71970  1.0000 0.1195640474
H   H47       1.0  0.28570  0.01510  0.21970  1.0000 0.1195640474
H   H48       1.0  0.71430  0.51510  0.28030  1.0000 0.1195640474
H   H49       1.0  0.74480  0.88890  0.95840  1.0000 0.1195640474
H   H50       1.0  0.25520  0.38890  0.54160  1.0000 0.1195640474
H   H51       1.0  0.25520  0.11110  0.04160  1.0000 0.1195640474
H   H52       1.0  0.74480  0.61110  0.45840  1.0000 0.1195640474
H   H53       1.0  0.59320  0.86870  0.96410  1.0000 0.1279680566
H   H54       1.0  0.40680  0.36870  0.53590  1.0000 0.1279680566
H   H55       1.0  0.40680  0.13130  0.03590  1.0000 0.1279680566
H   H56       1.0  0.59320  0.63130  0.46410  1.0000 0.1279680566
H   H57       1.0  0.56970  0.94940  0.74260  1.0000 0.1195640474
H   H58       1.0  0.43030  0.44940  0.75740  1.0000 0.1195640474
H   H59       1.0  0.43030  0.05060  0.25740  1.0000 0.1195640474
H   H60       1.0  0.56970  0.55060  0.24260  1.0000 0.1195640474
H   H61       1.0  0.39370  0.91890  0.62580  1.0000 0.1195640474
H   H62       1.0  0.60630  0.41890  0.87420  1.0000 0.1195640474
H   H63       1.0  0.60630  0.08110  0.37420  1.0000 0.1195640474
H   H64       1.0  0.39370  0.58110  0.12580  1.0000 0.1195640474
H   H65       1.0  0.13880  0.98860  0.56130  1.0000 0.1395466692
H   H66       1.0  0.86120  0.48860  0.93870  1.0000 0.1395466692
H   H67       1.0  0.86120  0.01140  0.43870  1.0000 0.1395466692
H   H68       1.0  0.13880  0.51140  0.06130  1.0000 0.1395466692
H   H69       1.0  0.33720  0.97040  0.80690  1.0000 0.113449808
H   H70       1.0  0.66280  0.47040  0.69310  1.0000 0.113449808
H   H71       1.0  0.66280  0.02960  0.19310  1.0000 0.113449808
H   H72       1.0  0.33720  0.52960  0.30690  1.0000 0.113449808
H   H73       1.0  0.51520  0.76570  0.53220  1.0000 0.3997681605
H   H74       1.0  0.48480  0.26570  0.96780  1.0000 0.3997681605
H   H75       1.0  0.48480  0.23430  0.46780  1.0000 0.3997681605
H   H76       1.0  0.51520  0.73430  0.03220  1.0000 0.3997681605
H   H77       1.0  0.45730  0.78800  0.44420  1.0000 0.3921882874
H   H78       1.0  0.54270  0.28800  0.05580  1.0000 0.3921882874
H   H79       1.0  0.54270  0.21200  0.55580  1.0000 0.3921882874
H   H80       1.0  0.45730  0.71200  0.94420  1.0000 0.3921882874
H   H81       1.0  0.81410  0.92660  0.18660  1.0000 0.3997681605
H   H82       1.0  0.18590  0.42660  0.31340  1.0000 0.3997681605
H   H83       1.0  0.18590  0.07340  0.81340  1.0000 0.3997681605
H   H84       1.0  0.81410  0.57340  0.68660  1.0000 0.3997681605
H   H85       1.0  0.88380  0.88890  0.19410  1.0000 0.3997681605
H   H86       1.0  0.11620  0.38890  0.30590  1.0000 0.3997681605
H   H87       1.0  0.11620  0.11110  0.80590  1.0000 0.3997681605
H   H88       1.0  0.88380  0.61110  0.69410  1.0000 0.3997681605
H   H89       1.0  0.36470  0.80110  0.71950  1.0000 0.2662836975
H   H90       1.0  0.28540  0.82380  0.64920  1.0000 0.245110131
H   H91       1.0  0.48410  0.80860  0.66140  1.0000 0.1279680566
H   H92       1.0  0.45390  0.85030  0.68540  1.0000 0.1195640474
H   H93       1.0  0.39880  0.83540  0.59010  1.0000 0.1395466692
H   H94       1.0  0.25250  0.77310  0.55440  1.0000 0.1279680566
H   H95       1.0  0.25160  0.75650  0.63800  1.0000 0.1395466692
H   H96       1.0  0.35000  0.74900  0.62090  1.0000 0.1195640474
H   H97       1.0  0.63530  0.30110  0.78050  1.0000 0.2662836975
H   H98       1.0  0.71460  0.32380  0.85080  1.0000 0.2444614685
H   H99       1.0  0.51590  0.30860  0.83860  1.0000 0.1279680566
H   H100      1.0  0.54610  0.35030  0.81460  1.0000 0.1195640474
H   H101      1.0  0.60120  0.33540  0.90990  1.0000 0.1395466692
H   H102      1.0  0.74750  0.27310  0.94560  1.0000 0.1279680566
H   H103      1.0  0.74840  0.25650  0.86200  1.0000 0.1395466692
H   H104      1.0  0.65000  0.24900  0.87910  1.0000 0.1195640474
H   H105      1.0  0.63530  0.19890  0.28050  1.0000 0.2662836975
H   H106      1.0  0.71460  0.17620  0.35080  1.0000 0.245110131
H   H107      1.0  0.51590  0.19140  0.33860  1.0000 0.1279680566
H   H108      1.0  0.54610  0.14970  0.31460  1.0000 0.1195640474
H   H109      1.0  0.60120  0.16460  0.40990  1.0000 0.1395466692
H   H110      1.0  0.74750  0.22690  0.44560  1.0000 0.1279680566
H   H111      1.0  0.74840  0.24350  0.36200  1.0000 0.1395466692
H   H112      1.0  0.65000  0.25100  0.37910  1.0000 0.1195640474
H   H113      1.0  0.36470  0.69890  0.21950  1.0000 0.2662836975
H   H114      1.0  0.28540  0.67620  0.14920  1.0000 0.245110131
H   H115      1.0  0.48410  0.69140  0.16140  1.0000 0.1279680566
H   H116      1.0  0.45390  0.64970  0.18540  1.0000 0.1195640474
H   H117      1.0  0.39880  0.66460  0.09010  1.0000 0.1395466692
H   H118      1.0  0.25250  0.72690  0.05440  1.0000 0.1279680566
H   H119      1.0  0.25160  0.74350  0.13800  1.0000 0.1395466692
H   H120      1.0  0.35000  0.75100  0.12090  1.0000 0.1195640474
H   H121      1.0  0.29280  0.53170  0.53250  1.0000 0.2598854221
H   H122      1.0  0.25300  0.54240  0.44270  1.0000 0.2598854221
H   H123      1.0  0.33320  0.46900  0.46790  1.0000 0.1279680566
H   H124      1.0  0.42020  0.49920  0.52690  1.0000 0.1195640474
H   H125      1.0  0.37210  0.50300  0.42700  1.0000 0.1195640474
H   H126      1.0  0.11500  0.50080  0.40120  1.0000 0.1395466692
H   H127      1.0  0.14590  0.51140  0.49690  1.0000 0.1279680566
H   H128      1.0  0.18650  0.47150  0.47460  1.0000 0.1195640474
H   H129      1.0  0.70720  0.03170  0.96750  1.0000 0.2598854221
H   H130      1.0  0.74700  0.04240  0.05730  1.0000 0.2598854221
H   H131      1.0  0.66680  0.96900  0.03210  1.0000 0.1279680566
H   H132      1.0  0.57980  0.99920  0.97310  1.0000 0.1195640474
H   H133      1.0  0.62790  0.00300  0.07300  1.0000 0.1195640474
H   H134      1.0  0.88500  0.00080  0.09880  1.0000 0.1395466692
H   H135      1.0  0.85410  0.01140  0.00310  1.0000 0.1279680566
H   H136      1.0  0.81350  0.97150  0.02540  1.0000 0.1195640474
H   H137      1.0  0.70720  0.46830  0.46750  1.0000 0.2598854221
H   H138      1.0  0.74700  0.45760  0.55730  1.0000 0.2598854221
H   H139      1.0  0.66680  0.53100  0.53210  1.0000 0.1279680566
H   H140      1.0  0.57980  0.50080  0.47310  1.0000 0.1195640474
H   H141      1.0  0.62790  0.49700  0.57300  1.0000 0.1195640474
H   H142      1.0  0.88500  0.49920  0.59880  1.0000 0.1395466692
H   H143      1.0  0.85410  0.48860  0.50310  1.0000 0.1279680566
H   H144      1.0  0.81350  0.52850  0.52540  1.0000 0.1195640474
H   H145      1.0  0.29280  0.96830  0.03250  1.0000 0.2598854221
H   H146      1.0  0.25300  0.95760  0.94270  1.0000 0.2598854221
H   H147      1.0  0.33320  0.03100  0.96790  1.0000 0.1279680566
H   H148      1.0  0.42020  0.00080  0.02690  1.0000 0.1195640474
H   H149      1.0  0.37210  0.99700  0.92700  1.0000 0.1195640474
H   H150      1.0  0.11500  0.99920  0.90120  1.0000 0.1395466692
H   H151      1.0  0.14590  0.98860  0.99690  1.0000 0.1279680566
H   H152      1.0  0.18650  0.02850  0.97460  1.0000 0.1195640474
C   C1        1.0  0.57760  0.72205  0.38820  1.0000 0.5523848898
C   C2        1.0  0.42240  0.22205  0.11180  1.0000 0.5523848898
C   C3        1.0  0.42240  0.27795  0.61180  1.0000 0.5523848898
C   C4        1.0  0.57760  0.77795  0.88820  1.0000 0.5523848898
C   C5        1.0  0.66870  0.73364  0.37160  1.0000 -0.0662797427
C   C6        1.0  0.33130  0.23364  0.12840  1.0000 -0.0662797427
C   C7        1.0  0.33130  0.26636  0.62840  1.0000 -0.0662797427
C   C8        1.0  0.66870  0.76636  0.87160  1.0000 -0.0662797427
C   C9        1.0  0.75830  0.71109  0.40880  1.0000 -0.0999451199
C   C10       1.0  0.24170  0.21109  0.09120  1.0000 -0.0999451199
C   C11       1.0  0.24170  0.28891  0.59120  1.0000 -0.0999451199
C   C12       1.0  0.75830  0.78891  0.90880  1.0000 -0.0999451199
C   C13       1.0  0.84760  0.72030  0.39910  1.0000 -0.1421278037
C   C14       1.0  0.15240  0.22030  0.10090  1.0000 -0.1421278037
C   C15       1.0  0.15240  0.27970  0.60090  1.0000 -0.1421278037
C   C16       1.0  0.84760  0.77970  0.89910  1.0000 -0.1421278037
C   C17       1.0  0.84600  0.75262  0.34970  1.0000 0.0890381365
C   C18       1.0  0.15400  0.25262  0.15030  1.0000 0.0890381365
C   C19       1.0  0.15400  0.24738  0.65030  1.0000 0.0890381365
C   C20       1.0  0.84600  0.74738  0.84970  1.0000 0.0890381365
C   C21       1.0  0.75260  0.77458  0.30900  1.0000 -0.2001772978
C   C22       1.0  0.24740  0.27458  0.19100  1.0000 -0.2001772978
C   C23       1.0  0.24740  0.22542  0.69100  1.0000 -0.2001772978
C   C24       1.0  0.75260  0.72542  0.80900  1.0000 -0.2001772978
C   C25       1.0  0.66440  0.76605  0.32060  1.0000 0.0606035619
C   C26       1.0  0.33560  0.26605  0.17940  1.0000 0.0606035619
C   C27       1.0  0.33560  0.23395  0.67940  1.0000 0.0606035619
C   C28       1.0  0.66440  0.73395  0.82060  1.0000 0.0606035619
C   C29       1.0  0.57000  0.79280  0.27820  1.0000 0.0824277803
C   C30       1.0  0.43000  0.29280  0.22180  1.0000 0.0824277803
C   C31       1.0  0.43000  0.20720  0.72180  1.0000 0.0824277803
C   C32       1.0  0.57000  0.70720  0.77820  1.0000 0.0824277803
C   C33       1.0  0.52650  0.81203  0.32570  1.0000 -0.1421278037
C   C34       1.0  0.47350  0.31203  0.17430  1.0000 -0.1421278037
C   C35       1.0  0.47350  0.18797  0.67430  1.0000 -0.1421278037
C   C36       1.0  0.52650  0.68797  0.82570  1.0000 -0.1421278037
C   C37       1.0  0.52770  0.80053  0.19190  1.0000 -0.1592754618
C   C38       1.0  0.47230  0.30053  0.30810  1.0000 -0.1592754618
C   C39       1.0  0.47230  0.19947  0.80810  1.0000 -0.1592754618
C   C40       1.0  0.52770  0.69947  0.69190  1.0000 -0.1592754618
C   C41       1.0  0.44400  0.82644  0.15310  1.0000 -0.0215697174
C   C42       1.0  0.55600  0.32644  0.34690  1.0000 -0.0215697174
C   C43       1.0  0.55600  0.17356  0.84690  1.0000 -0.0215697174
C   C44       1.0  0.44400  0.67356  0.65310  1.0000 -0.0215697174
C   C45       1.0  0.39350  0.83251  0.05770  1.0000 0.5899326122
C   C46       1.0  0.60650  0.33251  0.44230  1.0000 0.5899326122
C   C47       1.0  0.60650  0.16749  0.94230  1.0000 0.5899326122
C   C48       1.0  0.39350  0.66749  0.55770  1.0000 0.5899326122
C   C49       1.0  0.40230  0.84586  0.20100  1.0000 -0.1221795811
C   C50       1.0  0.59770  0.34586  0.29900  1.0000 -0.1221795811
C   C51       1.0  0.59770  0.15414  0.79900  1.0000 -0.1221795811
C   C52       1.0  0.40230  0.65414  0.70100  1.0000 -0.1221795811
C   C53       1.0  0.44370  0.83851  0.28820  1.0000 -0.0215697174
C   C54       1.0  0.55630  0.33851  0.21180  1.0000 -0.0215697174
C   C55       1.0  0.55630  0.16149  0.71180  1.0000 -0.0215697174
C   C56       1.0  0.44370  0.66149  0.78820  1.0000 -0.0215697174
C   C57       1.0  0.39610  0.85786  0.33970  1.0000 0.5607202417
C   C58       1.0  0.60390  0.35786  0.16030  1.0000 0.5607202417
C   C59       1.0  0.60390  0.14214  0.66030  1.0000 0.5607202417
C   C60       1.0  0.39610  0.64214  0.83970  1.0000 0.5607202417
C   C61       1.0  0.94180  0.76487  0.34150  1.0000 0.0670935131
C   C62       1.0  0.05820  0.26487  0.15850  1.0000 0.0670935131
C   C63       1.0  0.05820  0.23513  0.65850  1.0000 0.0670935131
C   C64       1.0  0.94180  0.73513  0.84150  1.0000 0.0670935131
C   C65       1.0  0.95913  0.80511  0.33333  1.0000 -0.1496622951
C   C66       1.0  0.04087  0.30511  0.16667  1.0000 -0.1496622951
C   C67       1.0  0.04087  0.19489  0.66667  1.0000 -0.1496622951
C   C68       1.0  0.95913  0.69489  0.83333  1.0000 -0.1496622951
C   C69       1.0  0.05030  0.81800  0.32970  1.0000 -0.0356981525
C   C70       1.0  0.94970  0.31800  0.17030  1.0000 -0.0356981525
C   C71       1.0  0.94970  0.18200  0.67030  1.0000 -0.0356981525
C   C72       1.0  0.05030  0.68200  0.82970  1.0000 -0.0356981525
C   C73       1.0  0.12350  0.79007  0.33050  1.0000 -0.1081325141
C   C74       1.0  0.87650  0.29007  0.16950  1.0000 -0.1081325141
C   C75       1.0  0.87650  0.20993  0.66950  1.0000 -0.1081325141
C   C76       1.0  0.12350  0.70993  0.83050  1.0000 -0.1081325141
C   C77       1.0  0.10520  0.74964  0.33830  1.0000 -0.0095999347
C   C78       1.0  0.89480  0.24964  0.16170  1.0000 -0.0095999347
C   C79       1.0  0.89480  0.25036  0.66170  1.0000 -0.0095999347
C   C80       1.0  0.10520  0.75036  0.83830  1.0000 -0.0095999347
C   C81       1.0  0.01620  0.73778  0.34410  1.0000 -0.1221795811
C   C82       1.0  0.98380  0.23778  0.15590  1.0000 -0.1221795811
C   C83       1.0  0.98380  0.26222  0.65590  1.0000 -0.1221795811
C   C84       1.0  0.01620  0.76222  0.84410  1.0000 -0.1221795811
C   C85       1.0  0.06890  0.86153  0.32360  1.0000 0.5899326122
C   C86       1.0  0.93110  0.36153  0.17640  1.0000 0.5899326122
C   C87       1.0  0.93110  0.13847  0.67640  1.0000 0.5899326122
C   C88       1.0  0.06890  0.63847  0.82360  1.0000 0.5899326122
C   C89       1.0  0.18770  0.71911  0.34440  1.0000 0.5899326122
C   C90       1.0  0.81230  0.21911  0.15560  1.0000 0.5899326122
C   C91       1.0  0.81230  0.28089  0.65560  1.0000 0.5899326122
C   C92       1.0  0.18770  0.78089  0.84440  1.0000 0.5899326122
C   C93       1.0  0.86220  0.01794  0.74970  1.0000 0.5899326122
C   C94       1.0  0.13780  0.51794  0.75030  1.0000 0.5899326122
C   C95       1.0  0.13780  0.98206  0.25030  1.0000 0.5899326122
C   C96       1.0  0.86220  0.48206  0.24970  1.0000 0.5899326122
C   C97       1.0  0.86020  0.97908  0.79090  1.0000 -0.0313370008
C   C98       1.0  0.13980  0.47908  0.70910  1.0000 -0.0313370008
C   C99       1.0  0.13980  0.02092  0.20910  1.0000 -0.0313370008
C   C100      1.0  0.86020  0.52092  0.29090  1.0000 -0.0313370008
C   C101      1.0  0.94790  0.95369  0.81970  1.0000 -0.1221795811
C   C102      1.0  0.05210  0.45369  0.68030  1.0000 -0.1221795811
C   C103      1.0  0.05210  0.04631  0.18030  1.0000 -0.1221795811
C   C104      1.0  0.94790  0.54631  0.31970  1.0000 -0.1221795811
C   C105      1.0  0.94690  0.91810  0.85740  1.0000 -0.0095999347
C   C106      1.0  0.05310  0.41810  0.64260  1.0000 -0.0095999347
C   C107      1.0  0.05310  0.08190  0.14260  1.0000 -0.0095999347
C   C108      1.0  0.94690  0.58190  0.35740  1.0000 -0.0095999347
C   C109      1.0  0.85700  0.90700  0.86610  1.0000 -0.1496622951
C   C110      1.0  0.14300  0.40700  0.63390  1.0000 -0.1496622951
C   C111      1.0  0.14300  0.09300  0.13390  1.0000 -0.1496622951
C   C112      1.0  0.85700  0.59300  0.36610  1.0000 -0.1496622951
C   C113      1.0  0.77000  0.93182  0.83890  1.0000 0.0505253543
C   C114      1.0  0.23000  0.43182  0.66110  1.0000 0.0505253543
C   C115      1.0  0.23000  0.06818  0.16110  1.0000 0.0505253543
C   C116      1.0  0.77000  0.56818  0.33890  1.0000 0.0505253543
C   C117      1.0  0.77280  0.96804  0.80010  1.0000 -0.1496622951
C   C118      1.0  0.22720  0.46804  0.69990  1.0000 -0.1496622951
C   C119      1.0  0.22720  0.03196  0.19990  1.0000 -0.1496622951
C   C120      1.0  0.77280  0.53196  0.30010  1.0000 -0.1496622951
C   C121      1.0  0.04100  0.88989  0.88860  1.0000 0.5607202417
C   C122      1.0  0.95900  0.38989  0.61140  1.0000 0.5607202417
C   C123      1.0  0.95900  0.11011  0.11140  1.0000 0.5607202417
C   C124      1.0  0.04100  0.61011  0.38860  1.0000 0.5607202417
C   C125      1.0  0.67360  0.92066  0.84790  1.0000 0.0824277803
C   C126      1.0  0.32640  0.42066  0.65210  1.0000 0.0824277803
C   C127      1.0  0.32640  0.07934  0.15210  1.0000 0.0824277803
C   C128      1.0  0.67360  0.57934  0.34790  1.0000 0.0824277803
C   C129      1.0  0.67910  0.89705  0.91600  1.0000 -0.1592754618
C   C130      1.0  0.32090  0.39705  0.58400  1.0000 -0.1592754618
C   C131      1.0  0.32090  0.10295  0.08400  1.0000 -0.1592754618
C   C132      1.0  0.67910  0.60295  0.41600  1.0000 -0.1592754618
C   C133      1.0  0.58870  0.88584  0.92060  1.0000 -0.0999451199
C   C134      1.0  0.41130  0.38584  0.57940  1.0000 -0.0999451199
C   C135      1.0  0.41130  0.11416  0.07940  1.0000 -0.0999451199
C   C136      1.0  0.58870  0.61416  0.42060  1.0000 -0.0999451199
C   C137      1.0  0.48970  0.89984  0.86080  1.0000 -0.0566411809
C   C138      1.0  0.51030  0.39984  0.63920  1.0000 -0.0566411809
C   C139      1.0  0.51030  0.10016  0.13920  1.0000 -0.0566411809
C   C140      1.0  0.48970  0.60016  0.36080  1.0000 -0.0566411809
C   C141      1.0  0.48150  0.92460  0.79440  1.0000 0.0505253543
C   C142      1.0  0.51850  0.42460  0.70560  1.0000 0.0505253543
C   C143      1.0  0.51850  0.07540  0.20560  1.0000 0.0505253543
C   C144      1.0  0.48150  0.57540  0.29440  1.0000 0.0505253543
C   C145      1.0  0.57440  0.93384  0.78830  1.0000 -0.2001772978
C   C146      1.0  0.42560  0.43384  0.71170  1.0000 -0.2001772978
C   C147      1.0  0.42560  0.06616  0.21170  1.0000 -0.2001772978
C   C148      1.0  0.57440  0.56616  0.28830  1.0000 -0.2001772978
C   C149      1.0  0.39220  0.88250  0.86420  1.0000 0.5523848898
C   C150      1.0  0.60780  0.38250  0.63580  1.0000 0.5523848898
C   C151      1.0  0.60780  0.11750  0.13580  1.0000 0.5523848898
C   C152      1.0  0.39220  0.61750  0.36420  1.0000 0.5523848898
C   C153      1.0  0.38060  0.94112  0.72740  1.0000 0.0606035619
C   C154      1.0  0.61940  0.44112  0.77260  1.0000 0.0606035619
C   C155      1.0  0.61940  0.05888  0.27260  1.0000 0.0606035619
C   C156      1.0  0.38060  0.55888  0.22740  1.0000 0.0606035619
C   C157      1.0  0.35110  0.93469  0.64170  1.0000 -0.1496622951
C   C158      1.0  0.64890  0.43469  0.85830  1.0000 -0.1496622951
C   C159      1.0  0.64890  0.06531  0.35830  1.0000 -0.1496622951
C   C160      1.0  0.35110  0.56531  0.14170  1.0000 -0.1496622951
C   C161      1.0  0.25900  0.95131  0.57890  1.0000 -0.0215697174
C   C162      1.0  0.74100  0.45131  0.92110  1.0000 -0.0215697174
C   C163      1.0  0.74100  0.04869  0.42110  1.0000 -0.0215697174
C   C164      1.0  0.25900  0.54869  0.07890  1.0000 -0.0215697174
C   C165      1.0  0.19910  0.97640  0.60300  1.0000 -0.0999451199
C   C166      1.0  0.80090  0.47640  0.89700  1.0000 -0.0999451199
C   C167      1.0  0.80090  0.02360  0.39700  1.0000 -0.0999451199
C   C168      1.0  0.19910  0.52360  0.10300  1.0000 -0.0999451199
C   C169      1.0  0.22800  0.98349  0.68850  1.0000 -0.0215697174
C   C170      1.0  0.77200  0.48349  0.81150  1.0000 -0.0215697174
C   C171      1.0  0.77200  0.01651  0.31150  1.0000 -0.0215697174
C   C172      1.0  0.22800  0.51651  0.18850  1.0000 -0.0215697174
C   C173      1.0  0.31790  0.96573  0.74930  1.0000 -0.1496622951
C   C174      1.0  0.68210  0.46573  0.75070  1.0000 -0.1496622951
C   C175      1.0  0.68210  0.03427  0.25070  1.0000 -0.1421278037
C   C176      1.0  0.31790  0.53427  0.24930  1.0000 -0.1496622951
C   C177      1.0  0.16550  0.01090  0.71520  1.0000 0.5607202417
C   C178      1.0  0.83450  0.51090  0.78480  1.0000 0.5607202417
C   C179      1.0  0.83450  0.98910  0.28480  1.0000 0.5607202417
C   C180      1.0  0.16550  0.48910  0.21520  1.0000 0.5607202417
C   C181      1.0  0.22550  0.94231  0.48660  1.0000 0.5899326122
C   C182      1.0  0.77450  0.44231  0.01340  1.0000 0.5899326122
C   C183      1.0  0.77450  0.05769  0.51340  1.0000 0.5899326122
C   C184      1.0  0.22550  0.55769  0.98660  1.0000 0.5899326122
C   C185      1.0  0.42740  0.82720  0.64900  1.0000 -0.3003640258
C   C186      1.0  0.29510  0.76770  0.61410  1.0000 -0.2944778734
C   C187      1.0  0.57260  0.32720  0.85100  1.0000 -0.3003640258
C   C188      1.0  0.70490  0.26770  0.88590  1.0000 -0.2944778734
C   C189      1.0  0.57260  0.17280  0.35100  1.0000 -0.3003640258
C   C190      1.0  0.70490  0.23230  0.38590  1.0000 -0.2944778734
C   C191      1.0  0.42740  0.67280  0.14900  1.0000 -0.3003640258
C   C192      1.0  0.29510  0.73230  0.11410  1.0000 -0.2944778734
C   C193      1.0  0.35700  0.49620  0.47380  1.0000 -0.3098572426
C   C194      1.0  0.17000  0.49910  0.45900  1.0000 -0.3098572426
C   C195      1.0  0.64300  0.99620  0.02620  1.0000 -0.3098572426
C   C196      1.0  0.83000  0.99910  0.04100  1.0000 -0.3098572426
C   C197      1.0  0.64300  0.50380  0.52620  1.0000 -0.3098572426
C   C198      1.0  0.83000  0.50090  0.54100  1.0000 -0.3098572426
C   C199      1.0  0.35700  0.00380  0.97380  1.0000 -0.3098572426
C   C200      1.0  0.17000  0.00090  0.95900  1.0000 -0.3098572426
N   N1        1.0  0.33930  0.80640  0.66320  1.0000 -0.0999451199
N   N2        1.0  0.66070  0.30640  0.83680  1.0000 -0.0999451199
N   N3        1.0  0.66070  0.19360  0.33680  1.0000 -0.0999451199
N   N4        1.0  0.33930  0.69360  0.16320  1.0000 -0.0999451199
N   N5        1.0  0.26830  0.52160  0.47920  1.0000 -0.0820022904
N   N6        1.0  0.73170  0.02160  0.02080  1.0000 -0.0820022904
N   N7        1.0  0.73170  0.47840  0.52080  1.0000 -0.0820022904
N   N8        1.0  0.26830  0.97840  0.97920  1.0000 -0.0820022904
O   O1        1.0  0.59490  0.70836  0.46110  1.0000 -0.5488035538
O   O2        1.0  0.40510  0.20836  0.03890  1.0000 -0.5488035538
O   O3        1.0  0.40510  0.29164  0.53890  1.0000 -0.5488035538
O   O4        1.0  0.59490  0.79164  0.96110  1.0000 -0.5488035538
O   O5        1.0  0.48420  0.72641  0.33200  1.0000 -0.5382859604
O   O6        1.0  0.51580  0.22641  0.16800  1.0000 -0.5382859604
O   O7        1.0  0.51580  0.27359  0.66800  1.0000 -0.5382859604
O   O8        1.0  0.48420  0.77359  0.83200  1.0000 -0.5382859604
O   O9        1.0  0.40170  0.84232  0.40420  1.0000 -0.5299796779
O   O10       1.0  0.59830  0.34232  0.09580  1.0000 -0.5299796779
O   O11       1.0  0.59830  0.15768  0.59580  1.0000 -0.5299796779
O   O12       1.0  0.40170  0.65768  0.90420  1.0000 -0.5299796779
O   O13       1.0  0.34920  0.89096  0.30980  1.0000 -0.5382859604
O   O14       1.0  0.65080  0.39096  0.19020  1.0000 -0.5382859604
O   O15       1.0  0.65080  0.10904  0.69020  1.0000 -0.5382859604
O   O16       1.0  0.34920  0.60904  0.80980  1.0000 -0.5382859604
O   O17       1.0  0.31030  0.85259  0.02450  1.0000 -0.5232069128
O   O18       1.0  0.68970  0.35259  0.47550  1.0000 -0.5232069128
O   O19       1.0  0.68970  0.14741  0.97550  1.0000 -0.5232069128
O   O20       1.0  0.31030  0.64741  0.52450  1.0000 -0.5232069128
O   O21       1.0  0.43910  0.81733  0.01810  1.0000 -0.5609351927
O   O22       1.0  0.56090  0.31733  0.48190  1.0000 -0.5609351927
O   O23       1.0  0.56090  0.18267  0.98190  1.0000 -0.5609351927
O   O24       1.0  0.43910  0.68267  0.51810  1.0000 -0.5609351927
O   O25       1.0  0.00460  0.88515  0.33010  1.0000 -0.5382859604
O   O26       1.0  0.99540  0.38515  0.16990  1.0000 -0.5382859604
O   O27       1.0  0.99540  0.11485  0.66990  1.0000 -0.5382859604
O   O28       1.0  0.00460  0.61485  0.83010  1.0000 -0.5382859604
O   O29       1.0  0.14490  0.87144  0.31130  1.0000 -0.5299796779
O   O30       1.0  0.85510  0.37144  0.18870  1.0000 -0.5299796779
O   O31       1.0  0.85510  0.12856  0.68870  1.0000 -0.5299796779
O   O32       1.0  0.14490  0.62856  0.81130  1.0000 -0.5299796779
O   O33       1.0  0.27240  0.73197  0.35110  1.0000 -0.5232069128
O   O34       1.0  0.72760  0.23197  0.14890  1.0000 -0.5232069128
O   O35       1.0  0.72760  0.26803  0.64890  1.0000 -0.5232069128
O   O36       1.0  0.27240  0.76803  0.85110  1.0000 -0.5232069128
O   O37       1.0  0.16180  0.68327  0.34140  1.0000 -0.5299796779
O   O38       1.0  0.83820  0.18327  0.15860  1.0000 -0.5299796779
O   O39       1.0  0.83820  0.31673  0.65860  1.0000 -0.5299796779
O   O40       1.0  0.16180  0.81673  0.84140  1.0000 -0.5299796779
O   O41       1.0  0.77730  0.03688  0.71280  1.0000 -0.5382859604
O   O42       1.0  0.22270  0.53688  0.78720  1.0000 -0.5382859604
O   O43       1.0  0.22270  0.96312  0.28720  1.0000 -0.5382859604
O   O44       1.0  0.77730  0.46312  0.21280  1.0000 -0.5382859604
O   O45       1.0  0.94920  0.02894  0.75420  1.0000 -0.5299796779
O   O46       1.0  0.05080  0.52894  0.74580  1.0000 -0.5299796779
O   O47       1.0  0.05080  0.97106  0.24580  1.0000 -0.5299796779
O   O48       1.0  0.94920  0.47106  0.25420  1.0000 -0.5299796779
O   O49       1.0  0.11940  0.90242  0.87830  1.0000 -0.5609351927
O   O50       1.0  0.88060  0.40242  0.62170  1.0000 -0.5609351927
O   O51       1.0  0.88060  0.09758  0.12170  1.0000 -0.5609351927
O   O52       1.0  0.11940  0.59758  0.37830  1.0000 -0.5609351927
O   O53       1.0  0.03550  0.85787  0.91930  1.0000 -0.5299796779
O   O54       1.0  0.96450  0.35787  0.58070  1.0000 -0.5299796779
O   O55       1.0  0.96450  0.14213  0.08070  1.0000 -0.5299796779
O   O56       1.0  0.03550  0.64213  0.41930  1.0000 -0.5299796779
O   O57       1.0  0.37340  0.84631  0.84430  1.0000 -0.5685787582
O   O58       1.0  0.62660  0.34631  0.65570  1.0000 -0.5685787582
O   O59       1.0  0.62660  0.15369  0.15570  1.0000 -0.5685787582
O   O60       1.0  0.37340  0.65369  0.34430  1.0000 -0.5685787582
O   O61       1.0  0.33950  0.90205  0.88860  1.0000 -0.484962725
O   O62       1.0  0.66050  0.40205  0.61140  1.0000 -0.484962725
O   O63       1.0  0.66050  0.09795  0.11140  1.0000 -0.484962725
O   O64       1.0  0.33950  0.59795  0.38860  1.0000 -0.484962725
O   O65       1.0  0.18530  0.01340  0.79040  1.0000 -0.5299796779
O   O66       1.0  0.81470  0.51340  0.70960  1.0000 -0.5299796779
O   O67       1.0  0.81470  0.98660  0.20960  1.0000 -0.5299796779
O   O68       1.0  0.18530  0.48660  0.29040  1.0000 -0.5299796779
O   O69       1.0  0.08970  0.02835  0.65530  1.0000 -0.5232069128
O   O70       1.0  0.91030  0.52835  0.84470  1.0000 -0.5232069128
O   O71       1.0  0.91030  0.97165  0.34470  1.0000 -0.5232069128
O   O72       1.0  0.08970  0.47165  0.15530  1.0000 -0.5232069128
O   O73       1.0  0.13820  0.95534  0.43410  1.0000 -0.5488035538
O   O74       1.0  0.86180  0.45534  0.06590  1.0000 -0.5488035538
O   O75       1.0  0.86180  0.04466  0.56590  1.0000 -0.5488035538
O   O76       1.0  0.13820  0.54466  0.93410  1.0000 -0.5488035538
O   O77       1.0  0.28810  0.92345  0.46860  1.0000 -0.5299796779
O   O78       1.0  0.71190  0.42345  0.03140  1.0000 -0.5299796779
O   O79       1.0  0.71190  0.07655  0.53140  1.0000 -0.5299796779
O   O80       1.0  0.28810  0.57655  0.96860  1.0000 -0.5299796779
O   O81       1.0  0.45050  0.76754  0.48000  1.0000 -0.7302721524
O   O82       1.0  0.54950  0.26754  0.02000  1.0000 -0.7302721524
O   O83       1.0  0.54950  0.23246  0.52000  1.0000 -0.7302721524
O   O84       1.0  0.45050  0.73246  0.98000  1.0000 -0.7302721524
O   O85       1.0  0.88190  0.91760  0.19310  1.0000 -0.7486740285
O   O86       1.0  0.11810  0.41760  0.30690  1.0000 -0.7486740285
O   O87       1.0  0.11810  0.08240  0.80690  1.0000 -0.7486740285
O   O88       1.0  0.88190  0.58240  0.69310  1.0000 -0.7486740285
