# DDEC6 charges by PACMAN v1.1 (https://github.com/mtap-research/PACMAN-charge/)
data_2015[Co][bnn]3[ION]4
_chemical_formula_sum              "Co4 H76 C92 N16 O24"
_cell_length_a       10.2208
_cell_length_b       23.966
_cell_length_c       11.4286
_cell_angle_alpha    90
_cell_angle_beta     91.7114
_cell_angle_gamma    90

_symmetry_space_group_name_H-M    "P 1"
_symmetry_Int_Tables_number       1

loop_
  _symmetry_equiv_pos_as_xyz
  'x, y, z'

loop_
  _atom_site_type_symbol
  _atom_site_label
  _atom_site_symmetry_multiplicity
  _atom_site_fract_x
  _atom_site_fract_y
  _atom_site_fract_z
  _atom_site_occupancy
  _atom_site_charge
Co  Co1       1.0  0.00402  0.33949  0.41947  1.0000 0.7862082231
Co  Co2       1.0  0.99598  0.83949  0.58053  1.0000 0.7862082231
Co  Co3       1.0  0.50662  0.25839  0.43809  1.0000 0.764213245
Co  Co4       1.0  0.49338  0.75839  0.56191  1.0000 0.764213245
H   H1        1.0  0.81350  0.33250  0.63080  1.0000 0.1099285418
H   H2        1.0  0.18650  0.83250  0.36920  1.0000 0.1099285418
H   H3        1.0  0.69300  0.27410  0.23210  1.0000 0.100379321
H   H4        1.0  0.30700  0.77410  0.76790  1.0000 0.100379321
H   H5        1.0  0.31640  0.27090  0.64610  1.0000 0.100379321
H   H6        1.0  0.68360  0.77090  0.35390  1.0000 0.100379321
H   H7        1.0  0.80770  0.34000  0.83020  1.0000 0.13122305
H   H8        1.0  0.19230  0.84000  0.16980  1.0000 0.13122305
H   H9        1.0  0.31230  0.26450  0.84870  1.0000 0.13122305
H   H10       1.0  0.68770  0.76450  0.15130  1.0000 0.13122305
H   H11       1.0  0.19500  0.32790  0.01090  1.0000 0.13122305
H   H12       1.0  0.80500  0.82790  0.98910  1.0000 0.13122305
H   H13       1.0  0.46300  0.34900  0.51690  1.0000 0.3120330978
H   H14       1.0  0.53700  0.84900  0.48310  1.0000 0.3120330978
H   H15       1.0  0.92300  0.22900  0.36100  1.0000 0.3315922577
H   H16       1.0  0.07700  0.72900  0.63900  1.0000 0.3315922577
H   H17       1.0  0.73810  0.89760  0.62830  1.0000 0.1099285418
H   H18       1.0  0.26190  0.39760  0.37170  1.0000 0.1099285418
H   H19       1.0  0.69860  0.26840  0.03000  1.0000 0.13122305
H   H20       1.0  0.30140  0.76840  0.97000  1.0000 0.13122305
H   H21       1.0  0.18860  0.32150  0.21160  1.0000 0.100379321
H   H22       1.0  0.81140  0.82150  0.78840  1.0000 0.100379321
H   H23       1.0  0.69240  0.24040  0.64860  1.0000 0.100379321
H   H24       1.0  0.30760  0.74040  0.35140  1.0000 0.100379321
H   H25       1.0  0.18720  0.36270  0.62680  1.0000 0.1099285418
H   H26       1.0  0.81280  0.86270  0.37320  1.0000 0.1099285418
H   H27       1.0  0.32420  0.22570  0.22540  1.0000 0.1099285418
H   H28       1.0  0.67580  0.72570  0.77460  1.0000 0.1099285418
H   H29       1.0  0.31700  0.22210  0.02310  1.0000 0.13122305
H   H30       1.0  0.68300  0.72210  0.97690  1.0000 0.13122305
H   H31       1.0  0.82550  0.38590  0.00580  1.0000 0.13122305
H   H32       1.0  0.17450  0.88590  0.99420  1.0000 0.13122305
H   H33       1.0  0.69930  0.23370  0.84970  1.0000 0.1360508311
H   H34       1.0  0.30070  0.73370  0.15030  1.0000 0.1360508311
H   H35       1.0  0.82780  0.37860  0.20740  1.0000 0.100379321
H   H36       1.0  0.17220  0.87860  0.79260  1.0000 0.100379321
H   H37       1.0  0.59490  0.41020  0.48120  1.0000 0.100379321
H   H38       1.0  0.40510  0.91020  0.51880  1.0000 0.100379321
H   H39       1.0  0.19780  0.37130  0.82850  1.0000 0.13122305
H   H40       1.0  0.80220  0.87130  0.17150  1.0000 0.13122305
H   H41       1.0  0.09570  0.18890  0.36320  1.0000 0.100379321
H   H42       1.0  0.90430  0.68890  0.63680  1.0000 0.100379321
H   H43       1.0  0.63020  0.98070  0.59360  1.0000 0.13122305
H   H44       1.0  0.36980  0.48070  0.40640  1.0000 0.13122305
H   H45       1.0  0.84350  0.10610  0.38560  1.0000 0.13122305
H   H46       1.0  0.15650  0.60610  0.61440  1.0000 0.13122305
H   H47       1.0  0.56340  0.06610  0.61480  1.0000 0.13122305
H   H48       1.0  0.43660  0.56610  0.38520  1.0000 0.13122305
H   H49       1.0  0.06810  0.96300  0.52670  1.0000 0.1099285418
H   H50       1.0  0.93190  0.46300  0.47330  1.0000 0.1099285418
H   H51       1.0  0.43240  0.39930  0.04250  1.0000 0.1171982024
H   H52       1.0  0.56760  0.89930  0.95750  1.0000 0.1171982024
H   H53       1.0  0.70280  0.47280  0.33870  1.0000 0.1099285418
H   H54       1.0  0.29720  0.97280  0.66130  1.0000 0.1099285418
H   H55       1.0  0.97080  0.04610  0.48640  1.0000 0.13122305
H   H56       1.0  0.02920  0.54610  0.51360  1.0000 0.13122305
H   H57       1.0  0.43620  0.35850  0.22870  1.0000 0.1099285418
H   H58       1.0  0.56380  0.85850  0.77130  1.0000 0.1099285418
H   H59       1.0  0.46120  0.14940  0.56890  1.0000 0.100379321
H   H60       1.0  0.53880  0.64940  0.43110  1.0000 0.100379321
H   H61       1.0  0.93890  0.23020  0.61770  1.0000 0.1099285418
H   H62       1.0  0.06110  0.73020  0.38230  1.0000 0.1099285418
H   H63       1.0  0.56830  0.47390  0.00040  1.0000 0.1171982024
H   H64       1.0  0.43170  0.97390  0.99960  1.0000 0.1171982024
H   H65       1.0  0.69790  0.51330  0.15510  1.0000 0.1099285418
H   H66       1.0  0.30210  0.01330  0.84490  1.0000 0.1099285418
H   H67       1.0  0.21530  0.12630  0.50160  1.0000 0.1171982024
H   H68       1.0  0.78470  0.62630  0.49840  1.0000 0.1171982024
H   H69       1.0  0.22100  0.08070  0.68190  1.0000 0.100379321
H   H70       1.0  0.77900  0.58070  0.31810  1.0000 0.100379321
H   H71       1.0  0.72810  0.18670  0.34330  1.0000 0.1099285418
H   H72       1.0  0.27190  0.68670  0.65670  1.0000 0.1099285418
H   H73       1.0  0.96010  0.19040  0.80900  1.0000 0.1171982024
H   H74       1.0  0.03990  0.69040  0.19100  1.0000 0.1171982024
H   H75       1.0  0.09220  0.11220  0.83130  1.0000 0.1099285418
H   H76       1.0  0.90780  0.61220  0.16870  1.0000 0.1099285418
C   C1        1.0  0.89340  0.33980  0.67250  1.0000 0.0720782877
C   C2        1.0  0.10660  0.83980  0.32750  1.0000 0.0720782877
C   C3        1.0  0.61590  0.26340  0.18940  1.0000 0.0804973948
C   C4        1.0  0.38410  0.76340  0.81060  1.0000 0.0804973948
C   C5        1.0  0.39590  0.26340  0.68830  1.0000 0.0904933695
C   C6        1.0  0.60410  0.76340  0.31170  1.0000 0.0904933695
C   C7        1.0  0.88800  0.34400  0.79130  1.0000 -0.1704241675
C   C8        1.0  0.11200  0.84400  0.20870  1.0000 -0.1704241675
C   C9        1.0  0.39200  0.25950  0.80940  1.0000 -0.189451491
C   C10       1.0  0.60800  0.75950  0.19060  1.0000 -0.189451491
C   C11       1.0  0.11670  0.33740  0.04910  1.0000 -0.189451491
C   C12       1.0  0.88330  0.83740  0.95090  1.0000 -0.189451491
C   C13       1.0  0.00350  0.35410  0.85250  1.0000 0.1099285418
C   C14       1.0  0.99650  0.85410  0.14750  1.0000 0.1099285418
C   C15       1.0  0.70840  0.34380  0.42400  1.0000 0.5515794862
C   C16       1.0  0.29160  0.84380  0.57600  1.0000 0.5515794862
C   C17       1.0  0.00860  0.35480  0.98330  1.0000 0.1171982024
C   C18       1.0  0.99140  0.85480  0.01670  1.0000 0.1171982024
C   C19       1.0  0.78530  0.92810  0.59710  1.0000 0.100379321
C   C20       1.0  0.21470  0.42810  0.40290  1.0000 0.100379321
C   C21       1.0  0.61900  0.26090  0.06780  1.0000 -0.1762074969
C   C22       1.0  0.38100  0.76090  0.93220  1.0000 -0.1762074969
C   C23       1.0  0.11250  0.33350  0.16900  1.0000 0.0720782877
C   C24       1.0  0.88750  0.83350  0.83100  1.0000 0.0720782877
C   C25       1.0  0.61400  0.24580  0.68970  1.0000 0.0720782877
C   C26       1.0  0.38600  0.74580  0.31030  1.0000 0.0720782877
C   C27       1.0  0.10980  0.35720  0.66940  1.0000 0.0720782877
C   C28       1.0  0.89020  0.85720  0.33060  1.0000 0.0720782877
C   C29       1.0  0.50710  0.24830  0.87100  1.0000 0.1099285418
C   C30       1.0  0.49290  0.74830  0.12900  1.0000 0.1099285418
C   C31       1.0  0.20970  0.25410  0.43390  1.0000 0.5579699088
C   C32       1.0  0.79030  0.75410  0.56610  1.0000 0.5579699088
C   C33       1.0  0.40060  0.23570  0.18480  1.0000 0.0804973948
C   C34       1.0  0.59940  0.73570  0.81520  1.0000 0.0804973948
C   C35       1.0  0.39520  0.23330  0.06370  1.0000 -0.189451491
C   C36       1.0  0.60480  0.73330  0.93630  1.0000 -0.189451491
C   C37       1.0  0.90070  0.37140  0.04600  1.0000 -0.189451491
C   C38       1.0  0.09930  0.87140  0.95400  1.0000 -0.189451491
C   C39       1.0  0.61860  0.24140  0.80960  1.0000 -0.1762074969
C   C40       1.0  0.38140  0.74140  0.19040  1.0000 -0.1762074969
C   C41       1.0  0.90260  0.36670  0.16670  1.0000 0.0904933695
C   C42       1.0  0.09740  0.86670  0.83330  1.0000 0.0904933695
C   C43       1.0  0.58590  0.38130  0.41840  1.0000 -0.0178430122
C   C44       1.0  0.41410  0.88130  0.58160  1.0000 -0.0178430122
C   C45       1.0  0.50800  0.24770  0.00120  1.0000 0.1171982024
C   C46       1.0  0.49200  0.74770  0.99880  1.0000 0.1171982024
C   C47       1.0  0.71710  0.07600  0.50540  1.0000 0.1171982024
C   C48       1.0  0.28290  0.57600  0.49460  1.0000 0.1171982024
C   C49       1.0  0.11720  0.36230  0.78930  1.0000 -0.189451491
C   C50       1.0  0.88280  0.86230  0.21070  1.0000 -0.189451491
C   C51       1.0  0.08730  0.21620  0.42880  1.0000 -7.04824e-05
C   C52       1.0  0.91270  0.71620  0.57120  1.0000 -7.04824e-05
C   C53       1.0  0.78610  0.02320  0.53300  1.0000 0.1099285418
C   C54       1.0  0.21390  0.52320  0.46700  1.0000 0.1099285418
C   C55       1.0  0.72050  0.97770  0.57710  1.0000 -0.1762074969
C   C56       1.0  0.27950  0.47770  0.42290  1.0000 -0.1762074969
C   C57       1.0  0.76440  0.11370  0.42440  1.0000 -0.189451491
C   C58       1.0  0.23560  0.61370  0.57560  1.0000 -0.189451491
C   C59       1.0  0.57280  0.41050  0.30190  1.0000 0.0720782877
C   C60       1.0  0.42720  0.91050  0.69810  1.0000 0.0720782877
C   C61       1.0  0.60040  0.09050  0.55930  1.0000 -0.1969175529
C   C62       1.0  0.39960  0.59050  0.44070  1.0000 -0.1969175529
C   C63       1.0  0.97660  0.96630  0.53750  1.0000 0.0720782877
C   C64       1.0  0.02340  0.46630  0.46250  1.0000 0.0720782877
C   C65       1.0  0.48920  0.41400  0.10210  1.0000 -0.084147152
C   C66       1.0  0.51080  0.91400  0.89790  1.0000 -0.084147152
C   C67       1.0  0.64850  0.45720  0.27820  1.0000 -0.1704241675
C   C68       1.0  0.35150  0.95720  0.72180  1.0000 -0.1704241675
C   C69       1.0  0.92020  0.01600  0.51470  1.0000 -0.189451491
C   C70       1.0  0.07980  0.51600  0.48530  1.0000 -0.189451491
C   C71       1.0  0.49110  0.38950  0.21370  1.0000 -0.13757043
C   C72       1.0  0.50890  0.88950  0.78630  1.0000 -0.13757043
C   C73       1.0  0.08140  0.18390  0.54470  1.0000 0.0621099431
C   C74       1.0  0.91860  0.68390  0.45530  1.0000 0.0621099431
C   C75       1.0  0.53990  0.14020  0.53120  1.0000 0.0720782877
C   C76       1.0  0.46010  0.64020  0.46880  1.0000 0.0720782877
C   C77       1.0  0.00050  0.20130  0.63290  1.0000 -0.13757043
C   C78       1.0  0.99950  0.70130  0.36710  1.0000 -0.13757043
C   C79       1.0  0.56720  0.45860  0.07710  1.0000 -0.0991628708
C   C80       1.0  0.43280  0.95860  0.92290  1.0000 -0.0991628708
C   C81       1.0  0.64610  0.48120  0.16900  1.0000 -0.0991628708
C   C82       1.0  0.35390  0.98120  0.83100  1.0000 -0.0991628708
C   C83       1.0  0.16190  0.13900  0.56270  1.0000 -0.1539694857
C   C84       1.0  0.83810  0.63900  0.43730  1.0000 -0.1539694857
C   C85       1.0  0.16580  0.11210  0.66960  1.0000 -0.1055576097
C   C86       1.0  0.83420  0.61210  0.33040  1.0000 -0.1055576097
C   C87       1.0  0.69540  0.16210  0.40070  1.0000 0.0904933695
C   C88       1.0  0.30460  0.66210  0.59930  1.0000 0.0904933695
C   C89       1.0  0.00850  0.17630  0.74560  1.0000 -0.0872703608
C   C90       1.0  0.99150  0.67630  0.25440  1.0000 -0.0872703608
C   C91       1.0  0.08890  0.13130  0.75840  1.0000 -0.0991628708
C   C92       1.0  0.91110  0.63130  0.24160  1.0000 -0.0991628708
N   N1        1.0  0.00430  0.34630  0.22850  1.0000 -0.2404328924
N   N2        1.0  0.99570  0.84630  0.77150  1.0000 -0.2529739361
N   N3        1.0  0.50730  0.25120  0.24860  1.0000 -0.2529739361
N   N4        1.0  0.49270  0.75120  0.75140  1.0000 -0.2529739361
N   N5        1.0  0.50310  0.25720  0.62810  1.0000 -0.2529739361
N   N6        1.0  0.49690  0.75720  0.37190  1.0000 -0.2529739361
N   N7        1.0  0.99940  0.34500  0.61010  1.0000 -0.2404328924
N   N8        1.0  0.00060  0.84500  0.38990  1.0000 -0.2404328924
N   N9        1.0  0.91190  0.92100  0.57450  1.0000 -0.2404328924
N   N10       1.0  0.08810  0.42100  0.42550  1.0000 -0.2404328924
N   N11       1.0  0.58650  0.17650  0.45310  1.0000 -0.2404328924
N   N12       1.0  0.41350  0.67650  0.54690  1.0000 -0.2404328924
N   N13       1.0  0.52070  0.89010  0.27930  1.0000 0.6995814401
N   N14       1.0  0.47930  0.39010  0.72070  1.0000 0.6995814401
N   N15       1.0  0.02610  0.71250  0.88120  1.0000 0.6995814401
N   N16       1.0  0.97390  0.21250  0.11880  1.0000 0.6995814401
O   O1        1.0  0.69420  0.29240  0.43840  1.0000 -0.5304021579
O   O2        1.0  0.30580  0.79240  0.56160  1.0000 -0.5304021579
O   O3        1.0  0.19200  0.30590  0.43060  1.0000 -0.5304021579
O   O4        1.0  0.80800  0.80590  0.56940  1.0000 -0.5304021579
O   O5        1.0  0.81500  0.36850  0.41480  1.0000 -0.5411912691
O   O6        1.0  0.18500  0.86850  0.58520  1.0000 -0.5411912691
O   O7        1.0  0.31750  0.22950  0.43650  1.0000 -0.5411912691
O   O8        1.0  0.68250  0.72950  0.56350  1.0000 -0.5411912691
O   O9        1.0  0.47230  0.34770  0.44060  1.0000 -0.4739029002
O   O10       1.0  0.52770  0.84770  0.55940  1.0000 -0.4739029002
O   O11       1.0  0.97500  0.24930  0.40700  1.0000 -0.4791626376
O   O12       1.0  0.02500  0.74930  0.59300  1.0000 -0.4791626376
O   O13       1.0  0.40270  0.87810  0.29710  1.0000 -0.4596838247
O   O14       1.0  0.60000  0.89290  0.36470  1.0000 -0.4496313822
O   O15       1.0  0.55490  0.89990  0.17810  1.0000 -0.4400160205
O   O16       1.0  0.59730  0.37810  0.70290  1.0000 -0.4596838247
O   O17       1.0  0.40000  0.39290  0.63530  1.0000 -0.4496313822
O   O18       1.0  0.44510  0.39990  0.82190  1.0000 -0.4400160205
O   O19       1.0  0.06130  0.71760  0.98470  1.0000 -0.4237893414
O   O20       1.0  0.10870  0.71620  0.80130  1.0000 -0.4596838247
O   O21       1.0  0.91000  0.70450  0.85540  1.0000 -0.4275334072
O   O22       1.0  0.93870  0.21760  0.01530  1.0000 -0.4237893414
O   O23       1.0  0.89130  0.21620  0.19870  1.0000 -0.4596838247
O   O24       1.0  0.09000  0.20450  0.14460  1.0000 -0.4275334072
