# DDEC6 charges by PACMAN v1.1 (https://github.com/mtap-research/PACMAN-charge/)
data_2015[ZnRu][hex]3[ION]1
_chemical_formula_sum              "Zn8 H192 Ru4 C240 N8 O64"
_cell_length_a       14.514
_cell_length_b       22.314
_cell_length_c       24.572
_cell_angle_alpha    90
_cell_angle_beta     90
_cell_angle_gamma    90

_symmetry_space_group_name_H-M    "P 1"
_symmetry_Int_Tables_number       1

loop_
  _symmetry_equiv_pos_as_xyz
  'x, y, z'

loop_
  _atom_site_type_symbol
  _atom_site_label
  _atom_site_symmetry_multiplicity
  _atom_site_fract_x
  _atom_site_fract_y
  _atom_site_fract_z
  _atom_site_occupancy
  _atom_site_charge
Zn  Zn1       1.0  0.04227  0.35209  0.34432  1.0000 0.8882391946
Zn  Zn2       1.0  0.45773  0.35209  0.84432  1.0000 0.8882391946
Zn  Zn3       1.0  0.53757  0.67378  0.84187  1.0000 0.8882391946
Zn  Zn4       1.0  0.96243  0.67378  0.34187  1.0000 0.8882391946
Zn  Zn5       1.0  0.95773  0.85209  0.65568  1.0000 0.8882391946
Zn  Zn6       1.0  0.54227  0.85209  0.15568  1.0000 0.8882391946
Zn  Zn7       1.0  0.46243  0.17378  0.15813  1.0000 0.8882391946
Zn  Zn8       1.0  0.03757  0.17378  0.65813  1.0000 0.8882391946
H   H1        1.0  0.38790  0.14050  0.74900  1.0000 0.1090317529
H   H2        1.0  0.11210  0.14050  0.24900  1.0000 0.1090317529
H   H3        1.0  0.42440  0.03890  0.75810  1.0000 0.1090317529
H   H4        1.0  0.07560  0.03890  0.25810  1.0000 0.1090317529
H   H5        1.0  0.57300  0.07610  0.89360  1.0000 0.1007915632
H   H6        1.0  0.92700  0.07610  0.39360  1.0000 0.1007915632
H   H7        1.0  0.53650  0.17780  0.88450  1.0000 0.1090317529
H   H8        1.0  0.96350  0.17780  0.38450  1.0000 0.1090317529
H   H9        1.0  0.50980  0.95600  0.75540  1.0000 0.1090317529
H   H10       1.0  0.99020  0.95600  0.25540  1.0000 0.1090317529
H   H11       1.0  0.53460  0.85360  0.76950  1.0000 0.1199819739
H   H12       1.0  0.96540  0.85360  0.26950  1.0000 0.1199819739
H   H13       1.0  0.57120  0.88430  0.93070  1.0000 0.1090317529
H   H14       1.0  0.92880  0.88430  0.43070  1.0000 0.1090317529
H   H15       1.0  0.54630  0.98670  0.91650  1.0000 0.1090317529
H   H16       1.0  0.95370  0.98670  0.41650  1.0000 0.1090317529
H   H17       1.0  0.83480  0.64880  0.87430  1.0000 0.1199819739
H   H18       1.0  0.66520  0.64880  0.37430  1.0000 0.1199819739
H   H19       1.0  0.98490  0.61060  0.87430  1.0000 0.1199819739
H   H20       1.0  0.51510  0.61060  0.37430  1.0000 0.1199819739
H   H21       1.0  0.88350  0.44240  0.85670  1.0000 0.1090317529
H   H22       1.0  0.61650  0.44240  0.35670  1.0000 0.1090317529
H   H23       1.0  0.73340  0.48070  0.85670  1.0000 0.1302975682
H   H24       1.0  0.76660  0.48070  0.35670  1.0000 0.1302975682
H   H25       1.0  0.10290  0.57500  0.82860  1.0000 0.1199819739
H   H26       1.0  0.39710  0.57500  0.32860  1.0000 0.1199819739
H   H27       1.0  0.25180  0.53610  0.81950  1.0000 0.1199819739
H   H28       1.0  0.24820  0.53610  0.31950  1.0000 0.1199819739
H   H29       1.0  0.16460  0.37750  0.88120  1.0000 0.1199819739
H   H30       1.0  0.33540  0.37750  0.38120  1.0000 0.1199819739
H   H31       1.0  0.01570  0.41640  0.89040  1.0000 0.1090317529
H   H32       1.0  0.48430  0.41640  0.39040  1.0000 0.1090317529
H   H33       1.0  0.32950  0.52290  0.95840  1.0000 0.1199819739
H   H34       1.0  0.17050  0.52290  0.45840  1.0000 0.1199819739
H   H35       1.0  0.23870  0.51910  0.03710  1.0000 0.1090317529
H   H36       1.0  0.26130  0.51910  0.53710  1.0000 0.1090317529
H   H37       1.0  0.28400  0.69620  0.06230  1.0000 0.1199819739
H   H38       1.0  0.21600  0.69620  0.56230  1.0000 0.1199819739
H   H39       1.0  0.37470  0.70000  0.98370  1.0000 0.1199819739
H   H40       1.0  0.12530  0.70000  0.48370  1.0000 0.1199819739
H   H41       1.0  0.23560  0.51930  0.13160  1.0000 0.1090317529
H   H42       1.0  0.26440  0.51930  0.63160  1.0000 0.1090317529
H   H43       1.0  0.14820  0.51660  0.21160  1.0000 0.1199819739
H   H44       1.0  0.35180  0.51660  0.71160  1.0000 0.1199819739
H   H45       1.0  0.05200  0.68340  0.17960  1.0000 0.1302975682
H   H46       1.0  0.44800  0.68340  0.67960  1.0000 0.1302975682
H   H47       1.0  0.13940  0.68610  0.09960  1.0000 0.1090317529
H   H48       1.0  0.36060  0.68610  0.59960  1.0000 0.1090317529
H   H49       1.0  0.91550  0.33650  0.18900  1.0000 0.1199819739
H   H50       1.0  0.58450  0.33650  0.68900  1.0000 0.1199819739
H   H51       1.0  0.82530  0.33910  0.11010  1.0000 0.1090317529
H   H52       1.0  0.67470  0.33910  0.61010  1.0000 0.1090317529
H   H53       1.0  0.71200  0.49590  0.15960  1.0000 0.1090317529
H   H54       1.0  0.78800  0.49590  0.65960  1.0000 0.1090317529
H   H55       1.0  0.80220  0.49330  0.23850  1.0000 0.1199819739
H   H56       1.0  0.69780  0.49330  0.73850  1.0000 0.1199819739
H   H57       1.0  0.68390  0.32880  0.07390  1.0000 0.1090317529
H   H58       1.0  0.81610  0.32880  0.57390  1.0000 0.1090317529
H   H59       1.0  0.59440  0.32830  0.99470  1.0000 0.1199819739
H   H60       1.0  0.90560  0.32830  0.49470  1.0000 0.1199819739
H   H61       1.0  0.61370  0.50930  0.98610  1.0000 0.1199819739
H   H62       1.0  0.88630  0.50930  0.48610  1.0000 0.1199819739
H   H63       1.0  0.70330  0.50980  0.06530  1.0000 0.1090317529
H   H64       1.0  0.79670  0.50980  0.56530  1.0000 0.1090317529
H   H65       1.0  0.61210  0.64050  0.25100  1.0000 0.1090317529
H   H66       1.0  0.88790  0.64050  0.75100  1.0000 0.1090317529
H   H67       1.0  0.57560  0.53890  0.24190  1.0000 0.1090317529
H   H68       1.0  0.92440  0.53890  0.74190  1.0000 0.1090317529
H   H69       1.0  0.42700  0.57610  0.10640  1.0000 0.1007915632
H   H70       1.0  0.07300  0.57610  0.60640  1.0000 0.1007915632
H   H71       1.0  0.46350  0.67780  0.11550  1.0000 0.1090317529
H   H72       1.0  0.03650  0.67780  0.61550  1.0000 0.1090317529
H   H73       1.0  0.49020  0.45600  0.24460  1.0000 0.1090317529
H   H74       1.0  0.00980  0.45600  0.74460  1.0000 0.1090317529
H   H75       1.0  0.46540  0.35360  0.23050  1.0000 0.1199819739
H   H76       1.0  0.03460  0.35360  0.73050  1.0000 0.1199819739
H   H77       1.0  0.42880  0.38430  0.06930  1.0000 0.1090317529
H   H78       1.0  0.07120  0.38430  0.56930  1.0000 0.1090317529
H   H79       1.0  0.45370  0.48670  0.08350  1.0000 0.1090317529
H   H80       1.0  0.04630  0.48670  0.58350  1.0000 0.1090317529
H   H81       1.0  0.16520  0.14880  0.12570  1.0000 0.1199819739
H   H82       1.0  0.33480  0.14880  0.62570  1.0000 0.1199819739
H   H83       1.0  0.01510  0.11060  0.12570  1.0000 0.1199819739
H   H84       1.0  0.48490  0.11060  0.62570  1.0000 0.1199819739
H   H85       1.0  0.11650  0.94240  0.14330  1.0000 0.1090317529
H   H86       1.0  0.38350  0.94240  0.64330  1.0000 0.1090317529
H   H87       1.0  0.26660  0.98070  0.14330  1.0000 0.1302975682
H   H88       1.0  0.23340  0.98070  0.64330  1.0000 0.1302975682
H   H89       1.0  0.89710  0.07500  0.17140  1.0000 0.1199819739
H   H90       1.0  0.60290  0.07500  0.67140  1.0000 0.1199819739
H   H91       1.0  0.74820  0.03610  0.18050  1.0000 0.1199819739
H   H92       1.0  0.75180  0.03610  0.68050  1.0000 0.1199819739
H   H93       1.0  0.83540  0.87750  0.11880  1.0000 0.1199819739
H   H94       1.0  0.66460  0.87750  0.61880  1.0000 0.1199819739
H   H95       1.0  0.98430  0.91640  0.10960  1.0000 0.1090317529
H   H96       1.0  0.51570  0.91640  0.60960  1.0000 0.1090317529
H   H97       1.0  0.67050  0.02290  0.04160  1.0000 0.1199819739
H   H98       1.0  0.82950  0.02290  0.54160  1.0000 0.1199819739
H   H99       1.0  0.76130  0.01910  0.96290  1.0000 0.1090317529
H   H100      1.0  0.73870  0.01910  0.46290  1.0000 0.1090317529
H   H101      1.0  0.71600  0.19620  0.93770  1.0000 0.1199819739
H   H102      1.0  0.78400  0.19620  0.43770  1.0000 0.1199819739
H   H103      1.0  0.62530  0.20000  0.01630  1.0000 0.1199819739
H   H104      1.0  0.87470  0.20000  0.51630  1.0000 0.1199819739
H   H105      1.0  0.76440  0.01930  0.86840  1.0000 0.1090317529
H   H106      1.0  0.73560  0.01930  0.36840  1.0000 0.1090317529
H   H107      1.0  0.85180  0.01660  0.78840  1.0000 0.1199819739
H   H108      1.0  0.64820  0.01660  0.28840  1.0000 0.1199819739
H   H109      1.0  0.94800  0.18340  0.82040  1.0000 0.1302975682
H   H110      1.0  0.55200  0.18340  0.32040  1.0000 0.1302975682
H   H111      1.0  0.86060  0.18610  0.90040  1.0000 0.1090317529
H   H112      1.0  0.63940  0.18610  0.40040  1.0000 0.1090317529
H   H113      1.0  0.08450  0.83650  0.81100  1.0000 0.1199819739
H   H114      1.0  0.41550  0.83650  0.31100  1.0000 0.1199819739
H   H115      1.0  0.17470  0.83910  0.88990  1.0000 0.1090317529
H   H116      1.0  0.32530  0.83910  0.38990  1.0000 0.1090317529
H   H117      1.0  0.28800  0.99590  0.84040  1.0000 0.1090317529
H   H118      1.0  0.21200  0.99590  0.34040  1.0000 0.1090317529
H   H119      1.0  0.19780  0.99330  0.76150  1.0000 0.1302975682
H   H120      1.0  0.30220  0.99330  0.26150  1.0000 0.1302975682
H   H121      1.0  0.31610  0.82880  0.92610  1.0000 0.1090317529
H   H122      1.0  0.18390  0.82880  0.42610  1.0000 0.1090317529
H   H123      1.0  0.40560  0.82830  0.00530  1.0000 0.1199819739
H   H124      1.0  0.09440  0.82830  0.50530  1.0000 0.1199819739
H   H125      1.0  0.38630  0.00930  0.01390  1.0000 0.1199819739
H   H126      1.0  0.11370  0.00930  0.51390  1.0000 0.1199819739
H   H127      1.0  0.29670  0.00980  0.93470  1.0000 0.1090317529
H   H128      1.0  0.20330  0.00980  0.43470  1.0000 0.1090317529
H   H129      1.0  0.12010  0.26320  0.13630  1.0000 0.1199819739
H   H130      1.0  0.21350  0.26160  0.17090  1.0000 0.1468162136
H   H131      1.0  0.20440  0.30570  0.11980  1.0000 0.1302975682
H   H132      1.0  0.09530  0.35620  0.16600  1.0000 0.252291237
H   H133      1.0  0.10370  0.31570  0.21280  1.0000 0.270801627
H   H134      1.0  0.17240  0.40250  0.23230  1.0000 0.1302975682
H   H135      1.0  0.23740  0.39350  0.18030  1.0000 0.1302975682
H   H136      1.0  0.24650  0.34940  0.23140  1.0000 0.1408123122
H   H137      1.0  0.87990  0.76320  0.86370  1.0000 0.1199819739
H   H138      1.0  0.78650  0.76160  0.82910  1.0000 0.1468162136
H   H139      1.0  0.79560  0.80570  0.88020  1.0000 0.1302975682
H   H140      1.0  0.90470  0.85620  0.83400  1.0000 0.252291237
H   H141      1.0  0.89630  0.81570  0.78720  1.0000 0.270801627
H   H142      1.0  0.82760  0.90250  0.76770  1.0000 0.1302975682
H   H143      1.0  0.76260  0.89350  0.81970  1.0000 0.1302975682
H   H144      1.0  0.75350  0.84940  0.76860  1.0000 0.1408123122
H   H145      1.0  0.37990  0.26320  0.63630  1.0000 0.1199819739
H   H146      1.0  0.28650  0.26160  0.67090  1.0000 0.1468162136
H   H147      1.0  0.29560  0.30570  0.61980  1.0000 0.1302975682
H   H148      1.0  0.40470  0.35620  0.66600  1.0000 0.252291237
H   H149      1.0  0.39630  0.31570  0.71280  1.0000 0.270801627
H   H150      1.0  0.32760  0.40250  0.73230  1.0000 0.1302975682
H   H151      1.0  0.26260  0.39350  0.68030  1.0000 0.1302975682
H   H152      1.0  0.25350  0.34940  0.73140  1.0000 0.1408123122
H   H153      1.0  0.62010  0.76320  0.36370  1.0000 0.1199819739
H   H154      1.0  0.71350  0.76160  0.32910  1.0000 0.1468162136
H   H155      1.0  0.70440  0.80570  0.38020  1.0000 0.1302975682
H   H156      1.0  0.59530  0.85620  0.33400  1.0000 0.252291237
H   H157      1.0  0.60370  0.81570  0.28720  1.0000 0.270801627
H   H158      1.0  0.67240  0.90250  0.26770  1.0000 0.1302975682
H   H159      1.0  0.73740  0.89350  0.31970  1.0000 0.1302975682
H   H160      1.0  0.74650  0.84940  0.26860  1.0000 0.1408123122
H   H161      1.0  0.85780  0.61500  0.46980  1.0000 0.1302975682
H   H162      1.0  0.83660  0.62850  0.53250  1.0000 0.1302975682
H   H163      1.0  0.93990  0.63290  0.51010  1.0000 0.1302975682
H   H164      1.0  0.80050  0.70690  0.47920  1.0000 0.252291237
H   H165      1.0  0.89510  0.71090  0.45870  1.0000 0.270801627
H   H166      1.0  0.87020  0.78490  0.51750  1.0000 0.1408123122
H   H167      1.0  0.94770  0.74050  0.54030  1.0000 0.1302975682
H   H168      1.0  0.84440  0.73600  0.56270  1.0000 0.1408123122
H   H169      1.0  0.14220  0.11500  0.53020  1.0000 0.1302975682
H   H170      1.0  0.16340  0.12850  0.46750  1.0000 0.1302975682
H   H171      1.0  0.06010  0.13290  0.48990  1.0000 0.1302975682
H   H172      1.0  0.19950  0.20690  0.52080  1.0000 0.252291237
H   H173      1.0  0.10490  0.21090  0.54130  1.0000 0.270801627
H   H174      1.0  0.12980  0.28490  0.48250  1.0000 0.1408123122
H   H175      1.0  0.05230  0.24050  0.45970  1.0000 0.1302975682
H   H176      1.0  0.15560  0.23600  0.43730  1.0000 0.1408123122
H   H177      1.0  0.64220  0.61500  0.96980  1.0000 0.1302975682
H   H178      1.0  0.66340  0.62850  0.03250  1.0000 0.1302975682
H   H179      1.0  0.56010  0.63290  0.01010  1.0000 0.1302975682
H   H180      1.0  0.69950  0.70690  0.97920  1.0000 0.252291237
H   H181      1.0  0.60490  0.71090  0.95870  1.0000 0.270801627
H   H182      1.0  0.62980  0.78490  0.01750  1.0000 0.1408123122
H   H183      1.0  0.55230  0.74050  0.04030  1.0000 0.1302975682
H   H184      1.0  0.65560  0.73600  0.06270  1.0000 0.1408123122
H   H185      1.0  0.35780  0.11500  0.03020  1.0000 0.1302975682
H   H186      1.0  0.33660  0.12850  0.96750  1.0000 0.1302975682
H   H187      1.0  0.43990  0.13290  0.98990  1.0000 0.1302975682
H   H188      1.0  0.30050  0.20690  0.02080  1.0000 0.252291237
H   H189      1.0  0.39510  0.21090  0.04130  1.0000 0.270801627
H   H190      1.0  0.37020  0.28490  0.98250  1.0000 0.1408123122
H   H191      1.0  0.44770  0.24050  0.95970  1.0000 0.1302975682
H   H192      1.0  0.34440  0.23600  0.93730  1.0000 0.1408123122
Ru  Ru1       1.0  0.00366  0.50960  0.34516  1.0000 1.0166005092
Ru  Ru2       1.0  0.49634  0.50960  0.84516  1.0000 1.0166005092
Ru  Ru3       1.0  0.99634  0.00960  0.65484  1.0000 1.0166005092
Ru  Ru4       1.0  0.50366  0.00960  0.15484  1.0000 1.0166005092
C   C1        1.0  0.41330  0.61200  0.91140  1.0000 0.5503689804
C   C2        1.0  0.08670  0.61200  0.41140  1.0000 0.5503689804
C   C3        1.0  0.31670  0.43180  0.84310  1.0000 0.5503689804
C   C4        1.0  0.18330  0.43180  0.34310  1.0000 0.5503689804
C   C5        1.0  0.03230  0.59820  0.25520  1.0000 0.5589297361
C   C6        1.0  0.46770  0.59820  0.75520  1.0000 0.5589297361
C   C7        1.0  0.92560  0.41100  0.27280  1.0000 0.5589297361
C   C8        1.0  0.57440  0.41100  0.77280  1.0000 0.5589297361
C   C9        1.0  0.54070  0.41670  0.93020  1.0000 0.5503689804
C   C10       1.0  0.95930  0.41670  0.43020  1.0000 0.5503689804
C   C11       1.0  0.45880  0.16870  0.81590  1.0000 -0.0829652576
C   C12       1.0  0.04120  0.16870  0.31590  1.0000 -0.0829652576
C   C13       1.0  0.42550  0.12750  0.77840  1.0000 -0.0889777656
C   C14       1.0  0.07450  0.12750  0.27840  1.0000 -0.0889777656
C   C15       1.0  0.44720  0.06710  0.78380  1.0000 -0.1674410897
C   C16       1.0  0.05280  0.06710  0.28380  1.0000 -0.1674410897
C   C17       1.0  0.50220  0.04790  0.82670  1.0000 0.0778445486
C   C18       1.0  0.99780  0.04790  0.32670  1.0000 0.0778445486
C   C19       1.0  0.53550  0.08920  0.86430  1.0000 -0.1674410897
C   C20       1.0  0.96450  0.08920  0.36430  1.0000 -0.1674410897
C   C21       1.0  0.51380  0.14960  0.85890  1.0000 -0.0889777656
C   C22       1.0  0.98620  0.14960  0.35890  1.0000 -0.0889777656
C   C23       1.0  0.52570  0.98100  0.83460  1.0000 0.0778445486
C   C24       1.0  0.97430  0.98100  0.33460  1.0000 0.0778445486
C   C25       1.0  0.52220  0.94150  0.79100  1.0000 -0.1588899559
C   C26       1.0  0.97780  0.94150  0.29100  1.0000 -0.1588899559
C   C27       1.0  0.53700  0.88060  0.79938  1.0000 -0.1006820994
C   C28       1.0  0.96300  0.88060  0.29938  1.0000 -0.1006820994
C   C29       1.0  0.55520  0.85930  0.85143  1.0000 -0.0496592922
C   C30       1.0  0.94480  0.85930  0.35143  1.0000 -0.0496592922
C   C31       1.0  0.55870  0.89880  0.89510  1.0000 -0.1006820994
C   C32       1.0  0.94130  0.89880  0.39510  1.0000 -0.1006820994
C   C33       1.0  0.54390  0.95970  0.88670  1.0000 -0.1588899559
C   C34       1.0  0.95610  0.95970  0.38670  1.0000 -0.1588899559
C   C35       1.0  0.77000  0.56840  0.86548  1.0000 -0.0116213078
C   C36       1.0  0.73000  0.56840  0.36548  1.0000 -0.0116213078
C   C37       1.0  0.84470  0.60690  0.87072  1.0000 -0.1164431023
C   C38       1.0  0.65530  0.60690  0.37072  1.0000 -0.1164431023
C   C39       1.0  0.93380  0.58420  0.87070  1.0000 -0.1501625097
C   C40       1.0  0.56620  0.58420  0.37070  1.0000 -0.1501625097
C   C41       1.0  0.94830  0.52290  0.86550  1.0000 0.0713335536
C   C42       1.0  0.55170  0.52290  0.36550  1.0000 0.0713335536
C   C43       1.0  0.87360  0.48430  0.86020  1.0000 -0.1501625097
C   C44       1.0  0.62640  0.48430  0.36020  1.0000 -0.1501625097
C   C45       1.0  0.78450  0.50710  0.86024  1.0000 -0.1006820994
C   C46       1.0  0.71550  0.50710  0.36024  1.0000 -0.1006820994
C   C47       1.0  0.04530  0.49940  0.86040  1.0000 0.0778445486
C   C48       1.0  0.45470  0.49940  0.36040  1.0000 0.0778445486
C   C49       1.0  0.11540  0.53490  0.83930  1.0000 -0.1501625097
C   C50       1.0  0.38460  0.53490  0.33930  1.0000 -0.1501625097
C   C51       1.0  0.20380  0.51180  0.83390  1.0000 -0.0829652576
C   C52       1.0  0.29620  0.51180  0.33390  1.0000 -0.0829652576
C   C53       1.0  0.22220  0.45310  0.84950  1.0000 -0.0496592922
C   C54       1.0  0.27780  0.45310  0.34950  1.0000 -0.0496592922
C   C55       1.0  0.15210  0.41760  0.87060  1.0000 -0.0889777656
C   C56       1.0  0.34790  0.41760  0.37060  1.0000 -0.0889777656
C   C57       1.0  0.06360  0.44070  0.87600  1.0000 -0.1588899559
C   C58       1.0  0.43640  0.44070  0.37600  1.0000 -0.1588899559
C   C59       1.0  0.36060  0.61180  0.96364  1.0000 -0.0330625093
C   C60       1.0  0.13940  0.61180  0.46364  1.0000 -0.0330625093
C   C61       1.0  0.32020  0.55810  0.97950  1.0000 -0.1006820994
C   C62       1.0  0.17980  0.55810  0.47950  1.0000 -0.1006820994
C   C63       1.0  0.26630  0.55580  0.02621  1.0000 -0.1501625097
C   C64       1.0  0.23370  0.55580  0.52621  1.0000 -0.1501625097
C   C65       1.0  0.25280  0.60730  0.05707  1.0000 0.0778445486
C   C66       1.0  0.24720  0.60730  0.55707  1.0000 0.0778445486
C   C67       1.0  0.29320  0.66100  0.04121  1.0000 -0.1588899559
C   C68       1.0  0.20680  0.66100  0.54121  1.0000 -0.1588899559
C   C69       1.0  0.34710  0.66330  0.99449  1.0000 -0.1006820994
C   C70       1.0  0.15290  0.66330  0.49449  1.0000 -0.1006820994
C   C71       1.0  0.19570  0.60300  0.10810  1.0000 0.0713335536
C   C72       1.0  0.30430  0.60300  0.60810  1.0000 0.0713335536
C   C73       1.0  0.19830  0.55260  0.14136  1.0000 -0.1501625097
C   C74       1.0  0.30170  0.55260  0.64136  1.0000 -0.1501625097
C   C75       1.0  0.14640  0.55100  0.18887  1.0000 -0.1006820994
C   C76       1.0  0.35360  0.55100  0.68887  1.0000 -0.1006820994
C   C77       1.0  0.09190  0.59970  0.20313  1.0000 -0.0116213078
C   C78       1.0  0.40810  0.59970  0.70313  1.0000 -0.0116213078
C   C79       1.0  0.08930  0.65010  0.16986  1.0000 -0.1006820994
C   C80       1.0  0.41070  0.65010  0.66986  1.0000 -0.1006820994
C   C81       1.0  0.14120  0.65170  0.12235  1.0000 -0.1501625097
C   C82       1.0  0.35880  0.65170  0.62235  1.0000 -0.1501625097
C   C83       1.0  0.86730  0.41470  0.22114  1.0000 -0.0188202928
C   C84       1.0  0.63270  0.41470  0.72114  1.0000 -0.0188202928
C   C85       1.0  0.87420  0.36890  0.18300  1.0000 -0.1090036361
C   C86       1.0  0.62580  0.36890  0.68300  1.0000 -0.1090036361
C   C87       1.0  0.82060  0.37040  0.13610  1.0000 -0.1501625097
C   C88       1.0  0.67940  0.37040  0.63610  1.0000 -0.1501625097
C   C89       1.0  0.76020  0.41780  0.12740  1.0000 0.0778445486
C   C90       1.0  0.73980  0.41780  0.62740  1.0000 0.0778445486
C   C91       1.0  0.75330  0.46360  0.16560  1.0000 -0.1501625097
C   C92       1.0  0.74670  0.46360  0.66560  1.0000 -0.1501625097
C   C93       1.0  0.80690  0.46200  0.21240  1.0000 -0.0889777656
C   C94       1.0  0.69310  0.46200  0.71240  1.0000 -0.0889777656
C   C95       1.0  0.70200  0.41940  0.07710  1.0000 0.0778445486
C   C96       1.0  0.79800  0.41940  0.57710  1.0000 0.0778445486
C   C97       1.0  0.66960  0.36550  0.05610  1.0000 -0.1501625097
C   C98       1.0  0.83040  0.36550  0.55610  1.0000 -0.1501625097
C   C99       1.0  0.61650  0.36520  0.00900  1.0000 -0.1006820994
C   C100      1.0  0.88350  0.36520  0.50900  1.0000 -0.1006820994
C   C101      1.0  0.59560  0.41880  0.98300  1.0000 -0.0188202928
C   C102      1.0  0.90440  0.41880  0.48300  1.0000 -0.0188202928
C   C103      1.0  0.62800  0.47260  0.00390  1.0000 -0.1090036361
C   C104      1.0  0.87200  0.47260  0.50390  1.0000 -0.1090036361
C   C105      1.0  0.68120  0.47290  0.05100  1.0000 -0.1501625097
C   C106      1.0  0.81880  0.47290  0.55100  1.0000 -0.1501625097
C   C107      1.0  0.43650  0.23050  0.81080  1.0000 0.5503689804
C   C108      1.0  0.06350  0.23050  0.31080  1.0000 0.5503689804
C   C109      1.0  0.67300  0.59570  0.86210  1.0000 0.5331710474
C   C110      1.0  0.82700  0.59570  0.36210  1.0000 0.5331710474
C   C111      1.0  0.56020  0.79430  0.86270  1.0000 0.5589297361
C   C112      1.0  0.93980  0.79430  0.36270  1.0000 0.5589297361
C   C113      1.0  0.58670  0.11200  0.08860  1.0000 0.5503689804
C   C114      1.0  0.91330  0.11200  0.58860  1.0000 0.5503689804
C   C115      1.0  0.68330  0.93180  0.15690  1.0000 0.5503689804
C   C116      1.0  0.81670  0.93180  0.65690  1.0000 0.5503689804
C   C117      1.0  0.96770  0.09820  0.74480  1.0000 0.5589297361
C   C118      1.0  0.53230  0.09820  0.24480  1.0000 0.5589297361
C   C119      1.0  0.07440  0.91100  0.72720  1.0000 0.5589297361
C   C120      1.0  0.42560  0.91100  0.22720  1.0000 0.5589297361
C   C121      1.0  0.45930  0.91670  0.06980  1.0000 0.5503689804
C   C122      1.0  0.04070  0.91670  0.56980  1.0000 0.5503689804
C   C123      1.0  0.54120  0.66870  0.18410  1.0000 -0.0829652576
C   C124      1.0  0.95880  0.66870  0.68410  1.0000 -0.0829652576
C   C125      1.0  0.57450  0.62750  0.22160  1.0000 -0.0889777656
C   C126      1.0  0.92550  0.62750  0.72160  1.0000 -0.0889777656
C   C127      1.0  0.55280  0.56710  0.21620  1.0000 -0.1674410897
C   C128      1.0  0.94720  0.56710  0.71620  1.0000 -0.1674410897
C   C129      1.0  0.49780  0.54790  0.17330  1.0000 0.0778445486
C   C130      1.0  0.00220  0.54790  0.67330  1.0000 0.0778445486
C   C131      1.0  0.46450  0.58920  0.13570  1.0000 -0.1674410897
C   C132      1.0  0.03550  0.58920  0.63570  1.0000 -0.1674410897
C   C133      1.0  0.48620  0.64960  0.14110  1.0000 -0.0889777656
C   C134      1.0  0.01380  0.64960  0.64110  1.0000 -0.0889777656
C   C135      1.0  0.47430  0.48100  0.16540  1.0000 0.0778445486
C   C136      1.0  0.02570  0.48100  0.66540  1.0000 0.0778445486
C   C137      1.0  0.47780  0.44150  0.20900  1.0000 -0.1588899559
C   C138      1.0  0.02220  0.44150  0.70900  1.0000 -0.1588899559
C   C139      1.0  0.46300  0.38060  0.20062  1.0000 -0.1006820994
C   C140      1.0  0.03700  0.38060  0.70062  1.0000 -0.1006820994
C   C141      1.0  0.44480  0.35930  0.14857  1.0000 -0.0496592922
C   C142      1.0  0.05520  0.35930  0.64857  1.0000 -0.0496592922
C   C143      1.0  0.44130  0.39880  0.10490  1.0000 -0.1006820994
C   C144      1.0  0.05870  0.39880  0.60490  1.0000 -0.1006820994
C   C145      1.0  0.45610  0.45970  0.11330  1.0000 -0.1588899559
C   C146      1.0  0.04390  0.45970  0.61330  1.0000 -0.1588899559
C   C147      1.0  0.23000  0.06840  0.13452  1.0000 -0.0116213078
C   C148      1.0  0.27000  0.06840  0.63452  1.0000 -0.0116213078
C   C149      1.0  0.15530  0.10690  0.12928  1.0000 -0.1164431023
C   C150      1.0  0.34470  0.10690  0.62928  1.0000 -0.1164431023
C   C151      1.0  0.06620  0.08420  0.12930  1.0000 -0.1501625097
C   C152      1.0  0.43380  0.08420  0.62930  1.0000 -0.1501625097
C   C153      1.0  0.05170  0.02290  0.13450  1.0000 0.0713335536
C   C154      1.0  0.44830  0.02290  0.63450  1.0000 0.0713335536
C   C155      1.0  0.12640  0.98430  0.13980  1.0000 -0.1501625097
C   C156      1.0  0.37360  0.98430  0.63980  1.0000 -0.1501625097
C   C157      1.0  0.21550  0.00710  0.13976  1.0000 -0.1006820994
C   C158      1.0  0.28450  0.00710  0.63976  1.0000 -0.1006820994
C   C159      1.0  0.95470  0.99940  0.13960  1.0000 0.0778445486
C   C160      1.0  0.54530  0.99940  0.63960  1.0000 0.0778445486
C   C161      1.0  0.88460  0.03490  0.16070  1.0000 -0.1501625097
C   C162      1.0  0.61540  0.03490  0.66070  1.0000 -0.1501625097
C   C163      1.0  0.79620  0.01180  0.16610  1.0000 -0.0829652576
C   C164      1.0  0.70380  0.01180  0.66610  1.0000 -0.0829652576
C   C165      1.0  0.77780  0.95310  0.15050  1.0000 -0.0496592922
C   C166      1.0  0.72220  0.95310  0.65050  1.0000 -0.0496592922
C   C167      1.0  0.84790  0.91760  0.12940  1.0000 -0.0889777656
C   C168      1.0  0.65210  0.91760  0.62940  1.0000 -0.0889777656
C   C169      1.0  0.93640  0.94070  0.12400  1.0000 -0.1588899559
C   C170      1.0  0.56360  0.94070  0.62400  1.0000 -0.1588899559
C   C171      1.0  0.63940  0.11180  0.03636  1.0000 -0.0330625093
C   C172      1.0  0.86060  0.11180  0.53636  1.0000 -0.0330625093
C   C173      1.0  0.67980  0.05810  0.02050  1.0000 -0.1006820994
C   C174      1.0  0.82020  0.05810  0.52050  1.0000 -0.1006820994
C   C175      1.0  0.73370  0.05580  0.97379  1.0000 -0.1501625097
C   C176      1.0  0.76630  0.05580  0.47379  1.0000 -0.1501625097
C   C177      1.0  0.74720  0.10730  0.94293  1.0000 0.0778445486
C   C178      1.0  0.75280  0.10730  0.44293  1.0000 0.0778445486
C   C179      1.0  0.70680  0.16100  0.95879  1.0000 -0.1588899559
C   C180      1.0  0.79320  0.16100  0.45879  1.0000 -0.1588899559
C   C181      1.0  0.65290  0.16330  0.00551  1.0000 -0.1006820994
C   C182      1.0  0.84710  0.16330  0.50551  1.0000 -0.1006820994
C   C183      1.0  0.80430  0.10300  0.89190  1.0000 0.0713335536
C   C184      1.0  0.69570  0.10300  0.39190  1.0000 0.0713335536
C   C185      1.0  0.80170  0.05260  0.85864  1.0000 -0.1501625097
C   C186      1.0  0.69830  0.05260  0.35864  1.0000 -0.1501625097
C   C187      1.0  0.85360  0.05100  0.81113  1.0000 -0.1006820994
C   C188      1.0  0.64640  0.05100  0.31113  1.0000 -0.1006820994
C   C189      1.0  0.90810  0.09970  0.79687  1.0000 -0.0116213078
C   C190      1.0  0.59190  0.09970  0.29687  1.0000 -0.0116213078
C   C191      1.0  0.91070  0.15010  0.83014  1.0000 -0.1006820994
C   C192      1.0  0.58930  0.15010  0.33014  1.0000 -0.1006820994
C   C193      1.0  0.85880  0.15170  0.87765  1.0000 -0.1501625097
C   C194      1.0  0.64120  0.15170  0.37765  1.0000 -0.1501625097
C   C195      1.0  0.13270  0.91470  0.77886  1.0000 -0.0188202928
C   C196      1.0  0.36730  0.91470  0.27886  1.0000 -0.0188202928
C   C197      1.0  0.12580  0.86890  0.81700  1.0000 -0.1090036361
C   C198      1.0  0.37420  0.86890  0.31700  1.0000 -0.1090036361
C   C199      1.0  0.17940  0.87040  0.86390  1.0000 -0.1501625097
C   C200      1.0  0.32060  0.87040  0.36390  1.0000 -0.1501625097
C   C201      1.0  0.23980  0.91780  0.87260  1.0000 0.0778445486
C   C202      1.0  0.26020  0.91780  0.37260  1.0000 0.0778445486
C   C203      1.0  0.24670  0.96360  0.83440  1.0000 -0.1501625097
C   C204      1.0  0.25330  0.96360  0.33440  1.0000 -0.1501625097
C   C205      1.0  0.19310  0.96200  0.78760  1.0000 -0.0889777656
C   C206      1.0  0.30690  0.96200  0.28760  1.0000 -0.0889777656
C   C207      1.0  0.29800  0.91940  0.92290  1.0000 0.0778445486
C   C208      1.0  0.20200  0.91940  0.42290  1.0000 0.0778445486
C   C209      1.0  0.33040  0.86550  0.94390  1.0000 -0.1501625097
C   C210      1.0  0.16960  0.86550  0.44390  1.0000 -0.1501625097
C   C211      1.0  0.38350  0.86520  0.99100  1.0000 -0.1006820994
C   C212      1.0  0.11650  0.86520  0.49100  1.0000 -0.1006820994
C   C213      1.0  0.40440  0.91880  0.01700  1.0000 -0.0188202928
C   C214      1.0  0.09560  0.91880  0.51700  1.0000 -0.0188202928
C   C215      1.0  0.37200  0.97260  0.99610  1.0000 -0.1090036361
C   C216      1.0  0.12800  0.97260  0.49610  1.0000 -0.1090036361
C   C217      1.0  0.31880  0.97290  0.94900  1.0000 -0.1501625097
C   C218      1.0  0.18120  0.97290  0.44900  1.0000 -0.1501625097
C   C219      1.0  0.56350  0.73050  0.18920  1.0000 0.5503689804
C   C220      1.0  0.93650  0.73050  0.68920  1.0000 0.5503689804
C   C221      1.0  0.32700  0.09570  0.13790  1.0000 0.5331710474
C   C222      1.0  0.17300  0.09570  0.63790  1.0000 0.5331710474
C   C223      1.0  0.43980  0.29430  0.13730  1.0000 0.5589297361
C   C224      1.0  0.06020  0.29430  0.63730  1.0000 0.5589297361
C   C225      1.0  0.17100  0.28730  0.15030  1.0000 -0.2940026177
C   C226      1.0  0.20340  0.37290  0.20930  1.0000 -0.3129573716
C   C227      1.0  0.82900  0.78730  0.84970  1.0000 -0.2940026177
C   C228      1.0  0.79660  0.87290  0.79070  1.0000 -0.3129573716
C   C229      1.0  0.32900  0.28730  0.65030  1.0000 -0.2940026177
C   C230      1.0  0.29660  0.37290  0.70930  1.0000 -0.3129573716
C   C231      1.0  0.67100  0.78730  0.34970  1.0000 -0.2940026177
C   C232      1.0  0.70340  0.87290  0.29070  1.0000 -0.3129573716
C   C233      1.0  0.87500  0.63960  0.50120  1.0000 -0.3129573716
C   C234      1.0  0.88200  0.74420  0.53060  1.0000 -0.2940026177
C   C235      1.0  0.12500  0.13960  0.49880  1.0000 -0.3129573716
C   C236      1.0  0.11800  0.24420  0.46940  1.0000 -0.2940026177
C   C237      1.0  0.62500  0.63960  0.00120  1.0000 -0.3129573716
C   C238      1.0  0.61800  0.74420  0.03060  1.0000 -0.2940026177
C   C239      1.0  0.37500  0.13960  0.99880  1.0000 -0.3129573716
C   C240      1.0  0.38200  0.24420  0.96940  1.0000 -0.2940026177
N   N1        1.0  0.13580  0.33350  0.18550  1.0000 -0.0889777656
N   N2        1.0  0.86420  0.83350  0.81450  1.0000 -0.0889777656
N   N3        1.0  0.36420  0.33350  0.68550  1.0000 -0.0889777656
N   N4        1.0  0.63580  0.83350  0.31450  1.0000 -0.0889777656
N   N5        1.0  0.86070  0.70180  0.48860  1.0000 -0.0889777656
N   N6        1.0  0.13930  0.20180  0.51140  1.0000 -0.0889777656
N   N7        1.0  0.63930  0.70180  0.98860  1.0000 -0.0889777656
N   N8        1.0  0.36070  0.20180  0.01140  1.0000 -0.0889777656
O   O1        1.0  0.50170  0.46620  0.91910  1.0000 -0.5304082549
O   O2        1.0  0.99830  0.46620  0.41910  1.0000 -0.5304082549
O   O3        1.0  0.01920  0.64970  0.27510  1.0000 -0.5304082549
O   O4        1.0  0.48080  0.64970  0.77510  1.0000 -0.5304082549
O   O5        1.0  0.61060  0.55900  0.87110  1.0000 -0.5304082549
O   O6        1.0  0.88940  0.55900  0.37110  1.0000 -0.5304082549
O   O7        1.0  0.40720  0.57320  0.87810  1.0000 -0.4379901989
O   O8        1.0  0.09280  0.57320  0.37810  1.0000 -0.4379901989
O   O9        1.0  0.98260  0.36950  0.27510  1.0000 -0.5304082549
O   O10       1.0  0.51740  0.36950  0.77510  1.0000 -0.5304082549
O   O11       1.0  0.39570  0.25110  0.76860  1.0000 -0.5804001991
O   O12       1.0  0.10430  0.25110  0.26860  1.0000 -0.5804001991
O   O13       1.0  0.46280  0.26640  0.85050  1.0000 -0.5804001991
O   O14       1.0  0.03720  0.26640  0.35050  1.0000 -0.5804001991
O   O15       1.0  0.54170  0.75910  0.82450  1.0000 -0.5304082549
O   O16       1.0  0.95830  0.75910  0.32450  1.0000 -0.5304082549
O   O17       1.0  0.00950  0.54940  0.27030  1.0000 -0.4641534193
O   O18       1.0  0.49050  0.54940  0.77030  1.0000 -0.4641534193
O   O19       1.0  0.37620  0.46340  0.82120  1.0000 -0.5304082549
O   O20       1.0  0.12380  0.46340  0.32120  1.0000 -0.5304082549
O   O21       1.0  0.33040  0.37630  0.85630  1.0000 -0.5304082549
O   O22       1.0  0.16960  0.37630  0.35630  1.0000 -0.5304082549
O   O23       1.0  0.66570  0.64720  0.85170  1.0000 -0.4699643059
O   O24       1.0  0.83430  0.64720  0.35170  1.0000 -0.4699643059
O   O25       1.0  0.46170  0.66260  0.90550  1.0000 -0.5885368093
O   O26       1.0  0.03830  0.66260  0.40550  1.0000 -0.5885368093
O   O27       1.0  0.52880  0.36900  0.90900  1.0000 -0.4794547065
O   O28       1.0  0.97120  0.36900  0.40900  1.0000 -0.4794547065
O   O29       1.0  0.91270  0.44960  0.30900  1.0000 -0.5304082549
O   O30       1.0  0.58730  0.44960  0.80900  1.0000 -0.5304082549
O   O31       1.0  0.59310  0.77820  0.90740  1.0000 -0.5804001991
O   O32       1.0  0.90690  0.77820  0.40740  1.0000 -0.5804001991
O   O33       1.0  0.49830  0.96620  0.08090  1.0000 -0.5304082549
O   O34       1.0  0.00170  0.96620  0.58090  1.0000 -0.5304082549
O   O35       1.0  0.98080  0.14970  0.72490  1.0000 -0.5304082549
O   O36       1.0  0.51920  0.14970  0.22490  1.0000 -0.5304082549
O   O37       1.0  0.38940  0.05900  0.12890  1.0000 -0.5304082549
O   O38       1.0  0.11060  0.05900  0.62890  1.0000 -0.5304082549
O   O39       1.0  0.59280  0.07320  0.12190  1.0000 -0.4379901989
O   O40       1.0  0.90720  0.07320  0.62190  1.0000 -0.4379901989
O   O41       1.0  0.01740  0.86950  0.72490  1.0000 -0.5304082549
O   O42       1.0  0.48260  0.86950  0.22490  1.0000 -0.5304082549
O   O43       1.0  0.60430  0.75110  0.23140  1.0000 -0.5804001991
O   O44       1.0  0.89570  0.75110  0.73140  1.0000 -0.5804001991
O   O45       1.0  0.53720  0.76640  0.14950  1.0000 -0.5804001991
O   O46       1.0  0.96280  0.76640  0.64950  1.0000 -0.5804001991
O   O47       1.0  0.45830  0.25910  0.17550  1.0000 -0.5304082549
O   O48       1.0  0.04170  0.25910  0.67550  1.0000 -0.5304082549
O   O49       1.0  0.99050  0.04940  0.72970  1.0000 -0.4641534193
O   O50       1.0  0.50950  0.04940  0.22970  1.0000 -0.4641534193
O   O51       1.0  0.62380  0.96340  0.17880  1.0000 -0.5304082549
O   O52       1.0  0.87620  0.96340  0.67880  1.0000 -0.5304082549
O   O53       1.0  0.66960  0.87630  0.14370  1.0000 -0.5304082549
O   O54       1.0  0.83040  0.87630  0.64370  1.0000 -0.5304082549
O   O55       1.0  0.33430  0.14720  0.14830  1.0000 -0.4699643059
O   O56       1.0  0.16570  0.14720  0.64830  1.0000 -0.4699643059
O   O57       1.0  0.53830  0.16260  0.09450  1.0000 -0.5885368093
O   O58       1.0  0.96170  0.16260  0.59450  1.0000 -0.5885368093
O   O59       1.0  0.47120  0.86900  0.09100  1.0000 -0.4794547065
O   O60       1.0  0.02880  0.86900  0.59100  1.0000 -0.4794547065
O   O61       1.0  0.08730  0.94960  0.69100  1.0000 -0.5304082549
O   O62       1.0  0.41270  0.94960  0.19100  1.0000 -0.5304082549
O   O63       1.0  0.40690  0.27820  0.09260  1.0000 -0.5804001991
O   O64       1.0  0.09310  0.27820  0.59260  1.0000 -0.5804001991
