# DDEC6 charges by PACMAN v1.1 (https://github.com/mtap-research/PACMAN-charge/)
data_2015[Zn][apo]3[ION]1
_chemical_formula_sum              "Zn8 H56 C72 N4 O40"
_cell_length_a       14.513
_cell_length_b       12.964
_cell_length_c       16.808
_cell_angle_alpha    90
_cell_angle_beta     108.46
_cell_angle_gamma    90

_symmetry_space_group_name_H-M    "P 1"
_symmetry_Int_Tables_number       1

loop_
  _symmetry_equiv_pos_as_xyz
  'x, y, z'

loop_
  _atom_site_type_symbol
  _atom_site_label
  _atom_site_symmetry_multiplicity
  _atom_site_fract_x
  _atom_site_fract_y
  _atom_site_fract_z
  _atom_site_occupancy
  _atom_site_charge
Zn  Zn1       1.0  0.18056  0.51298  0.68198  1.0000 0.9391075595
Zn  Zn2       1.0  0.31944  0.01298  0.31802  1.0000 0.9391075595
Zn  Zn3       1.0  0.81944  0.48702  0.31802  1.0000 0.9391075595
Zn  Zn4       1.0  0.68056  0.98702  0.68198  1.0000 0.9391075595
Zn  Zn5       1.0  0.09945  0.55311  0.84536  1.0000 0.9215986802
Zn  Zn6       1.0  0.40055  0.05311  0.15464  1.0000 0.9215986802
Zn  Zn7       1.0  0.90055  0.44689  0.15464  1.0000 0.9215986802
Zn  Zn8       1.0  0.59945  0.94689  0.84536  1.0000 0.9215986802
H   H1        1.0  0.99890  0.56090  0.56840  1.0000 0.1496220142
H   H2        1.0  0.50110  0.06090  0.43160  1.0000 0.1496220142
H   H3        1.0  0.00110  0.43910  0.43160  1.0000 0.1496220142
H   H4        1.0  0.49890  0.93910  0.56840  1.0000 0.1496220142
H   H5        1.0  0.98330  0.72690  0.76880  1.0000 0.1414707702
H   H6        1.0  0.51670  0.22690  0.23120  1.0000 0.1414707702
H   H7        1.0  0.01670  0.27310  0.23120  1.0000 0.1414707702
H   H8        1.0  0.48330  0.77310  0.76880  1.0000 0.1414707702
H   H9        1.0  0.34930  0.26140  0.78860  1.0000 0.1496220142
H   H10       1.0  0.15070  0.76140  0.21140  1.0000 0.1496220142
H   H11       1.0  0.65070  0.73860  0.21140  1.0000 0.1496220142
H   H12       1.0  0.84930  0.23860  0.78860  1.0000 0.1496220142
H   H13       1.0  0.28330  0.33220  0.99870  1.0000 0.1327529176
H   H14       1.0  0.21670  0.83220  0.00130  1.0000 0.1327529176
H   H15       1.0  0.71670  0.66780  0.00130  1.0000 0.1327529176
H   H16       1.0  0.78330  0.16780  0.99870  1.0000 0.1327529176
H   H17       1.0  0.77870  0.76390  0.54140  1.0000 0.1414707702
H   H18       1.0  0.72130  0.26390  0.45860  1.0000 0.1414707702
H   H19       1.0  0.22130  0.23610  0.45860  1.0000 0.1414707702
H   H20       1.0  0.27870  0.73610  0.54140  1.0000 0.1414707702
H   H21       1.0  0.43550  0.07160  0.99150  1.0000 0.1414707702
H   H22       1.0  0.06450  0.57160  0.00850  1.0000 0.1414707702
H   H23       1.0  0.56450  0.92840  0.00850  1.0000 0.1414707702
H   H24       1.0  0.93550  0.42840  0.99150  1.0000 0.1414707702
H   H25       1.0  0.82760  0.81540  0.85550  1.0000 0.2851326688
H   H26       1.0  0.76270  0.79000  0.91410  1.0000 0.260696493
H   H27       1.0  0.80510  0.63960  0.86020  1.0000 0.1496220142
H   H28       1.0  0.91790  0.66570  0.90240  1.0000 0.1496220142
H   H29       1.0  0.85180  0.64010  0.96010  1.0000 0.1496220142
H   H30       1.0  0.87540  0.91740  0.97480  1.0000 0.1496220142
H   H31       1.0  0.89710  0.81700  0.03320  1.0000 0.1414707702
H   H32       1.0  0.96250  0.84180  0.97480  1.0000 0.1414707702
H   H33       1.0  0.67240  0.31540  0.14450  1.0000 0.2851326688
H   H34       1.0  0.73730  0.29000  0.08590  1.0000 0.260696493
H   H35       1.0  0.69490  0.13960  0.13980  1.0000 0.1496220142
H   H36       1.0  0.58210  0.16570  0.09760  1.0000 0.1496220142
H   H37       1.0  0.64820  0.14010  0.03990  1.0000 0.1414707702
H   H38       1.0  0.62460  0.41740  0.02520  1.0000 0.1496220142
H   H39       1.0  0.60290  0.31700  0.96680  1.0000 0.1414707702
H   H40       1.0  0.53750  0.34180  0.02520  1.0000 0.1414707702
H   H41       1.0  0.17240  0.18460  0.14450  1.0000 0.2851326688
H   H42       1.0  0.23730  0.21000  0.08590  1.0000 0.260696493
H   H43       1.0  0.19490  0.36040  0.13980  1.0000 0.1496220142
H   H44       1.0  0.08210  0.33430  0.09760  1.0000 0.1496220142
H   H45       1.0  0.14820  0.35990  0.03990  1.0000 0.1414707702
H   H46       1.0  0.12460  0.08260  0.02520  1.0000 0.1496220142
H   H47       1.0  0.10290  0.18300  0.96680  1.0000 0.1414707702
H   H48       1.0  0.03750  0.15820  0.02520  1.0000 0.1414707702
H   H49       1.0  0.32760  0.68460  0.85550  1.0000 0.2851326688
H   H50       1.0  0.26270  0.71000  0.91410  1.0000 0.260696493
H   H51       1.0  0.30510  0.86040  0.86020  1.0000 0.1496220142
H   H52       1.0  0.41790  0.83430  0.90240  1.0000 0.1496220142
H   H53       1.0  0.35180  0.85990  0.96010  1.0000 0.1496220142
H   H54       1.0  0.37540  0.58260  0.97480  1.0000 0.1496220142
H   H55       1.0  0.39710  0.68300  0.03320  1.0000 0.1414707702
H   H56       1.0  0.46250  0.65820  0.97480  1.0000 0.1414707702
C   C1        1.0  0.24990  0.40120  0.84370  1.0000 0.6004828437
C   C2        1.0  0.25010  0.90120  0.15630  1.0000 0.6004828437
C   C3        1.0  0.75010  0.59880  0.15630  1.0000 0.6004828437
C   C4        1.0  0.74990  0.09880  0.84370  1.0000 0.6004828437
C   C5        1.0  0.00550  0.63400  0.67754  1.0000 0.3301393016
C   C6        1.0  0.49450  0.13400  0.32246  1.0000 0.3301393016
C   C7        1.0  0.99450  0.36600  0.32246  1.0000 0.3301393016
C   C8        1.0  0.50550  0.86600  0.67754  1.0000 0.3301393016
C   C9        1.0  0.30720  0.30910  0.88730  1.0000 0.001935394
C   C10       1.0  0.19280  0.80910  0.11270  1.0000 0.001935394
C   C11       1.0  0.69280  0.69090  0.11270  1.0000 0.001935394
C   C12       1.0  0.80720  0.19090  0.88730  1.0000 0.001935394
C   C13       1.0  0.96710  0.61030  0.59220  1.0000 -0.2029765435
C   C14       1.0  0.53290  0.11030  0.40780  1.0000 -0.2029765435
C   C15       1.0  0.03290  0.38970  0.40780  1.0000 -0.2029765435
C   C16       1.0  0.46710  0.88970  0.59220  1.0000 -0.2029765435
C   C17       1.0  0.95820  0.70930  0.71110  1.0000 -0.2324559317
C   C18       1.0  0.54180  0.20930  0.28890  1.0000 -0.2324559317
C   C19       1.0  0.04180  0.29070  0.28890  1.0000 -0.2324559317
C   C20       1.0  0.45820  0.79070  0.71110  1.0000 -0.2324559317
C   C21       1.0  0.35200  0.24540  0.84440  1.0000 -0.1384086778
C   C22       1.0  0.14800  0.74540  0.15560  1.0000 -0.1384086778
C   C23       1.0  0.64800  0.75460  0.15560  1.0000 -0.1384086778
C   C24       1.0  0.85200  0.25460  0.84440  1.0000 -0.1384086778
C   C25       1.0  0.31230  0.28640  0.96940  1.0000 -0.2415646577
C   C26       1.0  0.18770  0.78640  0.03060  1.0000 -0.2415646577
C   C27       1.0  0.68770  0.71360  0.03060  1.0000 -0.2415646577
C   C28       1.0  0.81230  0.21360  0.96940  1.0000 -0.2415646577
C   C29       1.0  0.88260  0.65790  0.54160  1.0000 0.026256794
C   C30       1.0  0.61740  0.15790  0.45840  1.0000 0.026256794
C   C31       1.0  0.11740  0.34210  0.45840  1.0000 0.026256794
C   C32       1.0  0.38260  0.84210  0.54160  1.0000 0.026256794
C   C33       1.0  0.87480  0.75810  0.66010  1.0000 0.0120259614
C   C34       1.0  0.62520  0.25810  0.33990  1.0000 0.0120259614
C   C35       1.0  0.12520  0.24190  0.33990  1.0000 0.0120259614
C   C36       1.0  0.37480  0.74190  0.66010  1.0000 0.0120259614
C   C37       1.0  0.40130  0.15730  0.88430  1.0000 0.0120259614
C   C38       1.0  0.09870  0.65730  0.11570  1.0000 0.0120259614
C   C39       1.0  0.59870  0.84270  0.11570  1.0000 0.0120259614
C   C40       1.0  0.90130  0.34270  0.88430  1.0000 0.0120259614
C   C41       1.0  0.35940  0.19750  0.01000  1.0000 0.3301393016
C   C42       1.0  0.14060  0.69750  0.99000  1.0000 0.3301393016
C   C43       1.0  0.64060  0.80250  0.99000  1.0000 0.3301393016
C   C44       1.0  0.85940  0.30250  0.01000  1.0000 0.3301393016
C   C45       1.0  0.83630  0.62440  0.45160  1.0000 0.5601124688
C   C46       1.0  0.66370  0.12440  0.54840  1.0000 0.5601124688
C   C47       1.0  0.16370  0.37560  0.54840  1.0000 0.5601124688
C   C48       1.0  0.33630  0.87560  0.45160  1.0000 0.5601124688
C   C49       1.0  0.83640  0.73170  0.57560  1.0000 -0.1100186799
C   C50       1.0  0.66360  0.23170  0.42440  1.0000 -0.1100186799
C   C51       1.0  0.16360  0.26830  0.42440  1.0000 -0.1100186799
C   C52       1.0  0.33640  0.76830  0.57560  1.0000 -0.1100186799
C   C53       1.0  0.82270  0.83810  0.69520  1.0000 0.5768496319
C   C54       1.0  0.67730  0.33810  0.30480  1.0000 0.5768496319
C   C55       1.0  0.17730  0.16190  0.30480  1.0000 0.5768496319
C   C56       1.0  0.32270  0.66190  0.69520  1.0000 0.5768496319
C   C57       1.0  0.45710  0.09330  0.84000  1.0000 0.5531410202
C   C58       1.0  0.04290  0.59330  0.16000  1.0000 0.5531410202
C   C59       1.0  0.54290  0.90670  0.16000  1.0000 0.5531410202
C   C60       1.0  0.95710  0.40670  0.84000  1.0000 0.5531410202
C   C61       1.0  0.40370  0.13280  0.96570  1.0000 -0.2415646577
C   C62       1.0  0.09630  0.63280  0.03430  1.0000 -0.2415646577
C   C63       1.0  0.59630  0.86720  0.03430  1.0000 -0.2415646577
C   C64       1.0  0.90370  0.36720  0.96570  1.0000 -0.2415646577
C   C65       1.0  0.85300  0.67300  0.90790  1.0000 -0.2878944055
C   C66       1.0  0.89680  0.84540  0.97910  1.0000 -0.2819548324
C   C67       1.0  0.64700  0.17300  0.09210  1.0000 -0.2878944055
C   C68       1.0  0.60320  0.34540  0.02090  1.0000 -0.2819548324
C   C69       1.0  0.14700  0.32700  0.09210  1.0000 -0.2878944055
C   C70       1.0  0.10320  0.15460  0.02090  1.0000 -0.2819548324
C   C71       1.0  0.35300  0.82700  0.90790  1.0000 -0.2878944055
C   C72       1.0  0.39680  0.65460  0.97910  1.0000 -0.2819548324
N   N1        1.0  0.82890  0.78410  0.90960  1.0000 -0.1384086778
N   N2        1.0  0.67110  0.28410  0.09040  1.0000 -0.1384086778
N   N3        1.0  0.17110  0.21590  0.09040  1.0000 -0.1384086778
N   N4        1.0  0.32890  0.71590  0.90960  1.0000 -0.1384086778
O   O1        1.0  0.24460  0.41360  0.76846  1.0000 -0.5124688224
O   O2        1.0  0.25540  0.91360  0.23154  1.0000 -0.5124688224
O   O3        1.0  0.75540  0.58640  0.23154  1.0000 -0.5124688224
O   O4        1.0  0.74460  0.08640  0.76846  1.0000 -0.5124688224
O   O5        1.0  0.25360  0.61530  0.64302  1.0000 -0.5124688224
O   O6        1.0  0.24640  0.11530  0.35698  1.0000 -0.5124688224
O   O7        1.0  0.74640  0.38470  0.35698  1.0000 -0.5124688224
O   O8        1.0  0.75360  0.88470  0.64302  1.0000 -0.5124688224
O   O9        1.0  0.08621  0.58506  0.72744  1.0000 -0.5954509155
O   O10       1.0  0.41379  0.08506  0.27256  1.0000 -0.5936480538
O   O11       1.0  0.91379  0.41494  0.27256  1.0000 -0.5954509155
O   O12       1.0  0.58621  0.91494  0.72744  1.0000 -0.5954509155
O   O13       1.0  0.11630  0.44120  0.57631  1.0000 -0.5193722622
O   O14       1.0  0.38370  0.94120  0.42369  1.0000 -0.5193722622
O   O15       1.0  0.88370  0.55880  0.42369  1.0000 -0.5193722622
O   O16       1.0  0.61630  0.05880  0.57631  1.0000 -0.5193722622
O   O17       1.0  0.21140  0.45730  0.88437  1.0000 -0.5506960676
O   O18       1.0  0.28860  0.95730  0.11563  1.0000 -0.5506960676
O   O19       1.0  0.78860  0.54270  0.11563  1.0000 -0.5506960676
O   O20       1.0  0.71140  0.04270  0.88437  1.0000 -0.5506960676
O   O21       1.0  0.14060  0.67770  0.91154  1.0000 -0.5506960676
O   O22       1.0  0.35940  0.17770  0.08846  1.0000 -0.5506960676
O   O23       1.0  0.85940  0.32230  0.08846  1.0000 -0.5506960676
O   O24       1.0  0.64060  0.82230  0.91154  1.0000 -0.5506960676
O   O25       1.0  0.99620  0.48860  0.87769  1.0000 -0.5700672717
O   O26       1.0  0.50380  0.98860  0.12231  1.0000 -0.5700672717
O   O27       1.0  0.00380  0.51140  0.12231  1.0000 -0.5700672717
O   O28       1.0  0.49620  0.01140  0.87769  1.0000 -0.5700672717
O   O29       1.0  0.75660  0.65820  0.41010  1.0000 -0.4080137537
O   O30       1.0  0.74340  0.15820  0.58990  1.0000 -0.4080137537
O   O31       1.0  0.24340  0.34180  0.58990  1.0000 -0.41646228
O   O32       1.0  0.25660  0.84180  0.41010  1.0000 -0.41646228
O   O33       1.0  0.84990  0.85520  0.77170  1.0000 -0.5700672717
O   O34       1.0  0.65010  0.35520  0.22830  1.0000 -0.5700672717
O   O35       1.0  0.15010  0.14480  0.22830  1.0000 -0.5700672717
O   O36       1.0  0.34990  0.64480  0.77170  1.0000 -0.5700672717
O   O37       1.0  0.46600  0.12120  0.77340  1.0000 -0.4746708648
O   O38       1.0  0.03400  0.62120  0.22660  1.0000 -0.4746708648
O   O39       1.0  0.53400  0.87880  0.22660  1.0000 -0.475500025
O   O40       1.0  0.96600  0.37880  0.77340  1.0000 -0.475500025
