# DDEC6 charges by PACMAN v1.1 (https://github.com/mtap-research/PACMAN-charge/)
data_2015[Co][bnn]3[ION]1
_chemical_formula_sum              "Co4 H76 C92 N16 O24"
_cell_length_a       10.2416
_cell_length_b       24.956
_cell_length_c       11.4453
_cell_angle_alpha    90
_cell_angle_beta     91.106
_cell_angle_gamma    90

_symmetry_space_group_name_H-M    "P 1"
_symmetry_Int_Tables_number       1

loop_
  _symmetry_equiv_pos_as_xyz
  'x, y, z'

loop_
  _atom_site_type_symbol
  _atom_site_label
  _atom_site_symmetry_multiplicity
  _atom_site_fract_x
  _atom_site_fract_y
  _atom_site_fract_z
  _atom_site_occupancy
  _atom_site_charge
Co  Co1       1.0  0.45087  0.13855  0.54756  1.0000 0.7785194828
Co  Co2       1.0  0.54913  0.63855  0.45244  1.0000 0.7785194828
Co  Co3       1.0  0.95016  0.05871  0.56426  1.0000 0.7980334475
Co  Co4       1.0  0.04984  0.55871  0.43574  1.0000 0.7980334475
H   H1        1.0  0.13270  0.02890  0.35770  1.0000 0.1081838834
H   H2        1.0  0.86730  0.52890  0.64230  1.0000 0.1081838834
H   H3        1.0  0.65010  0.14230  0.75990  1.0000 0.1013471429
H   H4        1.0  0.34990  0.64230  0.24010  1.0000 0.1013471429
H   H5        1.0  0.76180  0.07480  0.34150  1.0000 0.1013471429
H   H6        1.0  0.23820  0.57480  0.65850  1.0000 0.1013471429
H   H7        1.0  0.27280  0.11680  0.32300  1.0000 0.1013471429
H   H8        1.0  0.72720  0.61680  0.67700  1.0000 0.1013471429
H   H9        1.0  0.04000  0.16500  0.61800  1.0000 0.3453455879
H   H10       1.0  0.96000  0.66500  0.38200  1.0000 0.3453455879
H   H11       1.0  0.53300  0.04300  0.49000  1.0000 0.335937859
H   H12       1.0  0.46700  0.54300  0.51000  1.0000 0.335937859
H   H13       1.0  0.75760  0.06970  0.14380  1.0000 0.1308872207
H   H14       1.0  0.24240  0.56970  0.85620  1.0000 0.1308872207
H   H15       1.0  0.27050  0.12000  0.12820  1.0000 0.1308872207
H   H16       1.0  0.72950  0.62000  0.87180  1.0000 0.1308872207
H   H17       1.0  0.65310  0.14350  0.96030  1.0000 0.1308872207
H   H18       1.0  0.34690  0.64350  0.03970  1.0000 0.1308872207
H   H19       1.0  0.85890  0.20100  0.63150  1.0000 0.1013471429
H   H20       1.0  0.14110  0.70100  0.36850  1.0000 0.1013471429
H   H21       1.0  0.13540  0.02630  0.15660  1.0000 0.1308872207
H   H22       1.0  0.86460  0.52630  0.84340  1.0000 0.1308872207
H   H23       1.0  0.26930  0.15700  0.74920  1.0000 0.1081838834
H   H24       1.0  0.73070  0.65700  0.25080  1.0000 0.1081838834
H   H25       1.0  0.30850  0.49880  0.45510  1.0000 0.1081838834
H   H26       1.0  0.69150  0.99880  0.54490  1.0000 0.1081838834
H   H27       1.0  0.76220  0.04200  0.76810  1.0000 0.1013471429
H   H28       1.0  0.23780  0.54200  0.23190  1.0000 0.1013471429
H   H29       1.0  0.96070  0.44170  0.40930  1.0000 0.1013471429
H   H30       1.0  0.03930  0.94170  0.59070  1.0000 0.1013471429
H   H31       1.0  0.13940  0.06330  0.77550  1.0000 0.1013471429
H   H32       1.0  0.86060  0.56330  0.22450  1.0000 0.1013471429
H   H33       1.0  0.75470  0.03560  0.96490  1.0000 0.1373654966
H   H34       1.0  0.24530  0.53560  0.03510  1.0000 0.1373654966
H   H35       1.0  0.26020  0.16200  0.94720  1.0000 0.1308872207
H   H36       1.0  0.73980  0.66200  0.05280  1.0000 0.1308872207
H   H37       1.0  0.62660  0.17660  0.34300  1.0000 0.1013471429
H   H38       1.0  0.37340  0.67660  0.65700  1.0000 0.1013471429
H   H39       1.0  0.14690  0.05850  0.97540  1.0000 0.1308872207
H   H40       1.0  0.85310  0.55850  0.02460  1.0000 0.1308872207
H   H41       1.0  0.63850  0.18000  0.14280  1.0000 0.1308872207
H   H42       1.0  0.36150  0.68000  0.85720  1.0000 0.1308872207
H   H43       1.0  0.36080  0.99190  0.50780  1.0000 0.1013471429
H   H44       1.0  0.63920  0.49190  0.49220  1.0000 0.1013471429
H   H45       1.0  0.03380  0.35680  0.45160  1.0000 0.1308872207
H   H46       1.0  0.96620  0.85680  0.54840  1.0000 0.1308872207
H   H47       1.0  0.10590  0.28100  0.45430  1.0000 0.1179829789
H   H48       1.0  0.89410  0.78100  0.54570  1.0000 0.1179829789
H   H49       1.0  0.39430  0.41570  0.48460  1.0000 0.1373654966
H   H50       1.0  0.60570  0.91570  0.51540  1.0000 0.1373654966
H   H51       1.0  0.45890  0.34140  0.53930  1.0000 0.1308872207
H   H52       1.0  0.54110  0.84140  0.46070  1.0000 0.1308872207
H   H53       1.0  0.50570  0.04530  0.76890  1.0000 0.1081838834
H   H54       1.0  0.49430  0.54530  0.23110  1.0000 0.1081838834
H   H55       1.0  0.98590  0.16210  0.35270  1.0000 0.1179829789
H   H56       1.0  0.01410  0.66210  0.64730  1.0000 0.1179829789
H   H57       1.0  0.76650  0.27530  0.52360  1.0000 0.1179829789
H   H58       1.0  0.23350  0.77530  0.47640  1.0000 0.1179829789
H   H59       1.0  0.75160  0.32200  0.34290  1.0000 0.1081838834
H   H60       1.0  0.24840  0.82200  0.65710  1.0000 0.1081838834
H   H61       1.0  0.24540  0.93420  0.65100  1.0000 0.1081838834
H   H62       1.0  0.75460  0.43420  0.34900  1.0000 0.1081838834
H   H63       1.0  0.23430  0.90010  0.83670  1.0000 0.1081838834
H   H64       1.0  0.76570  0.40010  0.16330  1.0000 0.1081838834
H   H65       1.0  0.34560  0.94050  0.99360  1.0000 0.1179829789
H   H66       1.0  0.65440  0.44050  0.00640  1.0000 0.1179829789
H   H67       1.0  0.49280  0.01000  0.95470  1.0000 0.1081838834
H   H68       1.0  0.50720  0.51000  0.04530  1.0000 0.1081838834
H   H69       1.0  0.96160  0.21390  0.18280  1.0000 0.1308872207
H   H70       1.0  0.03840  0.71390  0.81720  1.0000 0.1308872207
H   H71       1.0  0.19050  0.19500  0.49060  1.0000 0.1013471429
H   H72       1.0  0.80950  0.69500  0.50940  1.0000 0.1081838834
H   H73       1.0  0.52990  0.25450  0.58220  1.0000 0.1081838834
H   H74       1.0  0.47010  0.75450  0.41780  1.0000 0.1081838834
H   H75       1.0  0.84600  0.29000  0.17450  1.0000 0.1179829789
H   H76       1.0  0.15400  0.79000  0.82550  1.0000 0.1179829789
C   C1        1.0  0.74750  0.14050  0.55620  1.0000 0.5597500666
C   C2        1.0  0.25250  0.64050  0.44380  1.0000 0.5597500666
C   C3        1.0  0.05590  0.03910  0.31540  1.0000 0.0777843296
C   C4        1.0  0.94410  0.53910  0.68460  1.0000 0.0777843296
C   C5        1.0  0.56960  0.14490  0.79930  1.0000 0.1013471429
C   C6        1.0  0.43040  0.64490  0.20070  1.0000 0.1013471429
C   C7        1.0  0.84050  0.06510  0.30420  1.0000 0.0523674279
C   C8        1.0  0.15950  0.56510  0.69580  1.0000 0.0523674279
C   C9        1.0  0.34970  0.12910  0.28630  1.0000 0.0569529567
C   C10       1.0  0.65030  0.62910  0.71370  1.0000 0.0569529567
C   C11       1.0  0.45310  0.15030  0.10880  1.0000 0.1013471429
C   C12       1.0  0.54690  0.65030  0.89120  1.0000 0.1013471429
C   C13       1.0  0.94810  0.04890  0.99710  1.0000 0.1373654966
C   C14       1.0  0.05190  0.54890  0.00290  1.0000 0.1373654966
C   C15       1.0  0.83640  0.06240  0.18600  1.0000 -0.1712780481
C   C16       1.0  0.16360  0.56240  0.81400  1.0000 -0.1712780481
C   C17       1.0  0.45570  0.15140  0.98250  1.0000 0.1179829789
C   C18       1.0  0.54430  0.65140  0.01750  1.0000 0.1179829789
C   C19       1.0  0.34660  0.13140  0.16990  1.0000 -0.1712780481
C   C20       1.0  0.65340  0.63140  0.83010  1.0000 -0.1712780481
C   C21       1.0  0.24930  0.05730  0.56210  1.0000 0.5597500666
C   C22       1.0  0.75070  0.55730  0.43790  1.0000 0.5597500666
C   C23       1.0  0.57190  0.14620  0.91920  1.0000 -0.1979243358
C   C24       1.0  0.42810  0.64620  0.08080  1.0000 -0.1979243358
C   C25       1.0  0.86700  0.17700  0.56200  1.0000 -0.0153587018
C   C26       1.0  0.13300  0.67700  0.43800  1.0000 -0.0153587018
C   C27       1.0  0.05760  0.03660  0.19450  1.0000 -0.1792490866
C   C28       1.0  0.94240  0.53660  0.80550  1.0000 -0.1792490866
C   C29       1.0  0.34790  0.15390  0.79400  1.0000 0.0661805659
C   C30       1.0  0.65210  0.65390  0.20600  1.0000 0.0661805659
C   C31       1.0  0.25020  0.46920  0.45520  1.0000 0.091029176
C   C32       1.0  0.74980  0.96920  0.54480  1.0000 0.091029176
C   C33       1.0  0.94710  0.04890  0.12870  1.0000 0.091029176
C   C34       1.0  0.05290  0.54890  0.87130  1.0000 0.091029176
C   C35       1.0  0.84140  0.04550  0.81210  1.0000 0.0777843296
C   C36       1.0  0.15860  0.54550  0.18790  1.0000 0.0777843296
C   C37       1.0  0.05000  0.43670  0.43100  1.0000 0.0777843296
C   C38       1.0  0.95000  0.93670  0.56900  1.0000 0.0777843296
C   C39       1.0  0.06030  0.05790  0.81580  1.0000 0.1013471429
C   C40       1.0  0.93970  0.55790  0.18420  1.0000 0.1013471429
C   C41       1.0  0.83580  0.04230  0.92880  1.0000 -0.1792490866
C   C42       1.0  0.16420  0.54230  0.07120  1.0000 -0.1792490866
C   C43       1.0  0.34220  0.15650  0.91160  1.0000 -0.1712780481
C   C44       1.0  0.65780  0.65650  0.08840  1.0000 -0.1712780481
C   C45       1.0  0.55440  0.16330  0.29840  1.0000 0.0777843296
C   C46       1.0  0.44560  0.66330  0.70160  1.0000 0.0777843296
C   C47       1.0  0.22380  0.37550  0.46980  1.0000 0.1179829789
C   C48       1.0  0.77620  0.87550  0.53020  1.0000 0.1179829789
C   C49       1.0  0.27500  0.32040  0.49170  1.0000 0.1179829789
C   C50       1.0  0.72500  0.82040  0.50830  1.0000 0.1179829789
C   C51       1.0  0.06550  0.05560  0.93470  1.0000 -0.1909656958
C   C52       1.0  0.93450  0.55560  0.06530  1.0000 -0.1909656958
C   C53       1.0  0.56180  0.16680  0.17820  1.0000 -0.1909656958
C   C54       1.0  0.43820  0.66680  0.82180  1.0000 -0.1909656958
C   C55       1.0  0.36880  0.02030  0.56910  1.0000 -0.0050160757
C   C56       1.0  0.63120  0.52030  0.43090  1.0000 -0.0050160757
C   C57       1.0  0.09430  0.38560  0.45100  1.0000 -0.2053869055
C   C58       1.0  0.90570  0.88560  0.54900  1.0000 -0.1979243358
C   C59       1.0  0.19460  0.27660  0.47820  1.0000 -0.1909656958
C   C60       1.0  0.80540  0.77660  0.52180  1.0000 -0.1909656958
C   C61       1.0  0.30290  0.41960  0.47180  1.0000 -0.1979243358
C   C62       1.0  0.69710  0.91960  0.52820  1.0000 -0.1979243358
C   C63       1.0  0.40090  0.31200  0.52910  1.0000 -0.1979243358
C   C64       1.0  0.59910  0.81200  0.47090  1.0000 -0.1979243358
C   C65       1.0  0.44890  0.01600  0.78270  1.0000 -0.1399559215
C   C66       1.0  0.55110  0.51600  0.21730  1.0000 -0.1399559215
C   C67       1.0  0.37510  0.99440  0.68990  1.0000 0.0777843296
C   C68       1.0  0.62490  0.49440  0.31010  1.0000 0.0777843296
C   C69       1.0  0.93540  0.19410  0.35270  1.0000 -0.1399559215
C   C70       1.0  0.06460  0.69410  0.64730  1.0000 -0.1399559215
C   C71       1.0  0.80460  0.26140  0.45490  1.0000 -0.1792490866
C   C72       1.0  0.19540  0.76140  0.54510  1.0000 -0.1792490866
C   C73       1.0  0.87170  0.21190  0.45370  1.0000 0.0661805659
C   C74       1.0  0.12830  0.71190  0.54630  1.0000 0.0661805659
C   C75       1.0  0.79800  0.28900  0.34600  1.0000 -0.1192146712
C   C76       1.0  0.20200  0.78900  0.65400  1.0000 -0.1192146712
C   C77       1.0  0.29490  0.95030  0.71270  1.0000 -0.1579454154
C   C78       1.0  0.70510  0.45030  0.28730  1.0000 -0.1579454154
C   C79       1.0  0.28780  0.93050  0.82300  1.0000 -0.0955127315
C   C80       1.0  0.71220  0.43050  0.17700  1.0000 -0.0955127315
C   C81       1.0  0.35620  0.95330  0.91620  1.0000 -0.0895846304
C   C82       1.0  0.64380  0.45330  0.08380  1.0000 -0.0895846304
C   C83       1.0  0.44040  0.99530  0.89320  1.0000 -0.083078234
C   C84       1.0  0.55960  0.49530  0.10680  1.0000 -0.083078234
C   C85       1.0  0.92100  0.22590  0.25180  1.0000 -0.0895846304
C   C86       1.0  0.07900  0.72590  0.74820  1.0000 -0.0895846304
C   C87       1.0  0.24610  0.22520  0.50040  1.0000 0.1013471429
C   C88       1.0  0.75390  0.72520  0.49960  1.0000 0.1013471429
C   C89       1.0  0.44370  0.25960  0.55230  1.0000 0.091029176
C   C90       1.0  0.55630  0.75960  0.44770  1.0000 0.1013471429
C   C91       1.0  0.85500  0.27080  0.24600  1.0000 -0.1192146712
C   C92       1.0  0.14500  0.77080  0.75400  1.0000 -0.1192146712
N   N1        1.0  0.46210  0.14700  0.73750  1.0000 -0.2447210983
N   N2        1.0  0.53790  0.64700  0.26250  1.0000 -0.2447210983
N   N3        1.0  0.45320  0.14260  0.35830  1.0000 -0.2786506102
N   N4        1.0  0.54680  0.64260  0.64170  1.0000 -0.2786506102
N   N5        1.0  0.95000  0.05520  0.37740  1.0000 -0.2944972799
N   N6        1.0  0.05000  0.55520  0.62260  1.0000 -0.2944972799
N   N7        1.0  0.95110  0.05310  0.75400  1.0000 -0.2314701587
N   N8        1.0  0.04890  0.55310  0.24600  1.0000 -0.2314701587
N   N9        1.0  0.12620  0.47930  0.43950  1.0000 -0.2235730872
N   N10       1.0  0.87380  0.97930  0.56050  1.0000 -0.2235730872
N   N11       1.0  0.36900  0.21730  0.53440  1.0000 -0.2314701587
N   N12       1.0  0.63100  0.71730  0.46560  1.0000 -0.2314701587
N   N13       1.0  0.52250  0.51120  0.73830  1.0000 0.6901162877
N   N14       1.0  0.47750  0.01120  0.26170  1.0000 0.6901162877
N   N15       1.0  0.01610  0.68380  0.13350  1.0000 0.7164044395
N   N16       1.0  0.98390  0.18380  0.86650  1.0000 0.7164044395
O   O1        1.0  0.26360  0.10630  0.55250  1.0000 -0.5211872146
O   O2        1.0  0.73640  0.60630  0.44750  1.0000 -0.5211872146
O   O3        1.0  0.76380  0.09120  0.55900  1.0000 -0.5211872146
O   O4        1.0  0.23620  0.59120  0.44100  1.0000 -0.5211872146
O   O5        1.0  0.13950  0.03340  0.56870  1.0000 -0.5566363619
O   O6        1.0  0.86050  0.53340  0.43130  1.0000 -0.5566363619
O   O7        1.0  0.63930  0.16430  0.54840  1.0000 -0.5488655851
O   O8        1.0  0.36070  0.66430  0.45160  1.0000 -0.5488655851
O   O9        1.0  0.98240  0.14520  0.57770  1.0000 -0.490242681
O   O10       1.0  0.01760  0.64520  0.42230  1.0000 -0.490242681
O   O11       1.0  0.48200  0.05210  0.54890  1.0000 -0.490242681
O   O12       1.0  0.51800  0.55210  0.45110  1.0000 -0.490242681
O   O13       1.0  0.43960  0.51960  0.65720  1.0000 -0.44067937
O   O14       1.0  0.63790  0.50510  0.71270  1.0000 -0.4254557178
O   O15       1.0  0.48730  0.51190  0.83820  1.0000 -0.3980905101
O   O16       1.0  0.56040  0.01960  0.34280  1.0000 -0.44067937
O   O17       1.0  0.36210  0.00510  0.28730  1.0000 -0.4254557178
O   O18       1.0  0.51270  0.01190  0.16180  1.0000 -0.3980905101
O   O19       1.0  0.93830  0.68630  0.21800  1.0000 -0.4694032655
O   O20       1.0  0.97280  0.69140  0.03060  1.0000 -0.4694032655
O   O21       1.0  0.13310  0.67440  0.15280  1.0000 -0.4460561857
O   O22       1.0  0.06170  0.18630  0.78200  1.0000 -0.4694032655
O   O23       1.0  0.02720  0.19140  0.96940  1.0000 -0.4694032655
O   O24       1.0  0.86690  0.17440  0.84720  1.0000 -0.44067937
