# DDEC6 charges by PACMAN v1.1 (https://github.com/mtap-research/PACMAN-charge/)
data_2015[La][bcu]3[ION]1
_chemical_formula_sum              "La12 H384 C504 S24 N96 O168 F72"
_cell_length_a       25.997
_cell_length_b       25.997
_cell_length_c       26.7847
_cell_angle_alpha    90
_cell_angle_beta     90
_cell_angle_gamma    90

_symmetry_space_group_name_H-M    "P 1"
_symmetry_Int_Tables_number       1

loop_
  _symmetry_equiv_pos_as_xyz
  'x, y, z'

loop_
  _atom_site_type_symbol
  _atom_site_label
  _atom_site_symmetry_multiplicity
  _atom_site_fract_x
  _atom_site_fract_y
  _atom_site_fract_z
  _atom_site_occupancy
  _atom_site_charge
La  La1       1.0  0.75863  0.24137  0.25000  1.0000 1.8376270726
La  La2       1.0  0.24137  0.75863  0.25000  1.0000 1.8376270726
La  La3       1.0  0.24137  0.24137  0.75000  1.0000 1.8376270726
La  La4       1.0  0.75863  0.75863  0.75000  1.0000 1.8376270726
La  La5       1.0  0.75106  0.74073  0.08273  1.0000 1.8491950527
La  La6       1.0  0.24894  0.25927  0.08273  1.0000 1.8491950527
La  La7       1.0  0.74073  0.24894  0.91727  1.0000 1.8491950527
La  La8       1.0  0.25927  0.75106  0.91727  1.0000 1.8491950527
La  La9       1.0  0.75106  0.25927  0.58273  1.0000 1.8491950527
La  La10      1.0  0.24894  0.74073  0.58273  1.0000 1.8491950527
La  La11      1.0  0.74073  0.75106  0.41727  1.0000 1.8491950527
La  La12      1.0  0.25927  0.24894  0.41727  1.0000 1.8491950527
H   H1        1.0  0.72140  0.34030  0.13770  1.0000 0.1405056793
H   H2        1.0  0.27860  0.65970  0.13770  1.0000 0.1405056793
H   H3        1.0  0.34030  0.27860  0.86230  1.0000 0.1405056793
H   H4        1.0  0.65970  0.72140  0.86230  1.0000 0.1405056793
H   H5        1.0  0.72140  0.65970  0.63770  1.0000 0.1405056793
H   H6        1.0  0.27860  0.34030  0.63770  1.0000 0.1405056793
H   H7        1.0  0.34030  0.72140  0.36230  1.0000 0.1405056793
H   H8        1.0  0.65970  0.27860  0.36230  1.0000 0.1405056793
H   H9        1.0  0.69870  0.42480  0.12110  1.0000 0.1405056793
H   H10       1.0  0.30130  0.57520  0.12110  1.0000 0.1405056793
H   H11       1.0  0.42480  0.30130  0.87890  1.0000 0.1405056793
H   H12       1.0  0.57520  0.69870  0.87890  1.0000 0.1405056793
H   H13       1.0  0.69870  0.57520  0.62110  1.0000 0.1405056793
H   H14       1.0  0.30130  0.42480  0.62110  1.0000 0.1405056793
H   H15       1.0  0.42480  0.69870  0.37890  1.0000 0.1405056793
H   H16       1.0  0.57520  0.30130  0.37890  1.0000 0.1405056793
H   H17       1.0  0.80370  0.47140  0.22050  1.0000 0.1405056793
H   H18       1.0  0.19630  0.52860  0.22050  1.0000 0.1405056793
H   H19       1.0  0.47140  0.19630  0.77950  1.0000 0.1405056793
H   H20       1.0  0.52860  0.80370  0.77950  1.0000 0.1405056793
H   H21       1.0  0.80370  0.52860  0.72050  1.0000 0.1405056793
H   H22       1.0  0.19630  0.47140  0.72050  1.0000 0.1405056793
H   H23       1.0  0.47140  0.80370  0.27950  1.0000 0.1405056793
H   H24       1.0  0.52860  0.19630  0.27950  1.0000 0.1405056793
H   H25       1.0  0.82480  0.38630  0.23610  1.0000 0.1298346199
H   H26       1.0  0.17520  0.61370  0.23610  1.0000 0.1298346199
H   H27       1.0  0.38630  0.17520  0.76390  1.0000 0.1298346199
H   H28       1.0  0.61370  0.82480  0.76390  1.0000 0.1298346199
H   H29       1.0  0.82480  0.61370  0.73610  1.0000 0.1298346199
H   H30       1.0  0.17520  0.38630  0.73610  1.0000 0.1298346199
H   H31       1.0  0.38630  0.82480  0.26390  1.0000 0.1298346199
H   H32       1.0  0.61370  0.17520  0.26390  1.0000 0.1298346199
H   H33       1.0  0.66650  0.09190  0.23930  1.0000 0.1405056793
H   H34       1.0  0.33350  0.90810  0.23930  1.0000 0.1405056793
H   H35       1.0  0.09190  0.33350  0.76070  1.0000 0.1405056793
H   H36       1.0  0.90810  0.66650  0.76070  1.0000 0.1405056793
H   H37       1.0  0.66650  0.90810  0.73930  1.0000 0.1405056793
H   H38       1.0  0.33350  0.09190  0.73930  1.0000 0.1405056793
H   H39       1.0  0.09190  0.66650  0.26070  1.0000 0.1405056793
H   H40       1.0  0.90810  0.33350  0.26070  1.0000 0.1405056793
H   H41       1.0  0.67460  0.00660  0.21470  1.0000 0.14727465
H   H42       1.0  0.32540  0.99340  0.21470  1.0000 0.14727465
H   H43       1.0  0.00660  0.32540  0.78530  1.0000 0.14727465
H   H44       1.0  0.99340  0.67460  0.78530  1.0000 0.14727465
H   H45       1.0  0.67460  0.99340  0.71470  1.0000 0.14727465
H   H46       1.0  0.32540  0.00660  0.71470  1.0000 0.14727465
H   H47       1.0  0.00660  0.67460  0.28530  1.0000 0.14727465
H   H48       1.0  0.99340  0.32540  0.28530  1.0000 0.14727465
H   H49       1.0  0.80660  0.04340  0.14720  1.0000 0.1405056793
H   H50       1.0  0.19340  0.95660  0.14720  1.0000 0.1405056793
H   H51       1.0  0.04340  0.19340  0.85280  1.0000 0.1405056793
H   H52       1.0  0.95660  0.80660  0.85280  1.0000 0.1405056793
H   H53       1.0  0.80660  0.95660  0.64720  1.0000 0.1405056793
H   H54       1.0  0.19340  0.04340  0.64720  1.0000 0.1405056793
H   H55       1.0  0.04340  0.80660  0.35280  1.0000 0.1405056793
H   H56       1.0  0.95660  0.19340  0.35280  1.0000 0.1405056793
H   H57       1.0  0.78110  0.12990  0.14920  1.0000 0.1405056793
H   H58       1.0  0.21890  0.87010  0.14920  1.0000 0.1405056793
H   H59       1.0  0.12990  0.21890  0.85080  1.0000 0.1405056793
H   H60       1.0  0.87010  0.78110  0.85080  1.0000 0.1405056793
H   H61       1.0  0.78110  0.87010  0.64920  1.0000 0.1405056793
H   H62       1.0  0.21890  0.12990  0.64920  1.0000 0.1405056793
H   H63       1.0  0.12990  0.78110  0.35080  1.0000 0.1405056793
H   H64       1.0  0.87010  0.21890  0.35080  1.0000 0.1405056793
H   H65       1.0  0.86030  0.27620  0.14820  1.0000 0.14727465
H   H66       1.0  0.13970  0.72380  0.14820  1.0000 0.14727465
H   H67       1.0  0.27620  0.13970  0.85180  1.0000 0.14727465
H   H68       1.0  0.72380  0.86030  0.85180  1.0000 0.14727465
H   H69       1.0  0.86030  0.72380  0.64820  1.0000 0.14727465
H   H70       1.0  0.13970  0.27620  0.64820  1.0000 0.14727465
H   H71       1.0  0.27620  0.86030  0.35180  1.0000 0.14727465
H   H72       1.0  0.72380  0.13970  0.35180  1.0000 0.14727465
H   H73       1.0  0.94580  0.29030  0.12530  1.0000 0.1405056793
H   H74       1.0  0.05420  0.70970  0.12530  1.0000 0.1405056793
H   H75       1.0  0.29030  0.05420  0.87470  1.0000 0.1405056793
H   H76       1.0  0.70970  0.94580  0.87470  1.0000 0.1405056793
H   H77       1.0  0.94580  0.70970  0.62530  1.0000 0.1405056793
H   H78       1.0  0.05420  0.29030  0.62530  1.0000 0.1405056793
H   H79       1.0  0.29030  0.94580  0.37470  1.0000 0.1405056793
H   H80       1.0  0.70970  0.05420  0.37470  1.0000 0.1405056793
H   H81       1.0  0.98980  0.18090  0.22140  1.0000 0.1298346199
H   H82       1.0  0.01020  0.81910  0.22140  1.0000 0.1298346199
H   H83       1.0  0.18090  0.01020  0.77860  1.0000 0.1298346199
H   H84       1.0  0.81910  0.98980  0.77860  1.0000 0.1298346199
H   H85       1.0  0.98980  0.81910  0.72140  1.0000 0.1298346199
H   H86       1.0  0.01020  0.18090  0.72140  1.0000 0.1298346199
H   H87       1.0  0.18090  0.98980  0.27860  1.0000 0.1298346199
H   H88       1.0  0.81910  0.01020  0.27860  1.0000 0.1298346199
H   H89       1.0  0.90410  0.15660  0.22900  1.0000 0.1298346199
H   H90       1.0  0.09590  0.84340  0.22900  1.0000 0.1298346199
H   H91       1.0  0.15660  0.09590  0.77100  1.0000 0.1298346199
H   H92       1.0  0.84340  0.90410  0.77100  1.0000 0.1298346199
H   H93       1.0  0.90410  0.84340  0.72900  1.0000 0.1298346199
H   H94       1.0  0.09590  0.15660  0.72900  1.0000 0.1298346199
H   H95       1.0  0.15660  0.90410  0.27100  1.0000 0.1298346199
H   H96       1.0  0.84340  0.09590  0.27100  1.0000 0.1298346199
H   H97       1.0  0.61270  0.32810  0.22730  1.0000 0.1405056793
H   H98       1.0  0.38730  0.67190  0.22730  1.0000 0.1405056793
H   H99       1.0  0.32810  0.38730  0.77270  1.0000 0.1405056793
H   H100      1.0  0.67190  0.61270  0.77270  1.0000 0.1405056793
H   H101      1.0  0.61270  0.67190  0.72730  1.0000 0.1405056793
H   H102      1.0  0.38730  0.32810  0.72730  1.0000 0.1405056793
H   H103      1.0  0.32810  0.61270  0.27270  1.0000 0.1405056793
H   H104      1.0  0.67190  0.38730  0.27270  1.0000 0.1405056793
H   H105      1.0  0.52540  0.31690  0.21030  1.0000 0.1405056793
H   H106      1.0  0.47460  0.68310  0.21030  1.0000 0.1405056793
H   H107      1.0  0.31690  0.47460  0.78970  1.0000 0.1405056793
H   H108      1.0  0.68310  0.52540  0.78970  1.0000 0.1405056793
H   H109      1.0  0.52540  0.68310  0.71030  1.0000 0.1405056793
H   H110      1.0  0.47460  0.31690  0.71030  1.0000 0.1405056793
H   H111      1.0  0.31690  0.52540  0.28970  1.0000 0.1405056793
H   H112      1.0  0.68310  0.47460  0.28970  1.0000 0.1405056793
H   H113      1.0  0.55950  0.19330  0.12870  1.0000 0.1405056793
H   H114      1.0  0.44050  0.80670  0.12870  1.0000 0.1405056793
H   H115      1.0  0.19330  0.44050  0.87130  1.0000 0.1405056793
H   H116      1.0  0.80670  0.55950  0.87130  1.0000 0.1405056793
H   H117      1.0  0.55950  0.80670  0.62870  1.0000 0.1405056793
H   H118      1.0  0.44050  0.19330  0.62870  1.0000 0.1405056793
H   H119      1.0  0.19330  0.55950  0.37130  1.0000 0.1405056793
H   H120      1.0  0.80670  0.44050  0.37130  1.0000 0.1405056793
H   H121      1.0  0.64660  0.20870  0.14160  1.0000 0.1405056793
H   H122      1.0  0.35340  0.79130  0.14160  1.0000 0.1405056793
H   H123      1.0  0.20870  0.35340  0.85840  1.0000 0.1405056793
H   H124      1.0  0.79130  0.64660  0.85840  1.0000 0.1405056793
H   H125      1.0  0.64660  0.79130  0.64160  1.0000 0.1405056793
H   H126      1.0  0.35340  0.20870  0.64160  1.0000 0.1405056793
H   H127      1.0  0.20870  0.64660  0.35840  1.0000 0.1405056793
H   H128      1.0  0.79130  0.35340  0.35840  1.0000 0.1405056793
H   H129      1.0  0.86510  0.70680  0.98900  1.0000 0.1405056793
H   H130      1.0  0.13490  0.29320  0.98900  1.0000 0.1405056793
H   H131      1.0  0.70680  0.13490  0.01100  1.0000 0.1405056793
H   H132      1.0  0.29320  0.86510  0.01100  1.0000 0.1405056793
H   H133      1.0  0.86510  0.29320  0.48900  1.0000 0.1405056793
H   H134      1.0  0.13490  0.70680  0.48900  1.0000 0.1405056793
H   H135      1.0  0.70680  0.86510  0.51100  1.0000 0.1405056793
H   H136      1.0  0.29320  0.13490  0.51100  1.0000 0.1405056793
H   H137      1.0  0.94900  0.70760  0.95600  1.0000 0.1405056793
H   H138      1.0  0.05100  0.29240  0.95600  1.0000 0.1405056793
H   H139      1.0  0.70760  0.05100  0.04400  1.0000 0.1405056793
H   H140      1.0  0.29240  0.94900  0.04400  1.0000 0.1405056793
H   H141      1.0  0.94900  0.29240  0.45600  1.0000 0.1405056793
H   H142      1.0  0.05100  0.70760  0.45600  1.0000 0.1405056793
H   H143      1.0  0.70760  0.94900  0.54400  1.0000 0.1405056793
H   H144      1.0  0.29240  0.05100  0.54400  1.0000 0.1405056793
H   H145      1.0  0.98640  0.81700  0.05450  1.0000 0.1405056793
H   H146      1.0  0.01360  0.18300  0.05450  1.0000 0.1405056793
H   H147      1.0  0.81700  0.01360  0.94550  1.0000 0.1405056793
H   H148      1.0  0.18300  0.98640  0.94550  1.0000 0.1405056793
H   H149      1.0  0.98640  0.18300  0.55450  1.0000 0.1405056793
H   H150      1.0  0.01360  0.81700  0.55450  1.0000 0.1405056793
H   H151      1.0  0.81700  0.98640  0.44550  1.0000 0.1405056793
H   H152      1.0  0.18300  0.01360  0.44550  1.0000 0.1405056793
H   H153      1.0  0.90000  0.82410  0.07610  1.0000 0.1298346199
H   H154      1.0  0.10000  0.17590  0.07610  1.0000 0.1298346199
H   H155      1.0  0.82410  0.10000  0.92390  1.0000 0.1298346199
H   H156      1.0  0.17590  0.90000  0.92390  1.0000 0.1298346199
H   H157      1.0  0.90000  0.17590  0.57610  1.0000 0.1298346199
H   H158      1.0  0.10000  0.82410  0.57610  1.0000 0.1298346199
H   H159      1.0  0.82410  0.90000  0.42390  1.0000 0.1298346199
H   H160      1.0  0.17590  0.10000  0.42390  1.0000 0.1298346199
H   H161      1.0  0.83150  0.87920  0.11630  1.0000 0.1298346199
H   H162      1.0  0.16850  0.12080  0.11630  1.0000 0.1298346199
H   H163      1.0  0.87920  0.16850  0.88370  1.0000 0.1298346199
H   H164      1.0  0.12080  0.83150  0.88370  1.0000 0.1298346199
H   H165      1.0  0.83150  0.12080  0.61630  1.0000 0.1298346199
H   H166      1.0  0.16850  0.87920  0.61630  1.0000 0.1298346199
H   H167      1.0  0.87920  0.83150  0.38370  1.0000 0.1298346199
H   H168      1.0  0.12080  0.16850  0.38370  1.0000 0.1298346199
H   H169      1.0  0.81550  0.96670  0.12350  1.0000 0.1298346199
H   H170      1.0  0.18450  0.03330  0.12350  1.0000 0.1298346199
H   H171      1.0  0.96670  0.18450  0.87650  1.0000 0.1298346199
H   H172      1.0  0.03330  0.81550  0.87650  1.0000 0.1298346199
H   H173      1.0  0.81550  0.03330  0.62350  1.0000 0.1298346199
H   H174      1.0  0.18450  0.96670  0.62350  1.0000 0.1298346199
H   H175      1.0  0.96670  0.81550  0.37650  1.0000 0.1298346199
H   H176      1.0  0.03330  0.18450  0.37650  1.0000 0.1298346199
H   H177      1.0  0.68290  0.93510  0.19010  1.0000 0.1405056793
H   H178      1.0  0.31710  0.06490  0.19010  1.0000 0.1405056793
H   H179      1.0  0.93510  0.31710  0.80990  1.0000 0.1405056793
H   H180      1.0  0.06490  0.68290  0.80990  1.0000 0.1405056793
H   H181      1.0  0.68290  0.06490  0.69010  1.0000 0.1405056793
H   H182      1.0  0.31710  0.93510  0.69010  1.0000 0.1405056793
H   H183      1.0  0.93510  0.68290  0.30990  1.0000 0.1405056793
H   H184      1.0  0.06490  0.31710  0.30990  1.0000 0.1405056793
H   H185      1.0  0.70650  0.84830  0.19450  1.0000 0.14727465
H   H186      1.0  0.29350  0.15170  0.19450  1.0000 0.14727465
H   H187      1.0  0.84830  0.29350  0.80550  1.0000 0.14727465
H   H188      1.0  0.15170  0.70650  0.80550  1.0000 0.14727465
H   H189      1.0  0.70650  0.15170  0.69450  1.0000 0.14727465
H   H190      1.0  0.29350  0.84830  0.69450  1.0000 0.14727465
H   H191      1.0  0.84830  0.70650  0.30550  1.0000 0.14727465
H   H192      1.0  0.15170  0.29350  0.30550  1.0000 0.14727465
H   H193      1.0  0.65150  0.78770  0.96980  1.0000 0.1405056793
H   H194      1.0  0.34850  0.21230  0.96980  1.0000 0.1405056793
H   H195      1.0  0.78770  0.34850  0.03020  1.0000 0.1405056793
H   H196      1.0  0.21230  0.65150  0.03020  1.0000 0.1405056793
H   H197      1.0  0.65150  0.21230  0.46980  1.0000 0.1405056793
H   H198      1.0  0.34850  0.78770  0.46980  1.0000 0.1405056793
H   H199      1.0  0.78770  0.65150  0.53020  1.0000 0.1405056793
H   H200      1.0  0.21230  0.34850  0.53020  1.0000 0.1405056793
H   H201      1.0  0.56470  0.80510  0.95550  1.0000 0.1405056793
H   H202      1.0  0.43530  0.19490  0.95550  1.0000 0.1405056793
H   H203      1.0  0.80510  0.43530  0.04450  1.0000 0.1405056793
H   H204      1.0  0.19490  0.56470  0.04450  1.0000 0.1405056793
H   H205      1.0  0.56470  0.19490  0.45550  1.0000 0.1405056793
H   H206      1.0  0.43530  0.80510  0.45550  1.0000 0.1405056793
H   H207      1.0  0.80510  0.56470  0.54450  1.0000 0.1405056793
H   H208      1.0  0.19490  0.43530  0.54450  1.0000 0.1405056793
H   H209      1.0  0.52760  0.69230  0.05050  1.0000 0.1405056793
H   H210      1.0  0.47240  0.30770  0.05050  1.0000 0.1405056793
H   H211      1.0  0.69230  0.47240  0.94950  1.0000 0.1405056793
H   H212      1.0  0.30770  0.52760  0.94950  1.0000 0.1405056793
H   H213      1.0  0.52760  0.30770  0.55050  1.0000 0.1405056793
H   H214      1.0  0.47240  0.69230  0.55050  1.0000 0.1405056793
H   H215      1.0  0.69230  0.52760  0.44950  1.0000 0.1405056793
H   H216      1.0  0.30770  0.47240  0.44950  1.0000 0.1405056793
H   H217      1.0  0.61270  0.66360  0.04700  1.0000 0.1298346199
H   H218      1.0  0.38730  0.33640  0.04700  1.0000 0.1298346199
H   H219      1.0  0.66360  0.38730  0.95300  1.0000 0.1298346199
H   H220      1.0  0.33640  0.61270  0.95300  1.0000 0.1298346199
H   H221      1.0  0.61270  0.33640  0.54700  1.0000 0.1298346199
H   H222      1.0  0.38730  0.66360  0.54700  1.0000 0.1298346199
H   H223      1.0  0.66360  0.61270  0.45300  1.0000 0.1298346199
H   H224      1.0  0.33640  0.38730  0.45300  1.0000 0.1298346199
H   H225      1.0  0.72100  0.63340  0.97960  1.0000 0.1405056793
H   H226      1.0  0.27900  0.36660  0.97960  1.0000 0.1405056793
H   H227      1.0  0.63340  0.27900  0.02040  1.0000 0.1405056793
H   H228      1.0  0.36660  0.72100  0.02040  1.0000 0.1405056793
H   H229      1.0  0.72100  0.36660  0.47960  1.0000 0.1405056793
H   H230      1.0  0.27900  0.63340  0.47960  1.0000 0.1405056793
H   H231      1.0  0.63340  0.72100  0.52040  1.0000 0.1405056793
H   H232      1.0  0.36660  0.27900  0.52040  1.0000 0.1405056793
H   H233      1.0  0.69980  0.54720  0.96980  1.0000 0.1405056793
H   H234      1.0  0.30020  0.45280  0.96980  1.0000 0.1405056793
H   H235      1.0  0.54720  0.30020  0.03020  1.0000 0.1405056793
H   H236      1.0  0.45280  0.69980  0.03020  1.0000 0.1405056793
H   H237      1.0  0.69980  0.45280  0.46980  1.0000 0.1405056793
H   H238      1.0  0.30020  0.54720  0.46980  1.0000 0.1405056793
H   H239      1.0  0.54720  0.69980  0.53020  1.0000 0.1405056793
H   H240      1.0  0.45280  0.30020  0.53020  1.0000 0.1405056793
H   H241      1.0  0.48990  0.82770  0.95500  1.0000 0.14727465
H   H242      1.0  0.51010  0.17230  0.95500  1.0000 0.14727465
H   H243      1.0  0.82770  0.51010  0.04500  1.0000 0.14727465
H   H244      1.0  0.17230  0.48990  0.04500  1.0000 0.14727465
H   H245      1.0  0.48990  0.17230  0.45500  1.0000 0.14727465
H   H246      1.0  0.51010  0.82770  0.45500  1.0000 0.14727465
H   H247      1.0  0.82770  0.48990  0.54500  1.0000 0.14727465
H   H248      1.0  0.17230  0.51010  0.54500  1.0000 0.14727465
H   H249      1.0  0.83310  0.59520  0.07190  1.0000 0.1405056793
H   H250      1.0  0.16690  0.40480  0.07190  1.0000 0.1405056793
H   H251      1.0  0.59520  0.16690  0.92810  1.0000 0.1405056793
H   H252      1.0  0.40480  0.83310  0.92810  1.0000 0.1405056793
H   H253      1.0  0.83310  0.40480  0.57190  1.0000 0.1405056793
H   H254      1.0  0.16690  0.59520  0.57190  1.0000 0.1405056793
H   H255      1.0  0.59520  0.83310  0.42810  1.0000 0.1405056793
H   H256      1.0  0.40480  0.16690  0.42810  1.0000 0.1405056793
H   H257      1.0  0.36510  0.30040  0.16730  1.0000 0.1405056793
H   H258      1.0  0.63490  0.69960  0.16730  1.0000 0.1405056793
H   H259      1.0  0.30040  0.63490  0.83270  1.0000 0.1405056793
H   H260      1.0  0.69960  0.36510  0.83270  1.0000 0.1405056793
H   H261      1.0  0.36510  0.69960  0.66730  1.0000 0.1405056793
H   H262      1.0  0.63490  0.30040  0.66730  1.0000 0.1405056793
H   H263      1.0  0.30040  0.36510  0.33270  1.0000 0.1405056793
H   H264      1.0  0.69960  0.63490  0.33270  1.0000 0.1405056793
H   H265      1.0  0.45190  0.31590  0.18200  1.0000 0.1405056793
H   H266      1.0  0.54810  0.68410  0.18200  1.0000 0.1405056793
H   H267      1.0  0.31590  0.54810  0.81800  1.0000 0.1405056793
H   H268      1.0  0.68410  0.45190  0.81800  1.0000 0.1405056793
H   H269      1.0  0.45190  0.68410  0.68200  1.0000 0.1405056793
H   H270      1.0  0.54810  0.31590  0.68200  1.0000 0.1405056793
H   H271      1.0  0.31590  0.45190  0.31800  1.0000 0.1405056793
H   H272      1.0  0.68410  0.54810  0.31800  1.0000 0.1405056793
H   H273      1.0  0.48730  0.18340  0.11590  1.0000 0.1405056793
H   H274      1.0  0.51270  0.81660  0.11590  1.0000 0.1405056793
H   H275      1.0  0.18340  0.51270  0.88410  1.0000 0.1405056793
H   H276      1.0  0.81660  0.48730  0.88410  1.0000 0.1405056793
H   H277      1.0  0.48730  0.81660  0.61590  1.0000 0.1405056793
H   H278      1.0  0.51270  0.18340  0.61590  1.0000 0.1405056793
H   H279      1.0  0.18340  0.48730  0.38410  1.0000 0.1405056793
H   H280      1.0  0.81660  0.51270  0.38410  1.0000 0.1405056793
H   H281      1.0  0.39940  0.16470  0.10980  1.0000 0.1405056793
H   H282      1.0  0.60060  0.83530  0.10980  1.0000 0.1405056793
H   H283      1.0  0.16470  0.60060  0.89020  1.0000 0.1405056793
H   H284      1.0  0.83530  0.39940  0.89020  1.0000 0.1405056793
H   H285      1.0  0.39940  0.83530  0.60980  1.0000 0.1405056793
H   H286      1.0  0.60060  0.16470  0.60980  1.0000 0.1405056793
H   H287      1.0  0.16470  0.39940  0.39020  1.0000 0.1405056793
H   H288      1.0  0.83530  0.60060  0.39020  1.0000 0.1405056793
H   H289      1.0  0.80180  0.85250  0.00040  1.0000 0.1298346199
H   H290      1.0  0.19820  0.14750  0.00040  1.0000 0.1298346199
H   H291      1.0  0.85250  0.19820  0.99960  1.0000 0.1298346199
H   H292      1.0  0.14750  0.80180  0.99960  1.0000 0.1298346199
H   H293      1.0  0.80180  0.14750  0.50040  1.0000 0.1298346199
H   H294      1.0  0.19820  0.85250  0.50040  1.0000 0.1298346199
H   H295      1.0  0.85250  0.80180  0.49960  1.0000 0.1298346199
H   H296      1.0  0.14750  0.19820  0.49960  1.0000 0.1298346199
H   H297      1.0  0.81480  0.93810  0.97760  1.0000 0.1405056793
H   H298      1.0  0.18520  0.06190  0.97760  1.0000 0.1405056793
H   H299      1.0  0.93810  0.18520  0.02240  1.0000 0.1405056793
H   H300      1.0  0.06190  0.81480  0.02240  1.0000 0.1405056793
H   H301      1.0  0.81480  0.06190  0.47760  1.0000 0.1405056793
H   H302      1.0  0.18520  0.93810  0.47760  1.0000 0.1405056793
H   H303      1.0  0.93810  0.81480  0.52240  1.0000 0.1405056793
H   H304      1.0  0.06190  0.18520  0.52240  1.0000 0.1405056793
H   H305      1.0  0.02490  0.67790  0.96450  1.0000 0.1405056793
H   H306      1.0  0.97510  0.32210  0.96450  1.0000 0.1405056793
H   H307      1.0  0.67790  0.97510  0.03550  1.0000 0.1405056793
H   H308      1.0  0.32210  0.02490  0.03550  1.0000 0.1405056793
H   H309      1.0  0.02490  0.32210  0.46450  1.0000 0.1405056793
H   H310      1.0  0.97510  0.67790  0.46450  1.0000 0.1405056793
H   H311      1.0  0.67790  0.02490  0.53550  1.0000 0.1405056793
H   H312      1.0  0.32210  0.97510  0.53550  1.0000 0.1405056793
H   H313      1.0  0.66190  0.88810  0.04900  1.0000 0.1405056793
H   H314      1.0  0.33810  0.11190  0.04900  1.0000 0.1405056793
H   H315      1.0  0.88810  0.33810  0.95100  1.0000 0.1405056793
H   H316      1.0  0.11190  0.66190  0.95100  1.0000 0.1405056793
H   H317      1.0  0.66190  0.11190  0.54900  1.0000 0.1405056793
H   H318      1.0  0.33810  0.88810  0.54900  1.0000 0.1405056793
H   H319      1.0  0.88810  0.66190  0.45100  1.0000 0.1405056793
H   H320      1.0  0.11190  0.33810  0.45100  1.0000 0.1405056793
H   H321      1.0  0.14890  0.22740  0.19880  1.0000 0.1405056793
H   H322      1.0  0.85110  0.77260  0.19880  1.0000 0.1405056793
H   H323      1.0  0.22740  0.85110  0.80120  1.0000 0.1405056793
H   H324      1.0  0.77260  0.14890  0.80120  1.0000 0.1405056793
H   H325      1.0  0.14890  0.77260  0.69880  1.0000 0.1405056793
H   H326      1.0  0.85110  0.22740  0.69880  1.0000 0.1405056793
H   H327      1.0  0.22740  0.14890  0.30120  1.0000 0.1405056793
H   H328      1.0  0.77260  0.85110  0.30120  1.0000 0.1405056793
H   H329      1.0  0.06390  0.20560  0.21430  1.0000 0.1298346199
H   H330      1.0  0.93610  0.79440  0.21430  1.0000 0.1298346199
H   H331      1.0  0.20560  0.93610  0.78570  1.0000 0.1298346199
H   H332      1.0  0.79440  0.06390  0.78570  1.0000 0.1298346199
H   H333      1.0  0.06390  0.79440  0.71430  1.0000 0.1298346199
H   H334      1.0  0.93610  0.20560  0.71430  1.0000 0.1298346199
H   H335      1.0  0.20560  0.06390  0.28570  1.0000 0.1298346199
H   H336      1.0  0.79440  0.93610  0.28570  1.0000 0.1298346199
H   H337      1.0  0.01910  0.31500  0.11820  1.0000 0.1405056793
H   H338      1.0  0.98090  0.68500  0.11820  1.0000 0.14727465
H   H339      1.0  0.31500  0.98090  0.88180  1.0000 0.1405056793
H   H340      1.0  0.68500  0.01910  0.88180  1.0000 0.1405056793
H   H341      1.0  0.01910  0.68500  0.61820  1.0000 0.1405056793
H   H342      1.0  0.98090  0.31500  0.61820  1.0000 0.1405056793
H   H343      1.0  0.31500  0.01910  0.38180  1.0000 0.1405056793
H   H344      1.0  0.68500  0.98090  0.38180  1.0000 0.14727465
H   H345      1.0  0.10500  0.32860  0.09710  1.0000 0.1298346199
H   H346      1.0  0.89500  0.67140  0.09710  1.0000 0.1298346199
H   H347      1.0  0.32860  0.89500  0.90290  1.0000 0.1298346199
H   H348      1.0  0.67140  0.10500  0.90290  1.0000 0.1298346199
H   H349      1.0  0.10500  0.67140  0.59710  1.0000 0.1298346199
H   H350      1.0  0.89500  0.32860  0.59710  1.0000 0.1298346199
H   H351      1.0  0.32860  0.10500  0.40290  1.0000 0.1298346199
H   H352      1.0  0.67140  0.89500  0.40290  1.0000 0.1298346199
H   H353      1.0  0.78470  0.62860  0.16570  1.0000 0.14727465
H   H354      1.0  0.21530  0.37140  0.16570  1.0000 0.14727465
H   H355      1.0  0.62860  0.21530  0.83430  1.0000 0.14727465
H   H356      1.0  0.37140  0.78470  0.83430  1.0000 0.14727465
H   H357      1.0  0.78470  0.37140  0.66570  1.0000 0.14727465
H   H358      1.0  0.21530  0.62860  0.66570  1.0000 0.14727465
H   H359      1.0  0.62860  0.78470  0.33430  1.0000 0.14727465
H   H360      1.0  0.37140  0.21530  0.33430  1.0000 0.14727465
H   H361      1.0  0.79020  0.54790  0.20320  1.0000 0.14727465
H   H362      1.0  0.20980  0.45210  0.20320  1.0000 0.14727465
H   H363      1.0  0.54790  0.20980  0.79680  1.0000 0.14727465
H   H364      1.0  0.45210  0.79020  0.79680  1.0000 0.14727465
H   H365      1.0  0.79020  0.45210  0.70320  1.0000 0.14727465
H   H366      1.0  0.20980  0.54790  0.70320  1.0000 0.14727465
H   H367      1.0  0.54790  0.79020  0.29680  1.0000 0.14727465
H   H368      1.0  0.45210  0.20980  0.29680  1.0000 0.14727465
H   H369      1.0  0.67100  0.50150  0.12180  1.0000 0.1405056793
H   H370      1.0  0.32900  0.49850  0.12180  1.0000 0.1405056793
H   H371      1.0  0.50150  0.32900  0.87820  1.0000 0.1405056793
H   H372      1.0  0.49850  0.67100  0.87820  1.0000 0.1405056793
H   H373      1.0  0.67100  0.49850  0.62180  1.0000 0.1405056793
H   H374      1.0  0.32900  0.50150  0.62180  1.0000 0.1405056793
H   H375      1.0  0.50150  0.67100  0.37820  1.0000 0.1405056793
H   H376      1.0  0.49850  0.32900  0.37820  1.0000 0.1405056793
H   H377      1.0  0.65370  0.58660  0.10290  1.0000 0.1405056793
H   H378      1.0  0.34630  0.41340  0.10290  1.0000 0.1405056793
H   H379      1.0  0.58660  0.34630  0.89710  1.0000 0.1405056793
H   H380      1.0  0.41340  0.65370  0.89710  1.0000 0.1405056793
H   H381      1.0  0.65370  0.41340  0.60290  1.0000 0.1405056793
H   H382      1.0  0.34630  0.58660  0.60290  1.0000 0.1405056793
H   H383      1.0  0.58660  0.65370  0.39710  1.0000 0.1405056793
H   H384      1.0  0.41340  0.34630  0.39710  1.0000 0.1405056793
C   C1        1.0  0.73835  0.36752  0.15478  1.0000 -0.0186618425
C   C2        1.0  0.26165  0.63248  0.15478  1.0000 -0.0186618425
C   C3        1.0  0.36752  0.26165  0.84522  1.0000 -0.0186618425
C   C4        1.0  0.63248  0.73835  0.84522  1.0000 -0.0186618425
C   C5        1.0  0.73835  0.63248  0.65478  1.0000 -0.0186618425
C   C6        1.0  0.26165  0.36752  0.65478  1.0000 -0.0186618425
C   C7        1.0  0.36752  0.73835  0.34522  1.0000 -0.0186618425
C   C8        1.0  0.63248  0.26165  0.34522  1.0000 -0.0186618425
C   C9        1.0  0.72481  0.41777  0.14499  1.0000 -0.1608055487
C   C10       1.0  0.27519  0.58223  0.14499  1.0000 -0.1608055487
C   C11       1.0  0.41777  0.27519  0.85501  1.0000 -0.1608055487
C   C12       1.0  0.58223  0.72481  0.85501  1.0000 -0.1608055487
C   C13       1.0  0.72481  0.58223  0.64499  1.0000 -0.1608055487
C   C14       1.0  0.27519  0.41777  0.64499  1.0000 -0.1608055487
C   C15       1.0  0.41777  0.72481  0.35501  1.0000 -0.1608055487
C   C16       1.0  0.58223  0.27519  0.35501  1.0000 -0.1608055487
C   C17       1.0  0.74838  0.45780  0.16915  1.0000 0.0909431284
C   C18       1.0  0.25162  0.54220  0.16915  1.0000 0.0909431284
C   C19       1.0  0.45780  0.25162  0.83085  1.0000 0.0909431284
C   C20       1.0  0.54220  0.74838  0.83085  1.0000 0.0909431284
C   C21       1.0  0.74838  0.54220  0.66915  1.0000 0.0909431284
C   C22       1.0  0.25162  0.45780  0.66915  1.0000 0.0909431284
C   C23       1.0  0.45780  0.74838  0.33085  1.0000 0.0909431284
C   C24       1.0  0.54220  0.25162  0.33085  1.0000 0.0909431284
C   C25       1.0  0.78610  0.44488  0.20310  1.0000 -0.1695561567
C   C26       1.0  0.21390  0.55512  0.20310  1.0000 -0.1695561567
C   C27       1.0  0.44488  0.21390  0.79690  1.0000 -0.1695561567
C   C28       1.0  0.55512  0.78610  0.79690  1.0000 -0.1695561567
C   C29       1.0  0.78610  0.55512  0.70310  1.0000 -0.1695561567
C   C30       1.0  0.21390  0.44488  0.70310  1.0000 -0.1695561567
C   C31       1.0  0.44488  0.78610  0.29690  1.0000 -0.1695561567
C   C32       1.0  0.55512  0.21390  0.29690  1.0000 -0.1695561567
C   C33       1.0  0.79890  0.39429  0.21233  1.0000 -0.049316384
C   C34       1.0  0.20110  0.60571  0.21233  1.0000 -0.049316384
C   C35       1.0  0.39429  0.20110  0.78767  1.0000 -0.049316384
C   C36       1.0  0.60571  0.79890  0.78767  1.0000 -0.049316384
C   C37       1.0  0.79890  0.60571  0.71233  1.0000 -0.049316384
C   C38       1.0  0.20110  0.39429  0.71233  1.0000 -0.049316384
C   C39       1.0  0.39429  0.79890  0.28767  1.0000 -0.049316384
C   C40       1.0  0.60571  0.20110  0.28767  1.0000 -0.049316384
C   C41       1.0  0.69340  0.08205  0.21730  1.0000 -0.0411133072
C   C42       1.0  0.30660  0.91795  0.21730  1.0000 -0.0411133072
C   C43       1.0  0.08205  0.30660  0.78270  1.0000 -0.0411133072
C   C44       1.0  0.91795  0.69340  0.78270  1.0000 -0.0411133072
C   C45       1.0  0.69340  0.91795  0.71730  1.0000 -0.0411133072
C   C46       1.0  0.30660  0.08205  0.71730  1.0000 -0.0411133072
C   C47       1.0  0.08205  0.69340  0.28270  1.0000 -0.0411133072
C   C48       1.0  0.91795  0.30660  0.28270  1.0000 -0.0411133072
C   C49       1.0  0.69960  0.03100  0.20430  1.0000 -0.1901945256
C   C50       1.0  0.30040  0.96900  0.20430  1.0000 -0.1901945256
C   C51       1.0  0.03100  0.30040  0.79570  1.0000 -0.1901945256
C   C52       1.0  0.96900  0.69960  0.79570  1.0000 -0.1901945256
C   C53       1.0  0.69960  0.96900  0.70430  1.0000 -0.1901945256
C   C54       1.0  0.30040  0.03100  0.70430  1.0000 -0.1901945256
C   C55       1.0  0.03100  0.69960  0.29570  1.0000 -0.1901945256
C   C56       1.0  0.96900  0.30040  0.29570  1.0000 -0.1901945256
C   C57       1.0  0.74130  0.01480  0.17680  1.0000 0.0909431284
C   C58       1.0  0.25870  0.98520  0.17680  1.0000 0.0909431284
C   C59       1.0  0.01480  0.25870  0.82320  1.0000 0.0909431284
C   C60       1.0  0.98520  0.74130  0.82320  1.0000 0.0909431284
C   C61       1.0  0.74130  0.98520  0.67680  1.0000 0.0909431284
C   C62       1.0  0.25870  0.01480  0.67680  1.0000 0.0909431284
C   C63       1.0  0.01480  0.74130  0.32320  1.0000 0.0909431284
C   C64       1.0  0.98520  0.25870  0.32320  1.0000 0.0909431284
C   C65       1.0  0.77460  0.05275  0.16180  1.0000 -0.2073098954
C   C66       1.0  0.22540  0.94725  0.16180  1.0000 -0.2073098954
C   C67       1.0  0.05275  0.22540  0.83820  1.0000 -0.2073098954
C   C68       1.0  0.94725  0.77460  0.83820  1.0000 -0.2073098954
C   C69       1.0  0.77460  0.94725  0.66180  1.0000 -0.2073098954
C   C70       1.0  0.22540  0.05275  0.66180  1.0000 -0.2073098954
C   C71       1.0  0.05275  0.77460  0.33820  1.0000 -0.2073098954
C   C72       1.0  0.94725  0.22540  0.33820  1.0000 -0.2073098954
C   C73       1.0  0.76280  0.10436  0.16730  1.0000 -0.049316384
C   C74       1.0  0.23720  0.89564  0.16730  1.0000 -0.049316384
C   C75       1.0  0.10436  0.23720  0.83270  1.0000 -0.049316384
C   C76       1.0  0.89564  0.76280  0.83270  1.0000 -0.049316384
C   C77       1.0  0.76280  0.89564  0.66730  1.0000 -0.049316384
C   C78       1.0  0.23720  0.10436  0.66730  1.0000 -0.049316384
C   C79       1.0  0.10436  0.76280  0.33270  1.0000 -0.049316384
C   C80       1.0  0.89564  0.23720  0.33270  1.0000 -0.049316384
C   C81       1.0  0.88693  0.25480  0.16100  1.0000 -0.0411133072
C   C82       1.0  0.11307  0.74520  0.16100  1.0000 -0.0411133072
C   C83       1.0  0.25480  0.11307  0.83900  1.0000 -0.0411133072
C   C84       1.0  0.74520  0.88693  0.83900  1.0000 -0.0411133072
C   C85       1.0  0.88693  0.74520  0.66100  1.0000 -0.0411133072
C   C86       1.0  0.11307  0.25480  0.66100  1.0000 -0.0411133072
C   C87       1.0  0.25480  0.88693  0.33900  1.0000 -0.0411133072
C   C88       1.0  0.74520  0.11307  0.33900  1.0000 -0.0411133072
C   C89       1.0  0.93783  0.26560  0.15030  1.0000 -0.179403966
C   C90       1.0  0.06217  0.73440  0.15030  1.0000 -0.179403966
C   C91       1.0  0.26560  0.06217  0.84970  1.0000 -0.179403966
C   C92       1.0  0.73440  0.93783  0.84970  1.0000 -0.179403966
C   C93       1.0  0.93783  0.73440  0.65030  1.0000 -0.179403966
C   C94       1.0  0.06217  0.26560  0.65030  1.0000 -0.179403966
C   C95       1.0  0.26560  0.93783  0.34970  1.0000 -0.179403966
C   C96       1.0  0.73440  0.06217  0.34970  1.0000 -0.179403966
C   C97       1.0  0.97730  0.24110  0.17510  1.0000 0.0909431284
C   C98       1.0  0.02270  0.75890  0.17510  1.0000 0.0909431284
C   C99       1.0  0.24110  0.02270  0.82490  1.0000 0.0909431284
C   C100      1.0  0.75890  0.97730  0.82490  1.0000 0.0909431284
C   C101      1.0  0.97730  0.75890  0.67510  1.0000 0.0909431284
C   C102      1.0  0.02270  0.24110  0.67510  1.0000 0.0909431284
C   C103      1.0  0.24110  0.97730  0.32490  1.0000 0.0909431284
C   C104      1.0  0.75890  0.02270  0.32490  1.0000 0.0909431284
C   C105      1.0  0.96385  0.20000  0.20470  1.0000 -0.1901945256
C   C106      1.0  0.03615  0.80000  0.20470  1.0000 -0.1901945256
C   C107      1.0  0.20000  0.03615  0.79530  1.0000 -0.1901945256
C   C108      1.0  0.80000  0.96385  0.79530  1.0000 -0.1901945256
C   C109      1.0  0.96385  0.80000  0.70470  1.0000 -0.1901945256
C   C110      1.0  0.03615  0.20000  0.70470  1.0000 -0.1901945256
C   C111      1.0  0.20000  0.96385  0.29530  1.0000 -0.1901945256
C   C112      1.0  0.80000  0.03615  0.29530  1.0000 -0.1901945256
C   C113      1.0  0.91278  0.18630  0.21010  1.0000 -0.0695542653
C   C114      1.0  0.08722  0.81370  0.21010  1.0000 -0.0695542653
C   C115      1.0  0.18630  0.08722  0.78990  1.0000 -0.0695542653
C   C116      1.0  0.81370  0.91278  0.78990  1.0000 -0.0695542653
C   C117      1.0  0.91278  0.81370  0.71010  1.0000 -0.0695542653
C   C118      1.0  0.08722  0.18630  0.71010  1.0000 -0.0695542653
C   C119      1.0  0.18630  0.91278  0.28990  1.0000 -0.0695542653
C   C120      1.0  0.81370  0.08722  0.28990  1.0000 -0.0695542653
C   C121      1.0  0.60156  0.30040  0.20680  1.0000 -0.032000858
C   C122      1.0  0.39844  0.69960  0.20680  1.0000 -0.032000858
C   C123      1.0  0.30040  0.39844  0.79320  1.0000 -0.032000858
C   C124      1.0  0.69960  0.60156  0.79320  1.0000 -0.032000858
C   C125      1.0  0.60156  0.69960  0.70680  1.0000 -0.032000858
C   C126      1.0  0.39844  0.30040  0.70680  1.0000 -0.032000858
C   C127      1.0  0.30040  0.60156  0.29320  1.0000 -0.032000858
C   C128      1.0  0.69960  0.39844  0.29320  1.0000 -0.032000858
C   C129      1.0  0.54993  0.29440  0.19560  1.0000 -0.179403966
C   C130      1.0  0.45007  0.70560  0.19560  1.0000 -0.179403966
C   C131      1.0  0.29440  0.45007  0.80440  1.0000 -0.179403966
C   C132      1.0  0.70560  0.54993  0.80440  1.0000 -0.179403966
C   C133      1.0  0.54993  0.70560  0.69560  1.0000 -0.179403966
C   C134      1.0  0.45007  0.29440  0.69560  1.0000 -0.179403966
C   C135      1.0  0.29440  0.54993  0.30440  1.0000 -0.179403966
C   C136      1.0  0.70560  0.45007  0.30440  1.0000 -0.179403966
C   C137      1.0  0.53350  0.25660  0.16350  1.0000 0.107912936
C   C138      1.0  0.46650  0.74340  0.16350  1.0000 0.107912936
C   C139      1.0  0.25660  0.46650  0.83650  1.0000 0.107912936
C   C140      1.0  0.74340  0.53350  0.83650  1.0000 0.107912936
C   C141      1.0  0.53350  0.74340  0.66350  1.0000 0.107912936
C   C142      1.0  0.46650  0.25660  0.66350  1.0000 0.107912936
C   C143      1.0  0.25660  0.53350  0.33650  1.0000 0.107912936
C   C144      1.0  0.74340  0.46650  0.33650  1.0000 0.107912936
C   C145      1.0  0.56997  0.22260  0.14730  1.0000 -0.1901945256
C   C146      1.0  0.43003  0.77740  0.14730  1.0000 -0.1901945256
C   C147      1.0  0.22260  0.43003  0.85270  1.0000 -0.1901945256
C   C148      1.0  0.77740  0.56997  0.85270  1.0000 -0.1901945256
C   C149      1.0  0.56997  0.77740  0.64730  1.0000 -0.1901945256
C   C150      1.0  0.43003  0.22260  0.64730  1.0000 -0.1901945256
C   C151      1.0  0.22260  0.56997  0.35270  1.0000 -0.1901945256
C   C152      1.0  0.77740  0.43003  0.35270  1.0000 -0.1901945256
C   C153      1.0  0.62140  0.22980  0.15710  1.0000 -0.0186618425
C   C154      1.0  0.37860  0.77020  0.15710  1.0000 -0.0186618425
C   C155      1.0  0.22980  0.37860  0.84290  1.0000 -0.0186618425
C   C156      1.0  0.77020  0.62140  0.84290  1.0000 -0.0186618425
C   C157      1.0  0.62140  0.77020  0.65710  1.0000 -0.0186618425
C   C158      1.0  0.37860  0.22980  0.65710  1.0000 -0.0186618425
C   C159      1.0  0.22980  0.62140  0.34290  1.0000 -0.0186618425
C   C160      1.0  0.77020  0.37860  0.34290  1.0000 -0.0186618425
C   C161      1.0  0.88939  0.73220  0.99880  1.0000 -0.0411133072
C   C162      1.0  0.11061  0.26780  0.99880  1.0000 -0.0411133072
C   C163      1.0  0.73220  0.11061  0.00120  1.0000 -0.0411133072
C   C164      1.0  0.26780  0.88939  0.00120  1.0000 -0.0411133072
C   C165      1.0  0.88939  0.26780  0.49880  1.0000 -0.0411133072
C   C166      1.0  0.11061  0.73220  0.49880  1.0000 -0.0411133072
C   C167      1.0  0.73220  0.88939  0.50120  1.0000 -0.0411133072
C   C168      1.0  0.26780  0.11061  0.50120  1.0000 -0.0411133072
C   C169      1.0  0.94026  0.72920  0.98330  1.0000 -0.1963419516
C   C170      1.0  0.05974  0.27080  0.98330  1.0000 -0.1963419516
C   C171      1.0  0.72920  0.05974  0.01670  1.0000 -0.1963419516
C   C172      1.0  0.27080  0.94026  0.01670  1.0000 -0.1963419516
C   C173      1.0  0.94026  0.27080  0.48330  1.0000 -0.1963419516
C   C174      1.0  0.05974  0.72920  0.48330  1.0000 -0.1963419516
C   C175      1.0  0.72920  0.94026  0.51670  1.0000 -0.1963419516
C   C176      1.0  0.27080  0.05974  0.51670  1.0000 -0.1963419516
C   C177      1.0  0.97830  0.75690  0.00710  1.0000 0.107912936
C   C178      1.0  0.02170  0.24310  0.00710  1.0000 0.107912936
C   C179      1.0  0.75690  0.02170  0.99290  1.0000 0.107912936
C   C180      1.0  0.24310  0.97830  0.99290  1.0000 0.107912936
C   C181      1.0  0.97830  0.24310  0.50710  1.0000 0.107912936
C   C182      1.0  0.02170  0.75690  0.50710  1.0000 0.107912936
C   C183      1.0  0.75690  0.97830  0.49290  1.0000 0.107912936
C   C184      1.0  0.24310  0.02170  0.49290  1.0000 0.107912936
C   C185      1.0  0.96187  0.79450  0.03980  1.0000 -0.1901945256
C   C186      1.0  0.03813  0.20550  0.03980  1.0000 -0.1901945256
C   C187      1.0  0.79450  0.03813  0.96020  1.0000 -0.1901945256
C   C188      1.0  0.20550  0.96187  0.96020  1.0000 -0.1901945256
C   C189      1.0  0.96187  0.20550  0.53980  1.0000 -0.1901945256
C   C190      1.0  0.03813  0.79450  0.53980  1.0000 -0.1901945256
C   C191      1.0  0.79450  0.96187  0.46020  1.0000 -0.1901945256
C   C192      1.0  0.20550  0.03813  0.46020  1.0000 -0.1901945256
C   C193      1.0  0.91044  0.80010  0.05130  1.0000 -0.0799936152
C   C194      1.0  0.08956  0.19990  0.05130  1.0000 -0.0799936152
C   C195      1.0  0.80010  0.08956  0.94870  1.0000 -0.0799936152
C   C196      1.0  0.19990  0.91044  0.94870  1.0000 -0.0799936152
C   C197      1.0  0.91044  0.19990  0.55130  1.0000 -0.0799936152
C   C198      1.0  0.08956  0.80010  0.55130  1.0000 -0.0799936152
C   C199      1.0  0.80010  0.91044  0.44870  1.0000 -0.0799936152
C   C200      1.0  0.19990  0.08956  0.44870  1.0000 -0.0799936152
C   C201      1.0  0.80120  0.89079  0.13280  1.0000 -0.0695542653
C   C202      1.0  0.19880  0.10921  0.13280  1.0000 -0.0695542653
C   C203      1.0  0.89079  0.19880  0.86720  1.0000 -0.0695542653
C   C204      1.0  0.10921  0.80120  0.86720  1.0000 -0.0695542653
C   C205      1.0  0.80120  0.10921  0.63280  1.0000 -0.0695542653
C   C206      1.0  0.19880  0.89079  0.63280  1.0000 -0.0695542653
C   C207      1.0  0.89079  0.80120  0.36720  1.0000 -0.0695542653
C   C208      1.0  0.10921  0.19880  0.36720  1.0000 -0.0695542653
C   C209      1.0  0.79280  0.94290  0.13900  1.0000 -0.2073098954
C   C210      1.0  0.20720  0.05710  0.13900  1.0000 -0.2073098954
C   C211      1.0  0.94290  0.20720  0.86100  1.0000 -0.2073098954
C   C212      1.0  0.05710  0.79280  0.86100  1.0000 -0.2073098954
C   C213      1.0  0.79280  0.05710  0.63900  1.0000 -0.2073098954
C   C214      1.0  0.20720  0.94290  0.63900  1.0000 -0.2073098954
C   C215      1.0  0.94290  0.79280  0.36100  1.0000 -0.2073098954
C   C216      1.0  0.05710  0.20720  0.36100  1.0000 -0.2073098954
C   C217      1.0  0.75240  0.96100  0.16720  1.0000 0.0909431284
C   C218      1.0  0.24760  0.03900  0.16720  1.0000 0.0909431284
C   C219      1.0  0.96100  0.24760  0.83280  1.0000 0.0909431284
C   C220      1.0  0.03900  0.75240  0.83280  1.0000 0.0909431284
C   C221      1.0  0.75240  0.03900  0.66720  1.0000 0.0909431284
C   C222      1.0  0.24760  0.96100  0.66720  1.0000 0.0909431284
C   C223      1.0  0.96100  0.75240  0.33280  1.0000 0.0909431284
C   C224      1.0  0.03900  0.24760  0.33280  1.0000 0.0909431284
C   C225      1.0  0.71610  0.92443  0.17960  1.0000 -0.179403966
C   C226      1.0  0.28390  0.07557  0.17960  1.0000 -0.179403966
C   C227      1.0  0.92443  0.28390  0.82040  1.0000 -0.179403966
C   C228      1.0  0.07557  0.71610  0.82040  1.0000 -0.179403966
C   C229      1.0  0.71610  0.07557  0.67960  1.0000 -0.179403966
C   C230      1.0  0.28390  0.92443  0.67960  1.0000 -0.179403966
C   C231      1.0  0.92443  0.71610  0.32040  1.0000 -0.179403966
C   C232      1.0  0.07557  0.28390  0.32040  1.0000 -0.179403966
C   C233      1.0  0.72720  0.87250  0.17700  1.0000 -0.0128157284
C   C234      1.0  0.27280  0.12750  0.17700  1.0000 -0.0186618425
C   C235      1.0  0.87250  0.27280  0.82300  1.0000 -0.0186618425
C   C236      1.0  0.12750  0.72720  0.82300  1.0000 -0.0186618425
C   C237      1.0  0.72720  0.12750  0.67700  1.0000 -0.0186618425
C   C238      1.0  0.27280  0.87250  0.67700  1.0000 -0.0128157284
C   C239      1.0  0.87250  0.72720  0.32300  1.0000 -0.0128157284
C   C240      1.0  0.12750  0.27280  0.32300  1.0000 -0.0186618425
C   C241      1.0  0.62572  0.76630  0.98390  1.0000 -0.0128157284
C   C242      1.0  0.37428  0.23370  0.98390  1.0000 -0.0128157284
C   C243      1.0  0.76630  0.37428  0.01610  1.0000 -0.0128157284
C   C244      1.0  0.23370  0.62572  0.01610  1.0000 -0.0128157284
C   C245      1.0  0.62572  0.23370  0.48390  1.0000 -0.0128157284
C   C246      1.0  0.37428  0.76630  0.48390  1.0000 -0.0128157284
C   C247      1.0  0.76630  0.62572  0.51610  1.0000 -0.0128157284
C   C248      1.0  0.23370  0.37428  0.51610  1.0000 -0.0128157284
C   C249      1.0  0.57409  0.77770  0.97710  1.0000 -0.1695561567
C   C250      1.0  0.42591  0.22230  0.97710  1.0000 -0.1608055487
C   C251      1.0  0.77770  0.42591  0.02290  1.0000 -0.1608055487
C   C252      1.0  0.22230  0.57409  0.02290  1.0000 -0.1608055487
C   C253      1.0  0.57409  0.22230  0.47710  1.0000 -0.1608055487
C   C254      1.0  0.42591  0.77770  0.47710  1.0000 -0.1695561567
C   C255      1.0  0.77770  0.57409  0.52290  1.0000 -0.1695561567
C   C256      1.0  0.22230  0.42591  0.52290  1.0000 -0.1608055487
C   C257      1.0  0.53620  0.75020  0.00090  1.0000 0.0909431284
C   C258      1.0  0.46380  0.24980  0.00090  1.0000 0.0909431284
C   C259      1.0  0.75020  0.46380  0.99910  1.0000 0.0909431284
C   C260      1.0  0.24980  0.53620  0.99910  1.0000 0.0909431284
C   C261      1.0  0.53620  0.24980  0.50090  1.0000 0.0909431284
C   C262      1.0  0.46380  0.75020  0.50090  1.0000 0.0909431284
C   C263      1.0  0.75020  0.53620  0.49910  1.0000 0.0909431284
C   C264      1.0  0.24980  0.46380  0.49910  1.0000 0.0909431284
C   C265      1.0  0.55203  0.71000  0.03040  1.0000 -0.179403966
C   C266      1.0  0.44797  0.29000  0.03040  1.0000 -0.179403966
C   C267      1.0  0.71000  0.44797  0.96960  1.0000 -0.179403966
C   C268      1.0  0.29000  0.55203  0.96960  1.0000 -0.179403966
C   C269      1.0  0.55203  0.29000  0.53040  1.0000 -0.179403966
C   C270      1.0  0.44797  0.71000  0.53040  1.0000 -0.179403966
C   C271      1.0  0.71000  0.55203  0.46960  1.0000 -0.179403966
C   C272      1.0  0.29000  0.44797  0.46960  1.0000 -0.179403966
C   C273      1.0  0.60307  0.69500  0.03150  1.0000 -0.032000858
C   C274      1.0  0.39693  0.30500  0.03150  1.0000 -0.032000858
C   C275      1.0  0.69500  0.39693  0.96850  1.0000 -0.032000858
C   C276      1.0  0.30500  0.60307  0.96850  1.0000 -0.032000858
C   C277      1.0  0.60307  0.30500  0.53150  1.0000 -0.032000858
C   C278      1.0  0.39693  0.69500  0.53150  1.0000 -0.032000858
C   C279      1.0  0.69500  0.60307  0.46850  1.0000 -0.032000858
C   C280      1.0  0.30500  0.39693  0.46850  1.0000 -0.032000858
C   C281      1.0  0.74140  0.60770  0.99520  1.0000 -0.0186618425
C   C282      1.0  0.25860  0.39230  0.99520  1.0000 -0.0186618425
C   C283      1.0  0.60770  0.25860  0.00480  1.0000 -0.0186618425
C   C284      1.0  0.39230  0.74140  0.00480  1.0000 -0.0186618425
C   C285      1.0  0.74140  0.39230  0.49520  1.0000 -0.0186618425
C   C286      1.0  0.25860  0.60770  0.49520  1.0000 -0.0186618425
C   C287      1.0  0.60770  0.74140  0.50480  1.0000 -0.0186618425
C   C288      1.0  0.39230  0.25860  0.50480  1.0000 -0.0186618425
C   C289      1.0  0.73000  0.55635  0.98770  1.0000 -0.179403966
C   C290      1.0  0.27000  0.44365  0.98770  1.0000 -0.179403966
C   C291      1.0  0.55635  0.27000  0.01230  1.0000 -0.179403966
C   C292      1.0  0.44365  0.73000  0.01230  1.0000 -0.179403966
C   C293      1.0  0.73000  0.44365  0.48770  1.0000 -0.179403966
C   C294      1.0  0.27000  0.55635  0.48770  1.0000 -0.179403966
C   C295      1.0  0.55635  0.73000  0.51230  1.0000 -0.179403966
C   C296      1.0  0.44365  0.27000  0.51230  1.0000 -0.179403966
C   C297      1.0  0.48200  0.76190  0.99420  1.0000 0.0978340156
C   C298      1.0  0.51800  0.23810  0.99420  1.0000 0.0978340156
C   C299      1.0  0.76190  0.51800  0.00580  1.0000 0.0978340156
C   C300      1.0  0.23810  0.48200  0.00580  1.0000 0.0978340156
C   C301      1.0  0.48200  0.23810  0.49420  1.0000 0.0978340156
C   C302      1.0  0.51800  0.76190  0.49420  1.0000 0.0978340156
C   C303      1.0  0.76190  0.48200  0.50580  1.0000 0.0978340156
C   C304      1.0  0.23810  0.51800  0.50580  1.0000 0.0978340156
C   C305      1.0  0.46550  0.80290  0.96590  1.0000 -0.179403966
C   C306      1.0  0.53450  0.19710  0.96590  1.0000 -0.179403966
C   C307      1.0  0.80290  0.53450  0.03410  1.0000 -0.179403966
C   C308      1.0  0.19710  0.46550  0.03410  1.0000 -0.179403966
C   C309      1.0  0.46550  0.19710  0.46590  1.0000 -0.179403966
C   C310      1.0  0.53450  0.80290  0.46590  1.0000 -0.179403966
C   C311      1.0  0.80290  0.46550  0.53410  1.0000 -0.179403966
C   C312      1.0  0.19710  0.53450  0.53410  1.0000 -0.179403966
C   C313      1.0  0.80900  0.58560  0.04690  1.0000 -0.0411133072
C   C314      1.0  0.19100  0.41440  0.04690  1.0000 -0.0411133072
C   C315      1.0  0.58560  0.19100  0.95310  1.0000 -0.0411133072
C   C316      1.0  0.41440  0.80900  0.95310  1.0000 -0.0411133072
C   C317      1.0  0.80900  0.41440  0.54690  1.0000 -0.0411133072
C   C318      1.0  0.19100  0.58560  0.54690  1.0000 -0.0411133072
C   C319      1.0  0.58560  0.80900  0.45310  1.0000 -0.0411133072
C   C320      1.0  0.41440  0.19100  0.45310  1.0000 -0.0411133072
C   C321      1.0  0.39043  0.27670  0.15630  1.0000 -0.0411133072
C   C322      1.0  0.60957  0.72330  0.15630  1.0000 -0.0411133072
C   C323      1.0  0.27670  0.60957  0.84370  1.0000 -0.0411133072
C   C324      1.0  0.72330  0.39043  0.84370  1.0000 -0.0411133072
C   C325      1.0  0.39043  0.72330  0.65630  1.0000 -0.0411133072
C   C326      1.0  0.60957  0.27670  0.65630  1.0000 -0.0411133072
C   C327      1.0  0.27670  0.39043  0.34370  1.0000 -0.0411133072
C   C328      1.0  0.72330  0.60957  0.34370  1.0000 -0.0411133072
C   C329      1.0  0.44181  0.28460  0.16650  1.0000 -0.179403966
C   C330      1.0  0.55819  0.71540  0.16650  1.0000 -0.179403966
C   C331      1.0  0.28460  0.55819  0.83350  1.0000 -0.179403966
C   C332      1.0  0.71540  0.44181  0.83350  1.0000 -0.179403966
C   C333      1.0  0.44181  0.71540  0.66650  1.0000 -0.1901945256
C   C334      1.0  0.55819  0.28460  0.66650  1.0000 -0.179403966
C   C335      1.0  0.28460  0.44181  0.33350  1.0000 -0.179403966
C   C336      1.0  0.71540  0.55819  0.33350  1.0000 -0.179403966
C   C337      1.0  0.47900  0.24890  0.15510  1.0000 0.0978340156
C   C338      1.0  0.52100  0.75110  0.15510  1.0000 0.0978340156
C   C339      1.0  0.24890  0.52100  0.84490  1.0000 0.0978340156
C   C340      1.0  0.75110  0.47900  0.84490  1.0000 0.0978340156
C   C341      1.0  0.47900  0.75110  0.65510  1.0000 0.0978340156
C   C342      1.0  0.52100  0.24890  0.65510  1.0000 0.0978340156
C   C343      1.0  0.24890  0.47900  0.34490  1.0000 0.0978340156
C   C344      1.0  0.75110  0.52100  0.34490  1.0000 0.0978340156
C   C345      1.0  0.46260  0.20680  0.12900  1.0000 -0.1695561567
C   C346      1.0  0.53740  0.79320  0.12900  1.0000 -0.1695561567
C   C347      1.0  0.20680  0.53740  0.87100  1.0000 -0.1695561567
C   C348      1.0  0.79320  0.46260  0.87100  1.0000 -0.1695561567
C   C349      1.0  0.46260  0.79320  0.62900  1.0000 -0.1695561567
C   C350      1.0  0.53740  0.20680  0.62900  1.0000 -0.1695561567
C   C351      1.0  0.20680  0.46260  0.37100  1.0000 -0.1695561567
C   C352      1.0  0.79320  0.53740  0.37100  1.0000 -0.1695561567
C   C353      1.0  0.41090  0.19730  0.12140  1.0000 -0.0186618425
C   C354      1.0  0.58910  0.80270  0.12140  1.0000 -0.0186618425
C   C355      1.0  0.19730  0.58910  0.87860  1.0000 -0.0186618425
C   C356      1.0  0.80270  0.41090  0.87860  1.0000 -0.0186618425
C   C357      1.0  0.41090  0.80270  0.62140  1.0000 -0.0186618425
C   C358      1.0  0.58910  0.19730  0.62140  1.0000 -0.0186618425
C   C359      1.0  0.19730  0.41090  0.37860  1.0000 -0.0186618425
C   C360      1.0  0.80270  0.58910  0.37860  1.0000 -0.0186618425
C   C361      1.0  0.77610  0.87764  0.00680  1.0000 -0.049316384
C   C362      1.0  0.22390  0.12236  0.00680  1.0000 -0.0411133072
C   C363      1.0  0.87764  0.22390  0.99320  1.0000 -0.049316384
C   C364      1.0  0.12236  0.77610  0.99320  1.0000 -0.049316384
C   C365      1.0  0.77610  0.12236  0.50680  1.0000 -0.0411133072
C   C366      1.0  0.22390  0.87764  0.50680  1.0000 -0.049316384
C   C367      1.0  0.87764  0.77610  0.49320  1.0000 -0.049316384
C   C368      1.0  0.12236  0.22390  0.49320  1.0000 -0.0411133072
C   C369      1.0  0.78450  0.92878  0.99530  1.0000 -0.1963419516
C   C370      1.0  0.21550  0.07122  0.99530  1.0000 -0.1963419516
C   C371      1.0  0.92878  0.21550  0.00470  1.0000 -0.1963419516
C   C372      1.0  0.07122  0.78450  0.00470  1.0000 -0.1963419516
C   C373      1.0  0.78450  0.07122  0.49530  1.0000 -0.1963419516
C   C374      1.0  0.21550  0.92878  0.49530  1.0000 -0.1963419516
C   C375      1.0  0.92878  0.78450  0.50470  1.0000 -0.1963419516
C   C376      1.0  0.07122  0.21550  0.50470  1.0000 -0.1963419516
C   C377      1.0  0.03320  0.75010  0.99110  1.0000 0.0978340156
C   C378      1.0  0.96680  0.24990  0.99110  1.0000 0.0978340156
C   C379      1.0  0.75010  0.96680  0.00890  1.0000 0.0978340156
C   C380      1.0  0.24990  0.03320  0.00890  1.0000 0.0978340156
C   C381      1.0  0.03320  0.24990  0.49110  1.0000 0.0978340156
C   C382      1.0  0.96680  0.75010  0.49110  1.0000 0.0978340156
C   C383      1.0  0.75010  0.03320  0.50890  1.0000 0.0978340156
C   C384      1.0  0.24990  0.96680  0.50890  1.0000 0.0978340156
C   C385      1.0  0.04950  0.70380  0.97200  1.0000 -0.1695561567
C   C386      1.0  0.95050  0.29620  0.97200  1.0000 -0.1695561567
C   C387      1.0  0.70380  0.95050  0.02800  1.0000 -0.1695561567
C   C388      1.0  0.29620  0.04950  0.02800  1.0000 -0.1695561567
C   C389      1.0  0.04950  0.29620  0.47200  1.0000 -0.1695561567
C   C390      1.0  0.95050  0.70380  0.47200  1.0000 -0.1695561567
C   C391      1.0  0.70380  0.04950  0.52800  1.0000 -0.1695561567
C   C392      1.0  0.29620  0.95050  0.52800  1.0000 -0.1695561567
C   C393      1.0  0.69430  0.89890  0.03650  1.0000 -0.032000858
C   C394      1.0  0.30570  0.10110  0.03650  1.0000 -0.032000858
C   C395      1.0  0.89890  0.30570  0.96350  1.0000 -0.032000858
C   C396      1.0  0.10110  0.69430  0.96350  1.0000 -0.032000858
C   C397      1.0  0.69430  0.10110  0.53650  1.0000 -0.032000858
C   C398      1.0  0.30570  0.89890  0.53650  1.0000 -0.032000858
C   C399      1.0  0.89890  0.69430  0.46350  1.0000 -0.032000858
C   C400      1.0  0.10110  0.30570  0.46350  1.0000 -0.032000858
C   C401      1.0  0.12208  0.24480  0.18170  1.0000 -0.0186618425
C   C402      1.0  0.87792  0.75520  0.18170  1.0000 -0.0186618425
C   C403      1.0  0.24480  0.87792  0.81830  1.0000 -0.0186618425
C   C404      1.0  0.75520  0.12208  0.81830  1.0000 -0.0186618425
C   C405      1.0  0.12208  0.75520  0.68170  1.0000 -0.0186618425
C   C406      1.0  0.87792  0.24480  0.68170  1.0000 -0.0186618425
C   C407      1.0  0.24480  0.12208  0.31830  1.0000 -0.0186618425
C   C408      1.0  0.75520  0.87792  0.31830  1.0000 -0.0186618425
C   C409      1.0  0.07148  0.23190  0.19080  1.0000 -0.1963419516
C   C410      1.0  0.92852  0.76810  0.19080  1.0000 -0.1963419516
C   C411      1.0  0.23190  0.92852  0.80920  1.0000 -0.1963419516
C   C412      1.0  0.76810  0.07148  0.80920  1.0000 -0.1963419516
C   C413      1.0  0.07148  0.76810  0.69080  1.0000 -0.1963419516
C   C414      1.0  0.92852  0.23190  0.69080  1.0000 -0.1963419516
C   C415      1.0  0.23190  0.07148  0.30920  1.0000 -0.1963419516
C   C416      1.0  0.76810  0.92852  0.30920  1.0000 -0.1963419516
C   C417      1.0  0.03180  0.25640  0.16640  1.0000 0.0978340156
C   C418      1.0  0.96820  0.74360  0.16640  1.0000 0.0978340156
C   C419      1.0  0.25640  0.96820  0.83360  1.0000 0.0978340156
C   C420      1.0  0.74360  0.03180  0.83360  1.0000 0.0978340156
C   C421      1.0  0.03180  0.74360  0.66640  1.0000 0.0978340156
C   C422      1.0  0.96820  0.25640  0.66640  1.0000 0.0978340156
C   C423      1.0  0.25640  0.03180  0.33360  1.0000 0.0978340156
C   C424      1.0  0.74360  0.96820  0.33360  1.0000 0.0978340156
C   C425      1.0  0.04527  0.29500  0.13370  1.0000 -0.1695561567
C   C426      1.0  0.95473  0.70500  0.13370  1.0000 -0.1695561567
C   C427      1.0  0.29500  0.95473  0.86630  1.0000 -0.1695561567
C   C428      1.0  0.70500  0.04527  0.86630  1.0000 -0.1695561567
C   C429      1.0  0.04527  0.70500  0.63370  1.0000 -0.1695561567
C   C430      1.0  0.95473  0.29500  0.63370  1.0000 -0.1695561567
C   C431      1.0  0.29500  0.04527  0.36630  1.0000 -0.1695561567
C   C432      1.0  0.70500  0.95473  0.36630  1.0000 -0.1695561567
C   C433      1.0  0.09630  0.30500  0.12290  1.0000 -0.0411133072
C   C434      1.0  0.90370  0.69500  0.12290  1.0000 -0.0411133072
C   C435      1.0  0.30500  0.90370  0.87710  1.0000 -0.0411133072
C   C436      1.0  0.69500  0.09630  0.87710  1.0000 -0.0411133072
C   C437      1.0  0.09630  0.69500  0.62290  1.0000 -0.0411133072
C   C438      1.0  0.90370  0.30500  0.62290  1.0000 -0.0411133072
C   C439      1.0  0.30500  0.09630  0.37710  1.0000 -0.0411133072
C   C440      1.0  0.69500  0.90370  0.37710  1.0000 -0.0411133072
C   C441      1.0  0.75930  0.60310  0.15930  1.0000 -0.049316384
C   C442      1.0  0.24070  0.39690  0.15930  1.0000 -0.049316384
C   C443      1.0  0.60310  0.24070  0.84070  1.0000 -0.049316384
C   C444      1.0  0.39690  0.75930  0.84070  1.0000 -0.049316384
C   C445      1.0  0.75930  0.39690  0.65930  1.0000 -0.049316384
C   C446      1.0  0.24070  0.60310  0.65930  1.0000 -0.049316384
C   C447      1.0  0.60310  0.75930  0.34070  1.0000 -0.049316384
C   C448      1.0  0.39690  0.24070  0.34070  1.0000 -0.049316384
C   C449      1.0  0.76570  0.55400  0.17760  1.0000 -0.1695561567
C   C450      1.0  0.23430  0.44600  0.17760  1.0000 -0.1695561567
C   C451      1.0  0.55400  0.23430  0.82240  1.0000 -0.1695561567
C   C452      1.0  0.44600  0.76570  0.82240  1.0000 -0.1695561567
C   C453      1.0  0.76570  0.44600  0.67760  1.0000 -0.1695561567
C   C454      1.0  0.23430  0.55400  0.67760  1.0000 -0.1695561567
C   C455      1.0  0.55400  0.76570  0.32240  1.0000 -0.1695561567
C   C456      1.0  0.44600  0.23430  0.32240  1.0000 -0.1695561567
C   C457      1.0  0.73700  0.51370  0.15960  1.0000 0.0978340156
C   C458      1.0  0.26300  0.48630  0.15960  1.0000 0.0978340156
C   C459      1.0  0.51370  0.26300  0.84040  1.0000 0.0978340156
C   C460      1.0  0.48630  0.73700  0.84040  1.0000 0.0978340156
C   C461      1.0  0.73700  0.48630  0.65960  1.0000 0.0978340156
C   C462      1.0  0.26300  0.51370  0.65960  1.0000 0.0978340156
C   C463      1.0  0.51370  0.73700  0.34040  1.0000 0.0978340156
C   C464      1.0  0.48630  0.26300  0.34040  1.0000 0.0978340156
C   C465      1.0  0.69420  0.52743  0.13240  1.0000 -0.1695561567
C   C466      1.0  0.30580  0.47257  0.13240  1.0000 -0.1695561567
C   C467      1.0  0.52743  0.30580  0.86760  1.0000 -0.1695561567
C   C468      1.0  0.47257  0.69420  0.86760  1.0000 -0.1695561567
C   C469      1.0  0.69420  0.47257  0.63240  1.0000 -0.1695561567
C   C470      1.0  0.30580  0.52743  0.63240  1.0000 -0.1695561567
C   C471      1.0  0.52743  0.69420  0.36760  1.0000 -0.1695561567
C   C472      1.0  0.47257  0.30580  0.36760  1.0000 -0.1695561567
C   C473      1.0  0.68440  0.57800  0.12020  1.0000 -0.0622696236
C   C474      1.0  0.31560  0.42200  0.12020  1.0000 -0.0622696236
C   C475      1.0  0.57800  0.31560  0.87980  1.0000 -0.0622696236
C   C476      1.0  0.42200  0.68440  0.87980  1.0000 -0.0622696236
C   C477      1.0  0.68440  0.42200  0.62020  1.0000 -0.0622696236
C   C478      1.0  0.31560  0.57800  0.62020  1.0000 -0.0622696236
C   C479      1.0  0.57800  0.68440  0.37980  1.0000 -0.0622696236
C   C480      1.0  0.42200  0.31560  0.37980  1.0000 -0.0622696236
C   C481      1.0  0.43140  0.57790  0.45990  1.0000 0.4409608488
C   C482      1.0  0.56860  0.42210  0.45990  1.0000 0.445234318
C   C483      1.0  0.57790  0.56860  0.54010  1.0000 0.445234318
C   C484      1.0  0.42210  0.43140  0.54010  1.0000 0.4409608488
C   C485      1.0  0.43140  0.42210  0.95990  1.0000 0.4409608488
C   C486      1.0  0.56860  0.57790  0.95990  1.0000 0.4409608488
C   C487      1.0  0.57790  0.43140  0.04010  1.0000 0.445234318
C   C488      1.0  0.42210  0.56860  0.04010  1.0000 0.445234318
C   C489      1.0  0.07970  0.57540  0.14200  1.0000 0.4728901878
C   C490      1.0  0.92030  0.42460  0.14200  1.0000 0.4728901878
C   C491      1.0  0.57540  0.92030  0.85800  1.0000 0.4728901878
C   C492      1.0  0.42460  0.07970  0.85800  1.0000 0.4728901878
C   C493      1.0  0.07970  0.42460  0.64200  1.0000 0.4728901878
C   C494      1.0  0.92030  0.57540  0.64200  1.0000 0.4728901878
C   C495      1.0  0.57540  0.07970  0.35800  1.0000 0.4728901878
C   C496      1.0  0.42460  0.92030  0.35800  1.0000 0.4728901878
C   C497      1.0  0.07640  0.58660  0.71440  1.0000 0.4409608488
C   C498      1.0  0.92360  0.41340  0.71440  1.0000 0.4409608488
C   C499      1.0  0.58660  0.92360  0.28560  1.0000 0.4409608488
C   C500      1.0  0.41340  0.07640  0.28560  1.0000 0.4409608488
C   C501      1.0  0.07640  0.41340  0.21440  1.0000 0.4409608488
C   C502      1.0  0.92360  0.58660  0.21440  1.0000 0.4409608488
C   C503      1.0  0.58660  0.07640  0.78560  1.0000 0.4409608488
C   C504      1.0  0.41340  0.92360  0.78560  1.0000 0.4409608488
S   S1        1.0  0.38977  0.58704  0.40992  1.0000 0.9894169092
S   S2        1.0  0.61023  0.41296  0.40992  1.0000 0.9894169092
S   S3        1.0  0.58704  0.61023  0.59008  1.0000 0.9894169092
S   S4        1.0  0.41296  0.38977  0.59008  1.0000 0.9894169092
S   S5        1.0  0.38977  0.41296  0.90992  1.0000 0.9894169092
S   S6        1.0  0.61023  0.58704  0.90992  1.0000 0.9894169092
S   S7        1.0  0.58704  0.38977  0.09008  1.0000 0.9894169092
S   S8        1.0  0.41296  0.61023  0.09008  1.0000 0.9894169092
S   S9        1.0  0.09150  0.60653  0.08414  1.0000 0.9833283022
S   S10       1.0  0.90850  0.39347  0.08414  1.0000 0.9833283022
S   S11       1.0  0.60653  0.90850  0.91586  1.0000 0.9833283022
S   S12       1.0  0.39347  0.09150  0.91586  1.0000 0.9833283022
S   S13       1.0  0.09150  0.39347  0.58414  1.0000 0.9833283022
S   S14       1.0  0.90850  0.60653  0.58414  1.0000 0.9833283022
S   S15       1.0  0.60653  0.09150  0.41586  1.0000 0.9833283022
S   S16       1.0  0.39347  0.90850  0.41586  1.0000 0.9833283022
S   S17       1.0  0.11818  0.58398  0.76284  1.0000 0.9894169092
S   S18       1.0  0.88182  0.41602  0.76284  1.0000 0.9894169092
S   S19       1.0  0.58398  0.88182  0.23716  1.0000 0.9894169092
S   S20       1.0  0.41602  0.11818  0.23716  1.0000 0.9894169092
S   S21       1.0  0.11818  0.41602  0.26284  1.0000 0.9894169092
S   S22       1.0  0.88182  0.58398  0.26284  1.0000 0.9894169092
S   S23       1.0  0.58398  0.11818  0.73716  1.0000 0.9894169092
S   S24       1.0  0.41602  0.88182  0.73716  1.0000 0.9894169092
N   N1        1.0  0.77480  0.35669  0.18792  1.0000 0.3298140324
N   N2        1.0  0.22520  0.64331  0.18792  1.0000 0.3298140324
N   N3        1.0  0.35669  0.22520  0.81208  1.0000 0.3298140324
N   N4        1.0  0.64331  0.77480  0.81208  1.0000 0.3298140324
N   N5        1.0  0.77480  0.64331  0.68792  1.0000 0.3298140324
N   N6        1.0  0.22520  0.35669  0.68792  1.0000 0.3298140324
N   N7        1.0  0.35669  0.77480  0.31208  1.0000 0.3298140324
N   N8        1.0  0.64331  0.22520  0.31208  1.0000 0.3298140324
N   N9        1.0  0.72520  0.11740  0.19890  1.0000 0.3202124243
N   N10       1.0  0.27480  0.88260  0.19890  1.0000 0.3117676422
N   N11       1.0  0.11740  0.27480  0.80110  1.0000 0.3117676422
N   N12       1.0  0.88260  0.72520  0.80110  1.0000 0.3202124243
N   N13       1.0  0.72520  0.88260  0.69890  1.0000 0.3117676422
N   N14       1.0  0.27480  0.11740  0.69890  1.0000 0.3202124243
N   N15       1.0  0.11740  0.72520  0.30110  1.0000 0.3117676422
N   N16       1.0  0.88260  0.27480  0.30110  1.0000 0.3202124243
N   N17       1.0  0.87551  0.21417  0.18930  1.0000 0.3298140324
N   N18       1.0  0.12449  0.78583  0.18930  1.0000 0.3298140324
N   N19       1.0  0.21417  0.12449  0.81070  1.0000 0.3298140324
N   N20       1.0  0.78583  0.87551  0.81070  1.0000 0.3298140324
N   N21       1.0  0.87551  0.78583  0.68930  1.0000 0.3298140324
N   N22       1.0  0.12449  0.21417  0.68930  1.0000 0.3298140324
N   N23       1.0  0.21417  0.87551  0.31070  1.0000 0.3298140324
N   N24       1.0  0.78583  0.12449  0.31070  1.0000 0.3298140324
N   N25       1.0  0.63540  0.26680  0.18850  1.0000 0.3117676422
N   N26       1.0  0.36460  0.73320  0.18850  1.0000 0.3117676422
N   N27       1.0  0.26680  0.36460  0.81150  1.0000 0.3117676422
N   N28       1.0  0.73320  0.63540  0.81150  1.0000 0.3117676422
N   N29       1.0  0.63540  0.73320  0.68850  1.0000 0.3117676422
N   N30       1.0  0.36460  0.26680  0.68850  1.0000 0.3117676422
N   N31       1.0  0.26680  0.63540  0.31150  1.0000 0.3117676422
N   N32       1.0  0.73320  0.36460  0.31150  1.0000 0.3117676422
N   N33       1.0  0.87538  0.77150  0.02760  1.0000 0.3202124243
N   N34       1.0  0.12462  0.22850  0.02760  1.0000 0.3202124243
N   N35       1.0  0.77150  0.12462  0.97240  1.0000 0.3202124243
N   N36       1.0  0.22850  0.87538  0.97240  1.0000 0.3202124243
N   N37       1.0  0.87538  0.22850  0.52760  1.0000 0.3202124243
N   N38       1.0  0.12462  0.77150  0.52760  1.0000 0.3202124243
N   N39       1.0  0.77150  0.87538  0.47240  1.0000 0.3202124243
N   N40       1.0  0.22850  0.12462  0.47240  1.0000 0.3202124243
N   N41       1.0  0.76718  0.85670  0.14980  1.0000 0.3117676422
N   N42       1.0  0.23282  0.14330  0.14980  1.0000 0.3202124243
N   N43       1.0  0.85670  0.23282  0.85020  1.0000 0.3117676422
N   N44       1.0  0.14330  0.76718  0.85020  1.0000 0.3117676422
N   N45       1.0  0.76718  0.14330  0.64980  1.0000 0.3202124243
N   N46       1.0  0.23282  0.85670  0.64980  1.0000 0.3117676422
N   N47       1.0  0.85670  0.76718  0.35020  1.0000 0.3117676422
N   N48       1.0  0.14330  0.23282  0.35020  1.0000 0.3117676422
N   N49       1.0  0.63860  0.72487  0.01040  1.0000 0.3202124243
N   N50       1.0  0.36140  0.27513  0.01040  1.0000 0.3202124243
N   N51       1.0  0.72487  0.36140  0.98960  1.0000 0.3202124243
N   N52       1.0  0.27513  0.63860  0.98960  1.0000 0.3202124243
N   N53       1.0  0.63860  0.27513  0.51040  1.0000 0.3202124243
N   N54       1.0  0.36140  0.72487  0.51040  1.0000 0.3202124243
N   N55       1.0  0.72487  0.63860  0.48960  1.0000 0.3202124243
N   N56       1.0  0.27513  0.36140  0.48960  1.0000 0.3202124243
N   N57       1.0  0.78080  0.62130  0.02410  1.0000 0.3117676422
N   N58       1.0  0.21920  0.37870  0.02410  1.0000 0.3117676422
N   N59       1.0  0.62130  0.21920  0.97590  1.0000 0.3117676422
N   N60       1.0  0.37870  0.78080  0.97590  1.0000 0.3117676422
N   N61       1.0  0.78080  0.37870  0.52410  1.0000 0.3117676422
N   N62       1.0  0.21920  0.62130  0.52410  1.0000 0.3117676422
N   N63       1.0  0.62130  0.78080  0.47590  1.0000 0.3117676422
N   N64       1.0  0.37870  0.21920  0.47590  1.0000 0.3117676422
N   N65       1.0  0.37730  0.23504  0.13050  1.0000 0.3202124243
N   N66       1.0  0.62270  0.76496  0.13050  1.0000 0.3202124243
N   N67       1.0  0.23504  0.62270  0.86950  1.0000 0.3202124243
N   N68       1.0  0.76496  0.37730  0.86950  1.0000 0.3202124243
N   N69       1.0  0.37730  0.76496  0.63050  1.0000 0.3202124243
N   N70       1.0  0.62270  0.23504  0.63050  1.0000 0.3202124243
N   N71       1.0  0.23504  0.37730  0.36950  1.0000 0.3202124243
N   N72       1.0  0.76496  0.62270  0.36950  1.0000 0.3202124243
N   N73       1.0  0.73101  0.86440  0.02710  1.0000 0.3202124243
N   N74       1.0  0.26899  0.13560  0.02710  1.0000 0.3202124243
N   N75       1.0  0.86440  0.26899  0.97290  1.0000 0.3202124243
N   N76       1.0  0.13560  0.73101  0.97290  1.0000 0.3202124243
N   N77       1.0  0.73101  0.13560  0.52710  1.0000 0.3202124243
N   N78       1.0  0.26899  0.86440  0.52710  1.0000 0.3202124243
N   N79       1.0  0.86440  0.73101  0.47290  1.0000 0.3202124243
N   N80       1.0  0.13560  0.26899  0.47290  1.0000 0.3202124243
N   N81       1.0  0.13330  0.28160  0.14870  1.0000 0.3117676422
N   N82       1.0  0.86670  0.71840  0.14870  1.0000 0.3117676422
N   N83       1.0  0.28160  0.86670  0.85130  1.0000 0.3117676422
N   N84       1.0  0.71840  0.13330  0.85130  1.0000 0.3117676422
N   N85       1.0  0.13330  0.71840  0.64870  1.0000 0.3117676422
N   N86       1.0  0.86670  0.28160  0.64870  1.0000 0.3117676422
N   N87       1.0  0.28160  0.13330  0.35130  1.0000 0.3117676422
N   N88       1.0  0.71840  0.86670  0.35130  1.0000 0.3117676422
N   N89       1.0  0.71761  0.61480  0.13260  1.0000 0.3373481229
N   N90       1.0  0.28239  0.38520  0.13260  1.0000 0.3373481229
N   N91       1.0  0.61480  0.28239  0.86740  1.0000 0.3373481229
N   N92       1.0  0.38520  0.71761  0.86740  1.0000 0.3373481229
N   N93       1.0  0.71761  0.38520  0.63260  1.0000 0.3373481229
N   N94       1.0  0.28239  0.61480  0.63260  1.0000 0.3373481229
N   N95       1.0  0.61480  0.71761  0.36740  1.0000 0.3373481229
N   N96       1.0  0.38520  0.28239  0.36740  1.0000 0.3373481229
O   O1        1.0  0.78940  0.30780  0.19040  1.0000 -0.5515554336
O   O2        1.0  0.21060  0.69220  0.19040  1.0000 -0.5515554336
O   O3        1.0  0.30780  0.21060  0.80960  1.0000 -0.5515554336
O   O4        1.0  0.69220  0.78940  0.80960  1.0000 -0.5515554336
O   O5        1.0  0.78940  0.69220  0.69040  1.0000 -0.5515554336
O   O6        1.0  0.21060  0.30780  0.69040  1.0000 -0.5515554336
O   O7        1.0  0.30780  0.78940  0.30960  1.0000 -0.5515554336
O   O8        1.0  0.69220  0.21060  0.30960  1.0000 -0.5515554336
O   O9        1.0  0.71800  0.16870  0.20270  1.0000 -0.5798159893
O   O10       1.0  0.28200  0.83130  0.20270  1.0000 -0.5798159893
O   O11       1.0  0.16870  0.28200  0.79730  1.0000 -0.5798159893
O   O12       1.0  0.83130  0.71800  0.79730  1.0000 -0.5798159893
O   O13       1.0  0.71800  0.83130  0.70270  1.0000 -0.5798159893
O   O14       1.0  0.28200  0.16870  0.70270  1.0000 -0.5798159893
O   O15       1.0  0.16870  0.71800  0.29730  1.0000 -0.5798159893
O   O16       1.0  0.83130  0.28200  0.29730  1.0000 -0.5798159893
O   O17       1.0  0.82800  0.20340  0.19880  1.0000 -0.5266218588
O   O18       1.0  0.17200  0.79660  0.19880  1.0000 -0.5266218588
O   O19       1.0  0.20340  0.17200  0.80120  1.0000 -0.5266218588
O   O20       1.0  0.79660  0.82800  0.80120  1.0000 -0.5266218588
O   O21       1.0  0.82800  0.79660  0.69880  1.0000 -0.5172063647
O   O22       1.0  0.17200  0.20340  0.69880  1.0000 -0.5266218588
O   O23       1.0  0.20340  0.82800  0.30120  1.0000 -0.5266218588
O   O24       1.0  0.79660  0.17200  0.30120  1.0000 -0.5266218588
O   O25       1.0  0.68540  0.27620  0.20350  1.0000 -0.6157499955
O   O26       1.0  0.31460  0.72380  0.20350  1.0000 -0.6157499955
O   O27       1.0  0.27620  0.31460  0.79650  1.0000 -0.6157499955
O   O28       1.0  0.72380  0.68540  0.79650  1.0000 -0.6157499955
O   O29       1.0  0.68540  0.72380  0.70350  1.0000 -0.6157499955
O   O30       1.0  0.31460  0.27620  0.70350  1.0000 -0.6157499955
O   O31       1.0  0.27620  0.68540  0.29650  1.0000 -0.6157499955
O   O32       1.0  0.72380  0.31460  0.29650  1.0000 -0.6157499955
O   O33       1.0  0.82780  0.77920  0.04550  1.0000 -0.5678053106
O   O34       1.0  0.17220  0.22080  0.04550  1.0000 -0.5678053106
O   O35       1.0  0.77920  0.17220  0.95450  1.0000 -0.5678053106
O   O36       1.0  0.22080  0.82780  0.95450  1.0000 -0.5678053106
O   O37       1.0  0.82780  0.22080  0.54550  1.0000 -0.5678053106
O   O38       1.0  0.17220  0.77920  0.54550  1.0000 -0.5678053106
O   O39       1.0  0.77920  0.82780  0.45450  1.0000 -0.5678053106
O   O40       1.0  0.22080  0.17220  0.45450  1.0000 -0.5678053106
O   O41       1.0  0.77940  0.80650  0.14060  1.0000 -0.5992076352
O   O42       1.0  0.22060  0.19350  0.14060  1.0000 -0.5992076352
O   O43       1.0  0.80650  0.22060  0.85940  1.0000 -0.5992076352
O   O44       1.0  0.19350  0.77940  0.85940  1.0000 -0.5992076352
O   O45       1.0  0.77940  0.19350  0.64060  1.0000 -0.5992076352
O   O46       1.0  0.22060  0.80650  0.64060  1.0000 -0.5992076352
O   O47       1.0  0.80650  0.77940  0.35940  1.0000 -0.5992076352
O   O48       1.0  0.19350  0.22060  0.35940  1.0000 -0.5992076352
O   O49       1.0  0.68880  0.71270  0.01890  1.0000 -0.5895494998
O   O50       1.0  0.31120  0.28730  0.01890  1.0000 -0.5895494998
O   O51       1.0  0.71270  0.31120  0.98110  1.0000 -0.5895494998
O   O52       1.0  0.28730  0.68880  0.98110  1.0000 -0.5895494998
O   O53       1.0  0.68880  0.28730  0.51890  1.0000 -0.5895494998
O   O54       1.0  0.31120  0.71270  0.51890  1.0000 -0.5895494998
O   O55       1.0  0.71270  0.68880  0.48110  1.0000 -0.5895494998
O   O56       1.0  0.28730  0.31120  0.48110  1.0000 -0.5895494998
O   O57       1.0  0.79230  0.67190  0.02760  1.0000 -0.5895494998
O   O58       1.0  0.20770  0.32810  0.02760  1.0000 -0.5895494998
O   O59       1.0  0.67190  0.20770  0.97240  1.0000 -0.5895494998
O   O60       1.0  0.32810  0.79230  0.97240  1.0000 -0.5895494998
O   O61       1.0  0.79230  0.32810  0.52760  1.0000 -0.5895494998
O   O62       1.0  0.20770  0.67190  0.52760  1.0000 -0.5895494998
O   O63       1.0  0.67190  0.79230  0.47240  1.0000 -0.5895494998
O   O64       1.0  0.32810  0.20770  0.47240  1.0000 -0.5895494998
O   O65       1.0  0.32600  0.23010  0.12830  1.0000 -0.5569879116
O   O66       1.0  0.67400  0.76990  0.12830  1.0000 -0.5569879116
O   O67       1.0  0.23010  0.67400  0.87170  1.0000 -0.5569879116
O   O68       1.0  0.76990  0.32600  0.87170  1.0000 -0.5569879116
O   O69       1.0  0.32600  0.76990  0.62830  1.0000 -0.5569879116
O   O70       1.0  0.67400  0.23010  0.62830  1.0000 -0.5569879116
O   O71       1.0  0.23010  0.32600  0.37170  1.0000 -0.5569879116
O   O72       1.0  0.76990  0.67400  0.37170  1.0000 -0.5569879116
O   O73       1.0  0.72090  0.81440  0.03560  1.0000 -0.5798159893
O   O74       1.0  0.27910  0.18560  0.03560  1.0000 -0.5798159893
O   O75       1.0  0.81440  0.27910  0.96440  1.0000 -0.5798159893
O   O76       1.0  0.18560  0.72090  0.96440  1.0000 -0.5798159893
O   O77       1.0  0.72090  0.18560  0.53560  1.0000 -0.5798159893
O   O78       1.0  0.27910  0.81440  0.53560  1.0000 -0.5798159893
O   O79       1.0  0.81440  0.72090  0.46440  1.0000 -0.5798159893
O   O80       1.0  0.18560  0.27910  0.46440  1.0000 -0.5798159893
O   O81       1.0  0.18400  0.29680  0.14110  1.0000 -0.6144458855
O   O82       1.0  0.81600  0.70320  0.14110  1.0000 -0.6144458855
O   O83       1.0  0.29680  0.81600  0.85890  1.0000 -0.6157499955
O   O84       1.0  0.70320  0.18400  0.85890  1.0000 -0.6144458855
O   O85       1.0  0.18400  0.70320  0.64110  1.0000 -0.6144458855
O   O86       1.0  0.81600  0.29680  0.64110  1.0000 -0.6144458855
O   O87       1.0  0.29680  0.18400  0.35890  1.0000 -0.6157499955
O   O88       1.0  0.70320  0.81600  0.35890  1.0000 -0.6144458855
O   O89       1.0  0.70790  0.66120  0.11830  1.0000 -0.5172063647
O   O90       1.0  0.29210  0.33880  0.11830  1.0000 -0.5172063647
O   O91       1.0  0.66120  0.29210  0.88170  1.0000 -0.5172063647
O   O92       1.0  0.33880  0.70790  0.88170  1.0000 -0.5172063647
O   O93       1.0  0.70790  0.33880  0.61830  1.0000 -0.5172063647
O   O94       1.0  0.29210  0.66120  0.61830  1.0000 -0.5172063647
O   O95       1.0  0.66120  0.70790  0.38170  1.0000 -0.5172063647
O   O96       1.0  0.33880  0.29210  0.38170  1.0000 -0.5172063647
O   O97       1.0  0.42720  0.59580  0.37210  1.0000 -0.5515554336
O   O98       1.0  0.35760  0.62960  0.42080  1.0000 -0.5569879116
O   O99       1.0  0.36480  0.53730  0.41200  1.0000 -0.5678053106
O   O100      1.0  0.57280  0.40420  0.37210  1.0000 -0.5515554336
O   O101      1.0  0.64240  0.37040  0.42080  1.0000 -0.5569879116
O   O102      1.0  0.63520  0.46270  0.41200  1.0000 -0.5678053106
O   O103      1.0  0.59580  0.57280  0.62790  1.0000 -0.5515554336
O   O104      1.0  0.62960  0.64240  0.57920  1.0000 -0.5569879116
O   O105      1.0  0.53730  0.63520  0.58800  1.0000 -0.5678053106
O   O106      1.0  0.40420  0.42720  0.62790  1.0000 -0.5515554336
O   O107      1.0  0.37040  0.35760  0.57920  1.0000 -0.5569879116
O   O108      1.0  0.46270  0.36480  0.58800  1.0000 -0.5678053106
O   O109      1.0  0.42720  0.40420  0.87210  1.0000 -0.5515554336
O   O110      1.0  0.35760  0.37040  0.92080  1.0000 -0.5569879116
O   O111      1.0  0.36480  0.46270  0.91200  1.0000 -0.5678053106
O   O112      1.0  0.57280  0.59580  0.87210  1.0000 -0.5515554336
O   O113      1.0  0.64240  0.62960  0.92080  1.0000 -0.5569879116
O   O114      1.0  0.63520  0.53730  0.91200  1.0000 -0.5678053106
O   O115      1.0  0.59580  0.42720  0.12790  1.0000 -0.5515554336
O   O116      1.0  0.62960  0.35760  0.07920  1.0000 -0.5569879116
O   O117      1.0  0.53730  0.36480  0.08800  1.0000 -0.5678053106
O   O118      1.0  0.40420  0.57280  0.12790  1.0000 -0.5515554336
O   O119      1.0  0.37040  0.64240  0.07920  1.0000 -0.5569879116
O   O120      1.0  0.46270  0.63520  0.08800  1.0000 -0.5678053106
O   O121      1.0  0.09810  0.56790  0.04590  1.0000 -0.5515554336
O   O122      1.0  0.04840  0.63900  0.07390  1.0000 -0.5515554336
O   O123      1.0  0.13640  0.63610  0.09820  1.0000 -0.5569879116
O   O124      1.0  0.90190  0.43210  0.04590  1.0000 -0.5515554336
O   O125      1.0  0.95160  0.36100  0.07390  1.0000 -0.5515554336
O   O126      1.0  0.86360  0.36390  0.09820  1.0000 -0.5569879116
O   O127      1.0  0.56790  0.90190  0.95410  1.0000 -0.5515554336
O   O128      1.0  0.63900  0.95160  0.92610  1.0000 -0.5515554336
O   O129      1.0  0.63610  0.86360  0.90180  1.0000 -0.5569879116
O   O130      1.0  0.43210  0.09810  0.95410  1.0000 -0.5515554336
O   O131      1.0  0.36100  0.04840  0.92610  1.0000 -0.5515554336
O   O132      1.0  0.36390  0.13640  0.90180  1.0000 -0.5569879116
O   O133      1.0  0.09810  0.43210  0.54590  1.0000 -0.5515554336
O   O134      1.0  0.04840  0.36100  0.57390  1.0000 -0.5515554336
O   O135      1.0  0.13640  0.36390  0.59820  1.0000 -0.5569879116
O   O136      1.0  0.90190  0.56790  0.54590  1.0000 -0.5515554336
O   O137      1.0  0.95160  0.63900  0.57390  1.0000 -0.5515554336
O   O138      1.0  0.86360  0.63610  0.59820  1.0000 -0.5515554336
O   O139      1.0  0.56790  0.09810  0.45410  1.0000 -0.5515554336
O   O140      1.0  0.63900  0.04840  0.42610  1.0000 -0.5515554336
O   O141      1.0  0.63610  0.13640  0.40180  1.0000 -0.5569879116
O   O142      1.0  0.43210  0.90190  0.45410  1.0000 -0.5515554336
O   O143      1.0  0.36100  0.95160  0.42610  1.0000 -0.5515554336
O   O144      1.0  0.36390  0.86360  0.40180  1.0000 -0.5569879116
O   O145      1.0  0.08520  0.58970  0.80890  1.0000 -0.5992076352
O   O146      1.0  0.15220  0.62660  0.75010  1.0000 -0.5798159893
O   O147      1.0  0.14560  0.53510  0.76200  1.0000 -0.5678053106
O   O148      1.0  0.91480  0.41030  0.80890  1.0000 -0.5992076352
O   O149      1.0  0.84780  0.37340  0.75010  1.0000 -0.5798159893
O   O150      1.0  0.85440  0.46490  0.76200  1.0000 -0.5678053106
O   O151      1.0  0.58970  0.91480  0.19110  1.0000 -0.5992076352
O   O152      1.0  0.62660  0.84780  0.24990  1.0000 -0.5798159893
O   O153      1.0  0.53510  0.85440  0.23800  1.0000 -0.5678053106
O   O154      1.0  0.41030  0.08520  0.19110  1.0000 -0.5992076352
O   O155      1.0  0.37340  0.15220  0.24990  1.0000 -0.5798159893
O   O156      1.0  0.46490  0.14560  0.23800  1.0000 -0.5678053106
O   O157      1.0  0.08520  0.41030  0.30890  1.0000 -0.5992076352
O   O158      1.0  0.15220  0.37340  0.25010  1.0000 -0.5798159893
O   O159      1.0  0.14560  0.46490  0.26200  1.0000 -0.5678053106
O   O160      1.0  0.91480  0.58970  0.30890  1.0000 -0.5992076352
O   O161      1.0  0.84780  0.62660  0.25010  1.0000 -0.5798159893
O   O162      1.0  0.85440  0.53510  0.26200  1.0000 -0.5678053106
O   O163      1.0  0.58970  0.08520  0.69110  1.0000 -0.5992076352
O   O164      1.0  0.62660  0.15220  0.74990  1.0000 -0.5798159893
O   O165      1.0  0.53510  0.14560  0.73800  1.0000 -0.5678053106
O   O166      1.0  0.41030  0.91480  0.69110  1.0000 -0.5992076352
O   O167      1.0  0.37340  0.84780  0.74990  1.0000 -0.5798159893
O   O168      1.0  0.46490  0.85440  0.73800  1.0000 -0.5678053106
F   F1        1.0  0.40670  0.57720  0.50580  1.0000 -0.179403966
F   F2        1.0  0.45990  0.53750  0.45790  1.0000 -0.151004847
F   F3        1.0  0.46560  0.61480  0.46680  1.0000 -0.151004847
F   F4        1.0  0.59330  0.42280  0.50580  1.0000 -0.179403966
F   F5        1.0  0.54010  0.46250  0.45790  1.0000 -0.151004847
F   F6        1.0  0.53440  0.38520  0.46680  1.0000 -0.151004847
F   F7        1.0  0.57720  0.59330  0.49420  1.0000 -0.179403966
F   F8        1.0  0.53750  0.54010  0.54210  1.0000 -0.151004847
F   F9        1.0  0.61480  0.53440  0.53320  1.0000 -0.151004847
F   F10       1.0  0.42280  0.40670  0.49420  1.0000 -0.179403966
F   F11       1.0  0.46250  0.45990  0.54210  1.0000 -0.151004847
F   F12       1.0  0.38520  0.46560  0.53320  1.0000 -0.151004847
F   F13       1.0  0.40670  0.42280  0.00580  1.0000 -0.179403966
F   F14       1.0  0.45990  0.46250  0.95790  1.0000 -0.151004847
F   F15       1.0  0.46560  0.38520  0.96680  1.0000 -0.151004847
F   F16       1.0  0.59330  0.57720  0.00580  1.0000 -0.179403966
F   F17       1.0  0.54010  0.53750  0.95790  1.0000 -0.151004847
F   F18       1.0  0.53440  0.61480  0.96680  1.0000 -0.151004847
F   F19       1.0  0.57720  0.40670  0.99420  1.0000 -0.179403966
F   F20       1.0  0.53750  0.45990  0.04210  1.0000 -0.151004847
F   F21       1.0  0.61480  0.46560  0.03320  1.0000 -0.151004847
F   F22       1.0  0.42280  0.59330  0.99420  1.0000 -0.179403966
F   F23       1.0  0.46250  0.54010  0.04210  1.0000 -0.151004847
F   F24       1.0  0.38520  0.53440  0.03320  1.0000 -0.151004847
F   F25       1.0  0.11230  0.54040  0.15160  1.0000 -0.1695561567
F   F26       1.0  0.06990  0.60890  0.17370  1.0000 -0.1695561567
F   F27       1.0  0.03270  0.55130  0.13390  1.0000 -0.1695561567
F   F28       1.0  0.88770  0.45960  0.15160  1.0000 -0.1695561567
F   F29       1.0  0.93010  0.39110  0.17370  1.0000 -0.1695561567
F   F30       1.0  0.96730  0.44870  0.13390  1.0000 -0.1695561567
F   F31       1.0  0.54040  0.88770  0.84840  1.0000 -0.179403966
F   F32       1.0  0.60890  0.93010  0.82630  1.0000 -0.1695561567
F   F33       1.0  0.55130  0.96730  0.86610  1.0000 -0.1695561567
F   F34       1.0  0.45960  0.11230  0.84840  1.0000 -0.179403966
F   F35       1.0  0.39110  0.06990  0.82630  1.0000 -0.1695561567
F   F36       1.0  0.44870  0.03270  0.86610  1.0000 -0.1695561567
F   F37       1.0  0.11230  0.45960  0.65160  1.0000 -0.1695561567
F   F38       1.0  0.06990  0.39110  0.67370  1.0000 -0.1695561567
F   F39       1.0  0.03270  0.44870  0.63390  1.0000 -0.1695561567
F   F40       1.0  0.88770  0.54040  0.65160  1.0000 -0.179403966
F   F41       1.0  0.93010  0.60890  0.67370  1.0000 -0.1695561567
F   F42       1.0  0.96730  0.55130  0.63390  1.0000 -0.1695561567
F   F43       1.0  0.54040  0.11230  0.34840  1.0000 -0.179403966
F   F44       1.0  0.60890  0.06990  0.32630  1.0000 -0.1695561567
F   F45       1.0  0.55130  0.03270  0.36610  1.0000 -0.1695561567
F   F46       1.0  0.45960  0.88770  0.34840  1.0000 -0.1695561567
F   F47       1.0  0.39110  0.93010  0.32630  1.0000 -0.1695561567
F   F48       1.0  0.44870  0.96730  0.36610  1.0000 -0.1695561567
F   F49       1.0  0.09960  0.57690  0.67070  1.0000 -0.1695561567
F   F50       1.0  0.04900  0.54090  0.71570  1.0000 -0.151004847
F   F51       1.0  0.04430  0.62470  0.71200  1.0000 -0.179403966
F   F52       1.0  0.90040  0.42310  0.67070  1.0000 -0.1695561567
F   F53       1.0  0.95100  0.45910  0.71570  1.0000 -0.151004847
F   F54       1.0  0.95570  0.37530  0.71200  1.0000 -0.179403966
F   F55       1.0  0.57690  0.90040  0.32930  1.0000 -0.1695561567
F   F56       1.0  0.54090  0.95100  0.28430  1.0000 -0.151004847
F   F57       1.0  0.62470  0.95570  0.28800  1.0000 -0.179403966
F   F58       1.0  0.42310  0.09960  0.32930  1.0000 -0.1695561567
F   F59       1.0  0.45910  0.04900  0.28430  1.0000 -0.151004847
F   F60       1.0  0.37530  0.04430  0.28800  1.0000 -0.179403966
F   F61       1.0  0.09960  0.42310  0.17070  1.0000 -0.1695561567
F   F62       1.0  0.04900  0.45910  0.21570  1.0000 -0.151004847
F   F63       1.0  0.04430  0.37530  0.21200  1.0000 -0.179403966
F   F64       1.0  0.90040  0.57690  0.17070  1.0000 -0.1695561567
F   F65       1.0  0.95100  0.54090  0.21570  1.0000 -0.151004847
F   F66       1.0  0.95570  0.62470  0.21200  1.0000 -0.179403966
F   F67       1.0  0.57690  0.09960  0.82930  1.0000 -0.1695561567
F   F68       1.0  0.54090  0.04900  0.78430  1.0000 -0.151004847
F   F69       1.0  0.62470  0.04430  0.78800  1.0000 -0.179403966
F   F70       1.0  0.42310  0.90040  0.82930  1.0000 -0.1695561567
F   F71       1.0  0.45910  0.95100  0.78430  1.0000 -0.151004847
F   F72       1.0  0.37530  0.95570  0.78800  1.0000 -0.179403966
