# DDEC6 charges by PACMAN v1.1 (https://github.com/mtap-research/PACMAN-charge/)
data_2015[CoSi][sra]3[ION]1
_chemical_formula_sum              "Co8 Si8 H256 C256 N16 O64"
_cell_length_a       14.5656
_cell_length_b       22.7022
_cell_length_c       28.2647
_cell_angle_alpha    90
_cell_angle_beta     90
_cell_angle_gamma    90

_symmetry_space_group_name_H-M    "P 1"
_symmetry_Int_Tables_number       1

loop_
  _symmetry_equiv_pos_as_xyz
  'x, y, z'

loop_
  _atom_site_type_symbol
  _atom_site_label
  _atom_site_symmetry_multiplicity
  _atom_site_fract_x
  _atom_site_fract_y
  _atom_site_fract_z
  _atom_site_occupancy
  _atom_site_charge
Co  Co1       1.0  0.03902  0.85120  0.89212  1.0000 0.9359877255
Co  Co2       1.0  0.96098  0.64880  0.39212  1.0000 0.9359877255
Co  Co3       1.0  0.53902  0.14880  0.60788  1.0000 0.9359877255
Co  Co4       1.0  0.46098  0.35120  0.10788  1.0000 0.9359877255
Co  Co5       1.0  0.96098  0.14880  0.10788  1.0000 0.9359877255
Co  Co6       1.0  0.03902  0.35120  0.60788  1.0000 0.9359877255
Co  Co7       1.0  0.46098  0.85120  0.39212  1.0000 0.9359877255
Co  Co8       1.0  0.53902  0.64880  0.89212  1.0000 0.9359877255
Si  Si1       1.0  0.96228  0.56583  0.09562  1.0000 0.6186030504
Si  Si2       1.0  0.03772  0.93417  0.59562  1.0000 0.6186030504
Si  Si3       1.0  0.46228  0.43417  0.40438  1.0000 0.6186030504
Si  Si4       1.0  0.53772  0.06583  0.90438  1.0000 0.6186030504
Si  Si5       1.0  0.03772  0.43417  0.90438  1.0000 0.6186030504
Si  Si6       1.0  0.96228  0.06583  0.40438  1.0000 0.6186030504
Si  Si7       1.0  0.53772  0.56583  0.59562  1.0000 0.6186030504
Si  Si8       1.0  0.46228  0.93417  0.09562  1.0000 0.6186030504
H   H1        1.0  0.86420  0.67740  0.95830  1.0000 0.1204254594
H   H2        1.0  0.13580  0.82260  0.45830  1.0000 0.1204254594
H   H3        1.0  0.36420  0.32260  0.54170  1.0000 0.1204254594
H   H4        1.0  0.63580  0.17740  0.04170  1.0000 0.1204254594
H   H5        1.0  0.86380  0.60200  0.01260  1.0000 0.1108203399
H   H6        1.0  0.13620  0.89800  0.51260  1.0000 0.1108203399
H   H7        1.0  0.36380  0.39800  0.48740  1.0000 0.1108203399
H   H8        1.0  0.63620  0.10200  0.98740  1.0000 0.1108203399
H   H9        1.0  0.06990  0.66720  0.07680  1.0000 0.1108203399
H   H10       1.0  0.93010  0.83280  0.57680  1.0000 0.1108203399
H   H11       1.0  0.56990  0.33280  0.42320  1.0000 0.1108203399
H   H12       1.0  0.43010  0.16720  0.92320  1.0000 0.1108203399
H   H13       1.0  0.08550  0.73670  0.01890  1.0000 0.1204254594
H   H14       1.0  0.91450  0.76330  0.51890  1.0000 0.1204254594
H   H15       1.0  0.58550  0.26330  0.48110  1.0000 0.1204254594
H   H16       1.0  0.41450  0.23670  0.98110  1.0000 0.1204254594
H   H17       1.0  0.67030  0.47310  0.13840  1.0000 0.1204254594
H   H18       1.0  0.32970  0.02690  0.63840  1.0000 0.1204254594
H   H19       1.0  0.17030  0.52690  0.36160  1.0000 0.1204254594
H   H20       1.0  0.82970  0.97310  0.86160  1.0000 0.1204254594
H   H21       1.0  0.79870  0.53120  0.14990  1.0000 0.1108203399
H   H22       1.0  0.20130  0.96880  0.64990  1.0000 0.1108203399
H   H23       1.0  0.29870  0.46880  0.35010  1.0000 0.1108203399
H   H24       1.0  0.70130  0.03120  0.85010  1.0000 0.1108203399
H   H25       1.0  0.88560  0.48980  0.02180  1.0000 0.1042571549
H   H26       1.0  0.11440  0.01020  0.52180  1.0000 0.1042571549
H   H27       1.0  0.38560  0.51020  0.47820  1.0000 0.1042571549
H   H28       1.0  0.61440  0.98980  0.97820  1.0000 0.1042571549
H   H29       1.0  0.75890  0.43250  0.01060  1.0000 0.1108203399
H   H30       1.0  0.24110  0.06750  0.51060  1.0000 0.1108203399
H   H31       1.0  0.25890  0.56750  0.48940  1.0000 0.1108203399
H   H32       1.0  0.74110  0.93250  0.98940  1.0000 0.1108203399
H   H33       1.0  0.85210  0.70830  0.20850  1.0000 0.1204254594
H   H34       1.0  0.14790  0.79170  0.70850  1.0000 0.1204254594
H   H35       1.0  0.35210  0.29170  0.29150  1.0000 0.1204254594
H   H36       1.0  0.64790  0.20830  0.79150  1.0000 0.1204254594
H   H37       1.0  0.86660  0.66700  0.13660  1.0000 0.1108203399
H   H38       1.0  0.13340  0.83300  0.63660  1.0000 0.1108203399
H   H39       1.0  0.36660  0.33300  0.36340  1.0000 0.1108203399
H   H40       1.0  0.63340  0.16700  0.86340  1.0000 0.1108203399
H   H41       1.0  0.04650  0.55450  0.18950  1.0000 0.1108203399
H   H42       1.0  0.95350  0.94550  0.68950  1.0000 0.1108203399
H   H43       1.0  0.54650  0.44550  0.31050  1.0000 0.1108203399
H   H44       1.0  0.45350  0.05450  0.81050  1.0000 0.1108203399
H   H45       1.0  0.03450  0.59990  0.26080  1.0000 0.128112036
H   H46       1.0  0.96550  0.90010  0.76080  1.0000 0.128112036
H   H47       1.0  0.53450  0.40010  0.23920  1.0000 0.128112036
H   H48       1.0  0.46550  0.09990  0.73920  1.0000 0.128112036
H   H49       1.0  0.12210  0.38230  0.12150  1.0000 0.1204254594
H   H50       1.0  0.87790  0.11770  0.62150  1.0000 0.1204254594
H   H51       1.0  0.62210  0.61770  0.37850  1.0000 0.1204254594
H   H52       1.0  0.37790  0.88230  0.87850  1.0000 0.1204254594
H   H53       1.0  0.99720  0.44290  0.11530  1.0000 0.1108203399
H   H54       1.0  0.00280  0.05710  0.61530  1.0000 0.1108203399
H   H55       1.0  0.49720  0.55710  0.38470  1.0000 0.1108203399
H   H56       1.0  0.50280  0.94290  0.88470  1.0000 0.1108203399
H   H57       1.0  0.15900  0.57200  0.07690  1.0000 0.1042571549
H   H58       1.0  0.84100  0.92800  0.57690  1.0000 0.1042571549
H   H59       1.0  0.65900  0.42800  0.42310  1.0000 0.1042571549
H   H60       1.0  0.34100  0.07200  0.92310  1.0000 0.1042571549
H   H61       1.0  0.28590  0.51030  0.08290  1.0000 0.1204254594
H   H62       1.0  0.71410  0.98970  0.58290  1.0000 0.1204254594
H   H63       1.0  0.78590  0.48970  0.41710  1.0000 0.1204254594
H   H64       1.0  0.21410  0.01030  0.91710  1.0000 0.1204254594
H   H65       1.0  0.13580  0.32260  0.04170  1.0000 0.1204254594
H   H66       1.0  0.86420  0.17740  0.54170  1.0000 0.1204254594
H   H67       1.0  0.63580  0.67740  0.45830  1.0000 0.1204254594
H   H68       1.0  0.36420  0.82260  0.95830  1.0000 0.1204254594
H   H69       1.0  0.13620  0.39800  0.98740  1.0000 0.1108203399
H   H70       1.0  0.86380  0.10200  0.48740  1.0000 0.1108203399
H   H71       1.0  0.63620  0.60200  0.51260  1.0000 0.1108203399
H   H72       1.0  0.36380  0.89800  0.01260  1.0000 0.1108203399
H   H73       1.0  0.93010  0.33280  0.92320  1.0000 0.1108203399
H   H74       1.0  0.06990  0.16720  0.42320  1.0000 0.1108203399
H   H75       1.0  0.43010  0.66720  0.57680  1.0000 0.1108203399
H   H76       1.0  0.56990  0.83280  0.07680  1.0000 0.1108203399
H   H77       1.0  0.91450  0.26330  0.98110  1.0000 0.1204254594
H   H78       1.0  0.08550  0.23670  0.48110  1.0000 0.1204254594
H   H79       1.0  0.41450  0.73670  0.51890  1.0000 0.1204254594
H   H80       1.0  0.58550  0.76330  0.01890  1.0000 0.1204254594
H   H81       1.0  0.32970  0.52690  0.86160  1.0000 0.1204254594
H   H82       1.0  0.67030  0.97310  0.36160  1.0000 0.1204254594
H   H83       1.0  0.82970  0.47310  0.63840  1.0000 0.1204254594
H   H84       1.0  0.17030  0.02690  0.13840  1.0000 0.1204254594
H   H85       1.0  0.20130  0.46880  0.85010  1.0000 0.1108203399
H   H86       1.0  0.79870  0.03120  0.35010  1.0000 0.1108203399
H   H87       1.0  0.70130  0.53120  0.64990  1.0000 0.1108203399
H   H88       1.0  0.29870  0.96880  0.14990  1.0000 0.1108203399
H   H89       1.0  0.11440  0.51020  0.97820  1.0000 0.1042571549
H   H90       1.0  0.88560  0.98980  0.47820  1.0000 0.1042571549
H   H91       1.0  0.61440  0.48980  0.52180  1.0000 0.1042571549
H   H92       1.0  0.38560  0.01020  0.02180  1.0000 0.1042571549
H   H93       1.0  0.24110  0.56750  0.98940  1.0000 0.1108203399
H   H94       1.0  0.75890  0.93250  0.48940  1.0000 0.1108203399
H   H95       1.0  0.74110  0.43250  0.51060  1.0000 0.1108203399
H   H96       1.0  0.25890  0.06750  0.01060  1.0000 0.1108203399
H   H97       1.0  0.14790  0.29170  0.79150  1.0000 0.1204254594
H   H98       1.0  0.85210  0.20830  0.29150  1.0000 0.1204254594
H   H99       1.0  0.64790  0.70830  0.70850  1.0000 0.1204254594
H   H100      1.0  0.35210  0.79170  0.20850  1.0000 0.1204254594
H   H101      1.0  0.13340  0.33300  0.86340  1.0000 0.1108203399
H   H102      1.0  0.86660  0.16700  0.36340  1.0000 0.1108203399
H   H103      1.0  0.63340  0.66700  0.63660  1.0000 0.1108203399
H   H104      1.0  0.36660  0.83300  0.13660  1.0000 0.1108203399
H   H105      1.0  0.95350  0.44550  0.81050  1.0000 0.1108203399
H   H106      1.0  0.04650  0.05450  0.31050  1.0000 0.1108203399
H   H107      1.0  0.45350  0.55450  0.68950  1.0000 0.1108203399
H   H108      1.0  0.54650  0.94550  0.18950  1.0000 0.1108203399
H   H109      1.0  0.96550  0.40010  0.73920  1.0000 0.128112036
H   H110      1.0  0.03450  0.09990  0.23920  1.0000 0.128112036
H   H111      1.0  0.46550  0.59990  0.76080  1.0000 0.128112036
H   H112      1.0  0.53450  0.90010  0.26080  1.0000 0.128112036
H   H113      1.0  0.87790  0.61770  0.87850  1.0000 0.1204254594
H   H114      1.0  0.12210  0.88230  0.37850  1.0000 0.1204254594
H   H115      1.0  0.37790  0.38230  0.62150  1.0000 0.1204254594
H   H116      1.0  0.62210  0.11770  0.12150  1.0000 0.1204254594
H   H117      1.0  0.00280  0.55710  0.88470  1.0000 0.1108203399
H   H118      1.0  0.99720  0.94290  0.38470  1.0000 0.1108203399
H   H119      1.0  0.50280  0.44290  0.61530  1.0000 0.1108203399
H   H120      1.0  0.49720  0.05710  0.11530  1.0000 0.1108203399
H   H121      1.0  0.84100  0.42800  0.92310  1.0000 0.1042571549
H   H122      1.0  0.15900  0.07200  0.42310  1.0000 0.1042571549
H   H123      1.0  0.34100  0.57200  0.57690  1.0000 0.1042571549
H   H124      1.0  0.65900  0.92800  0.07690  1.0000 0.1042571549
H   H125      1.0  0.71410  0.48970  0.91710  1.0000 0.1204254594
H   H126      1.0  0.28590  0.01030  0.41710  1.0000 0.1204254594
H   H127      1.0  0.21410  0.51030  0.58290  1.0000 0.1204254594
H   H128      1.0  0.78590  0.98970  0.08290  1.0000 0.1204254594
H   H129      1.0  0.04850  0.85420  0.05220  1.0000 0.2588297237
H   H130      1.0  0.01120  0.87980  0.00860  1.0000 0.2717819118
H   H131      1.0  0.16110  0.87210  0.00350  1.0000 0.128112036
H   H132      1.0  0.16830  0.91210  0.04860  1.0000 0.1108203399
H   H133      1.0  0.12880  0.93790  0.00130  1.0000 0.128112036
H   H134      1.0  0.95000  0.93240  0.07410  1.0000 0.1363661584
H   H135      1.0  0.00930  0.97460  0.04260  1.0000 0.128112036
H   H136      1.0  0.05090  0.94780  0.08900  1.0000 0.1204254594
H   H137      1.0  0.95150  0.64580  0.55220  1.0000 0.2588297237
H   H138      1.0  0.98880  0.62020  0.50860  1.0000 0.2717819118
H   H139      1.0  0.83890  0.62790  0.50350  1.0000 0.128112036
H   H140      1.0  0.83170  0.58790  0.54860  1.0000 0.1108203399
H   H141      1.0  0.87120  0.56210  0.50130  1.0000 0.128112036
H   H142      1.0  0.05000  0.56760  0.57410  1.0000 0.1363661584
H   H143      1.0  0.99070  0.52540  0.54260  1.0000 0.128112036
H   H144      1.0  0.94910  0.55220  0.58900  1.0000 0.1204254594
H   H145      1.0  0.54850  0.14580  0.44780  1.0000 0.2588297237
H   H146      1.0  0.51120  0.12020  0.49140  1.0000 0.2717819118
H   H147      1.0  0.66110  0.12790  0.49650  1.0000 0.128112036
H   H148      1.0  0.66830  0.08790  0.45140  1.0000 0.1108203399
H   H149      1.0  0.62880  0.06210  0.49870  1.0000 0.128112036
H   H150      1.0  0.45000  0.06760  0.42590  1.0000 0.1363661584
H   H151      1.0  0.50930  0.02540  0.45740  1.0000 0.128112036
H   H152      1.0  0.55090  0.05220  0.41100  1.0000 0.1204254594
H   H153      1.0  0.45150  0.35420  0.94780  1.0000 0.2588297237
H   H154      1.0  0.48880  0.37980  0.99140  1.0000 0.2717819118
H   H155      1.0  0.33890  0.37210  0.99650  1.0000 0.128112036
H   H156      1.0  0.33170  0.41210  0.95140  1.0000 0.1108203399
H   H157      1.0  0.37120  0.43790  0.99870  1.0000 0.128112036
H   H158      1.0  0.55000  0.43240  0.92590  1.0000 0.1363661584
H   H159      1.0  0.49070  0.47460  0.95740  1.0000 0.128112036
H   H160      1.0  0.44910  0.44780  0.91100  1.0000 0.1204254594
H   H161      1.0  0.95150  0.14580  0.94780  1.0000 0.2588297237
H   H162      1.0  0.98880  0.12020  0.99140  1.0000 0.2717819118
H   H163      1.0  0.83890  0.12790  0.99650  1.0000 0.128112036
H   H164      1.0  0.83170  0.08790  0.95140  1.0000 0.1108203399
H   H165      1.0  0.87120  0.06210  0.99870  1.0000 0.128112036
H   H166      1.0  0.05000  0.06760  0.92590  1.0000 0.1363661584
H   H167      1.0  0.99070  0.02540  0.95740  1.0000 0.128112036
H   H168      1.0  0.94910  0.05220  0.91100  1.0000 0.1204254594
H   H169      1.0  0.04850  0.35420  0.44780  1.0000 0.2588297237
H   H170      1.0  0.01120  0.37980  0.49140  1.0000 0.2717819118
H   H171      1.0  0.16110  0.37210  0.49650  1.0000 0.128112036
H   H172      1.0  0.16830  0.41210  0.45140  1.0000 0.1108203399
H   H173      1.0  0.12880  0.43790  0.49870  1.0000 0.128112036
H   H174      1.0  0.95000  0.43240  0.42590  1.0000 0.1363661584
H   H175      1.0  0.00930  0.47460  0.45740  1.0000 0.128112036
H   H176      1.0  0.05090  0.44780  0.41100  1.0000 0.1204254594
H   H177      1.0  0.45150  0.85420  0.55220  1.0000 0.2588297237
H   H178      1.0  0.48880  0.87980  0.50860  1.0000 0.2717819118
H   H179      1.0  0.33890  0.87210  0.50350  1.0000 0.128112036
H   H180      1.0  0.33170  0.91210  0.54860  1.0000 0.1108203399
H   H181      1.0  0.37120  0.93790  0.50130  1.0000 0.128112036
H   H182      1.0  0.55000  0.93240  0.57410  1.0000 0.1363661584
H   H183      1.0  0.49070  0.97460  0.54260  1.0000 0.128112036
H   H184      1.0  0.44910  0.94780  0.58900  1.0000 0.1204254594
H   H185      1.0  0.54850  0.64580  0.05220  1.0000 0.2588297237
H   H186      1.0  0.51120  0.62020  0.00860  1.0000 0.2717819118
H   H187      1.0  0.66110  0.62790  0.00350  1.0000 0.128112036
H   H188      1.0  0.66830  0.58790  0.04860  1.0000 0.1108203399
H   H189      1.0  0.62880  0.56210  0.00130  1.0000 0.128112036
H   H190      1.0  0.45000  0.56760  0.07410  1.0000 0.1363661584
H   H191      1.0  0.50930  0.52540  0.04260  1.0000 0.128112036
H   H192      1.0  0.55090  0.55220  0.08900  1.0000 0.1204254594
H   H193      1.0  0.30560  0.74940  0.87270  1.0000 0.2753388432
H   H194      1.0  0.21930  0.75440  0.84760  1.0000 0.2717819118
H   H195      1.0  0.32750  0.70970  0.80040  1.0000 0.128112036
H   H196      1.0  0.24310  0.66800  0.80830  1.0000 0.1204254594
H   H197      1.0  0.33333  0.65860  0.83760  1.0000 0.1204254594
H   H198      1.0  0.19590  0.73550  0.91960  1.0000 0.1204254594
H   H199      1.0  0.25470  0.67810  0.91410  1.0000 0.1108203399
H   H200      1.0  0.16110  0.68410  0.88720  1.0000 0.1108203399
H   H201      1.0  0.69440  0.75060  0.37270  1.0000 0.2753388432
H   H202      1.0  0.78070  0.74560  0.34760  1.0000 0.2717819118
H   H203      1.0  0.67250  0.79030  0.30040  1.0000 0.128112036
H   H204      1.0  0.75690  0.83200  0.30830  1.0000 0.1204254594
H   H205      1.0  0.66667  0.84140  0.33760  1.0000 0.1204254594
H   H206      1.0  0.80410  0.76450  0.41960  1.0000 0.1204254594
H   H207      1.0  0.74530  0.82190  0.41410  1.0000 0.1108203399
H   H208      1.0  0.83890  0.81590  0.38720  1.0000 0.1108203399
H   H209      1.0  0.80560  0.25060  0.62730  1.0000 0.2753388432
H   H210      1.0  0.71930  0.24560  0.65240  1.0000 0.2717819118
H   H211      1.0  0.82750  0.29030  0.69960  1.0000 0.128112036
H   H212      1.0  0.74310  0.33200  0.69170  1.0000 0.1204254594
H   H213      1.0  0.83330  0.34140  0.66240  1.0000 0.1204254594
H   H214      1.0  0.69590  0.26450  0.58040  1.0000 0.1204254594
H   H215      1.0  0.75470  0.32190  0.58590  1.0000 0.1108203399
H   H216      1.0  0.66110  0.31590  0.61280  1.0000 0.1108203399
H   H217      1.0  0.19440  0.24940  0.12730  1.0000 0.2753388432
H   H218      1.0  0.28070  0.25440  0.15240  1.0000 0.2717819118
H   H219      1.0  0.17250  0.20970  0.19960  1.0000 0.128112036
H   H220      1.0  0.25690  0.16800  0.19170  1.0000 0.1204254594
H   H221      1.0  0.16670  0.15860  0.16240  1.0000 0.1204254594
H   H222      1.0  0.30410  0.23550  0.08040  1.0000 0.1204254594
H   H223      1.0  0.24530  0.17810  0.08590  1.0000 0.1108203399
H   H224      1.0  0.33890  0.18410  0.11280  1.0000 0.1108203399
H   H225      1.0  0.69440  0.25060  0.12730  1.0000 0.2753388432
H   H226      1.0  0.78070  0.24560  0.15240  1.0000 0.2717819118
H   H227      1.0  0.67250  0.29030  0.19960  1.0000 0.128112036
H   H228      1.0  0.75690  0.33200  0.19170  1.0000 0.1204254594
H   H229      1.0  0.66667  0.34140  0.16240  1.0000 0.1204254594
H   H230      1.0  0.80410  0.26450  0.08040  1.0000 0.1204254594
H   H231      1.0  0.74530  0.32190  0.08590  1.0000 0.1108203399
H   H232      1.0  0.83890  0.31590  0.11280  1.0000 0.1108203399
H   H233      1.0  0.30560  0.24940  0.62730  1.0000 0.2753388432
H   H234      1.0  0.21930  0.25440  0.65240  1.0000 0.2717819118
H   H235      1.0  0.32750  0.20970  0.69960  1.0000 0.128112036
H   H236      1.0  0.24310  0.16800  0.69170  1.0000 0.1204254594
H   H237      1.0  0.33333  0.15860  0.66240  1.0000 0.1204254594
H   H238      1.0  0.19590  0.23550  0.58040  1.0000 0.1204254594
H   H239      1.0  0.25470  0.17810  0.58590  1.0000 0.1108203399
H   H240      1.0  0.16110  0.18410  0.61280  1.0000 0.1108203399
H   H241      1.0  0.19440  0.74940  0.37270  1.0000 0.2753388432
H   H242      1.0  0.28070  0.75440  0.34760  1.0000 0.2717819118
H   H243      1.0  0.17250  0.70970  0.30040  1.0000 0.128112036
H   H244      1.0  0.25690  0.66800  0.30830  1.0000 0.1204254594
H   H245      1.0  0.16670  0.65860  0.33760  1.0000 0.1204254594
H   H246      1.0  0.30410  0.73550  0.41960  1.0000 0.1204254594
H   H247      1.0  0.24530  0.67810  0.41410  1.0000 0.1108203399
H   H248      1.0  0.33890  0.68410  0.38720  1.0000 0.1108203399
H   H249      1.0  0.80560  0.75060  0.87270  1.0000 0.2753388432
H   H250      1.0  0.71930  0.74560  0.84760  1.0000 0.2717819118
H   H251      1.0  0.82750  0.79030  0.80040  1.0000 0.128112036
H   H252      1.0  0.74310  0.83200  0.80830  1.0000 0.1204254594
H   H253      1.0  0.83330  0.84140  0.83760  1.0000 0.1204254594
H   H254      1.0  0.69590  0.76450  0.91960  1.0000 0.1204254594
H   H255      1.0  0.75470  0.82190  0.91410  1.0000 0.1108203399
H   H256      1.0  0.66110  0.81590  0.88720  1.0000 0.1108203399
C   C1        1.0  0.98990  0.75790  0.94033  1.0000 0.5402208265
C   C2        1.0  0.01010  0.74210  0.44033  1.0000 0.5402208265
C   C3        1.0  0.48990  0.24210  0.55967  1.0000 0.5402208265
C   C4        1.0  0.51010  0.25790  0.05967  1.0000 0.5402208265
C   C5        1.0  0.98220  0.71030  0.97799  1.0000 -0.0005764117
C   C6        1.0  0.01780  0.78970  0.47799  1.0000 -0.0005764117
C   C7        1.0  0.48220  0.28970  0.52201  1.0000 -0.0005764117
C   C8        1.0  0.51780  0.21030  0.02201  1.0000 -0.0005764117
C   C9        1.0  0.91240  0.67390  0.97975  1.0000 -0.1091177322
C   C10       1.0  0.08760  0.82610  0.47975  1.0000 -0.1091177322
C   C11       1.0  0.41240  0.32610  0.52025  1.0000 -0.1091177322
C   C12       1.0  0.58760  0.17390  0.02025  1.0000 -0.1091177322
C   C13       1.0  0.91110  0.62940  0.01450  1.0000 -0.1091177322
C   C14       1.0  0.08890  0.87060  0.51450  1.0000 -0.1091177322
C   C15       1.0  0.41110  0.37060  0.48550  1.0000 -0.1091177322
C   C16       1.0  0.58890  0.12940  0.98550  1.0000 -0.1091177322
C   C17       1.0  0.96910  0.62290  0.04867  1.0000 -0.1721074585
C   C18       1.0  0.03090  0.87710  0.54867  1.0000 -0.1721074585
C   C19       1.0  0.46910  0.37710  0.45133  1.0000 -0.1721074585
C   C20       1.0  0.53090  0.12290  0.95133  1.0000 -0.1721074585
C   C21       1.0  0.03080  0.66580  0.05080  1.0000 -0.1150417033
C   C22       1.0  0.96920  0.83420  0.55080  1.0000 -0.1091177322
C   C23       1.0  0.53080  0.33420  0.44920  1.0000 -0.1091177322
C   C24       1.0  0.46920  0.16580  0.94920  1.0000 -0.1091177322
C   C25       1.0  0.03950  0.70860  0.01610  1.0000 -0.1303511339
C   C26       1.0  0.96050  0.79140  0.51610  1.0000 -0.1303511339
C   C27       1.0  0.53950  0.29140  0.48390  1.0000 -0.1303511339
C   C28       1.0  0.46050  0.20860  0.98390  1.0000 -0.1303511339
C   C29       1.0  0.61970  0.40990  0.06588  1.0000 0.5452474502
C   C30       1.0  0.38030  0.09010  0.56588  1.0000 0.5452474502
C   C31       1.0  0.11970  0.59010  0.43412  1.0000 0.5452474502
C   C32       1.0  0.88030  0.90990  0.93412  1.0000 0.5452474502
C   C33       1.0  0.70210  0.44749  0.07324  1.0000 -0.0324655216
C   C34       1.0  0.29790  0.05251  0.57324  1.0000 -0.0324655216
C   C35       1.0  0.20210  0.55251  0.42676  1.0000 -0.0324655216
C   C36       1.0  0.79790  0.94749  0.92676  1.0000 -0.0324655216
C   C37       1.0  0.71380  0.47660  0.11443  1.0000 -0.1091177322
C   C38       1.0  0.28620  0.02340  0.61443  1.0000 -0.1091177322
C   C39       1.0  0.21380  0.52340  0.38557  1.0000 -0.1091177322
C   C40       1.0  0.78620  0.97660  0.88557  1.0000 -0.1091177322
C   C41       1.0  0.79160  0.51200  0.12104  1.0000 -0.1005462572
C   C42       1.0  0.20840  0.98800  0.62104  1.0000 -0.1005462572
C   C43       1.0  0.29160  0.48800  0.37896  1.0000 -0.1005462572
C   C44       1.0  0.70840  0.01200  0.87896  1.0000 -0.1005462572
C   C45       1.0  0.85830  0.51995  0.08692  1.0000 -0.1920742824
C   C46       1.0  0.14170  0.98005  0.58692  1.0000 -0.1920742824
C   C47       1.0  0.35830  0.48005  0.41308  1.0000 -0.1920742824
C   C48       1.0  0.64170  0.01995  0.91308  1.0000 -0.1920742824
C   C49       1.0  0.84230  0.48760  0.04596  1.0000 -0.1091177322
C   C50       1.0  0.15770  0.01240  0.54596  1.0000 -0.1091177322
C   C51       1.0  0.34230  0.51240  0.45404  1.0000 -0.1091177322
C   C52       1.0  0.65770  0.98760  0.95404  1.0000 -0.1091177322
C   C53       1.0  0.76620  0.45260  0.03904  1.0000 -0.1091177322
C   C54       1.0  0.23380  0.04740  0.53904  1.0000 -0.1091177322
C   C55       1.0  0.26620  0.54740  0.46096  1.0000 -0.1091177322
C   C56       1.0  0.73380  0.95260  0.96096  1.0000 -0.1091177322
C   C57       1.0  0.92480  0.68320  0.29237  1.0000 0.5681034547
C   C58       1.0  0.07520  0.81680  0.79237  1.0000 0.5681034547
C   C59       1.0  0.42480  0.31680  0.20763  1.0000 0.5681034547
C   C60       1.0  0.57520  0.18320  0.70763  1.0000 0.5681034547
C   C61       1.0  0.93650  0.65620  0.24375  1.0000 -0.0107276542
C   C62       1.0  0.06350  0.84380  0.74375  1.0000 -0.0107276542
C   C63       1.0  0.43650  0.34380  0.25625  1.0000 -0.0107276542
C   C64       1.0  0.56350  0.15620  0.75625  1.0000 -0.0107276542
C   C65       1.0  0.89100  0.67620  0.20513  1.0000 -0.1005462572
C   C66       1.0  0.10900  0.82380  0.70513  1.0000 -0.1005462572
C   C67       1.0  0.39100  0.32380  0.29487  1.0000 -0.1005462572
C   C68       1.0  0.60900  0.17620  0.79487  1.0000 -0.1005462572
C   C69       1.0  0.89970  0.65130  0.16171  1.0000 -0.1005462572
C   C70       1.0  0.10030  0.84870  0.66171  1.0000 -0.1005462572
C   C71       1.0  0.39970  0.34870  0.33829  1.0000 -0.1005462572
C   C72       1.0  0.60030  0.15130  0.83829  1.0000 -0.1005462572
C   C73       1.0  0.95530  0.60397  0.15367  1.0000 -0.2283948514
C   C74       1.0  0.04470  0.89603  0.65367  1.0000 -0.2283948514
C   C75       1.0  0.45530  0.39603  0.34633  1.0000 -0.2283948514
C   C76       1.0  0.54470  0.10397  0.84633  1.0000 -0.2283948514
C   C77       1.0  0.00580  0.58580  0.19284  1.0000 -0.1005462572
C   C78       1.0  0.99420  0.91420  0.69284  1.0000 -0.0916149333
C   C79       1.0  0.50580  0.41420  0.30716  1.0000 -0.0916149333
C   C80       1.0  0.49420  0.08580  0.80716  1.0000 -0.0916149333
C   C81       1.0  0.99730  0.61240  0.23606  1.0000 -0.1005462572
C   C82       1.0  0.00270  0.88760  0.73606  1.0000 -0.1005462572
C   C83       1.0  0.49730  0.38760  0.26394  1.0000 -0.1005462572
C   C84       1.0  0.50270  0.11240  0.76394  1.0000 -0.1005462572
C   C85       1.0  0.29620  0.39830  0.10455  1.0000 0.5283816603
C   C86       1.0  0.70380  0.10170  0.60455  1.0000 0.5283816603
C   C87       1.0  0.79620  0.60170  0.39545  1.0000 0.5283816603
C   C88       1.0  0.20380  0.89830  0.89545  1.0000 0.5283816603
C   C89       1.0  0.21720  0.43943  0.10120  1.0000 -0.0170197281
C   C90       1.0  0.78280  0.06057  0.60120  1.0000 -0.0170197281
C   C91       1.0  0.71720  0.56057  0.39880  1.0000 -0.0170197281
C   C92       1.0  0.28280  0.93943  0.89880  1.0000 -0.0170197281
C   C93       1.0  0.13080  0.42110  0.11180  1.0000 -0.1005462572
C   C94       1.0  0.86920  0.07890  0.61180  1.0000 -0.1005462572
C   C95       1.0  0.63080  0.57890  0.38820  1.0000 -0.1005462572
C   C96       1.0  0.36920  0.92110  0.88820  1.0000 -0.1091177322
C   C97       1.0  0.05510  0.45800  0.10860  1.0000 -0.1005462572
C   C98       1.0  0.94490  0.04200  0.60860  1.0000 -0.1005462572
C   C99       1.0  0.55510  0.54200  0.39140  1.0000 -0.1005462572
C   C100      1.0  0.44490  0.95800  0.89140  1.0000 -0.1005462572
C   C101      1.0  0.06330  0.51578  0.09590  1.0000 -0.1920742824
C   C102      1.0  0.93670  0.98422  0.59590  1.0000 -0.1920742824
C   C103      1.0  0.56330  0.48422  0.40410  1.0000 -0.1920742824
C   C104      1.0  0.43670  0.01578  0.90410  1.0000 -0.1920742824
C   C105      1.0  0.14980  0.53310  0.08620  1.0000 -0.1005462572
C   C106      1.0  0.85020  0.96690  0.58620  1.0000 -0.1005462572
C   C107      1.0  0.64980  0.46690  0.41380  1.0000 -0.1005462572
C   C108      1.0  0.35020  0.03310  0.91380  1.0000 -0.1005462572
C   C109      1.0  0.22760  0.49550  0.08930  1.0000 -0.1091177322
C   C110      1.0  0.77240  0.00450  0.58930  1.0000 -0.1091177322
C   C111      1.0  0.72760  0.50450  0.41070  1.0000 -0.1091177322
C   C112      1.0  0.27240  0.99550  0.91070  1.0000 -0.1091177322
C   C113      1.0  0.01010  0.24210  0.05967  1.0000 0.5402208265
C   C114      1.0  0.98990  0.25790  0.55967  1.0000 0.5402208265
C   C115      1.0  0.51010  0.75790  0.44033  1.0000 0.5402208265
C   C116      1.0  0.48990  0.74210  0.94033  1.0000 0.5402208265
C   C117      1.0  0.01780  0.28970  0.02201  1.0000 -0.0005764117
C   C118      1.0  0.98220  0.21030  0.52201  1.0000 -0.0005764117
C   C119      1.0  0.51780  0.71030  0.47799  1.0000 -0.0005764117
C   C120      1.0  0.48220  0.78970  0.97799  1.0000 -0.0005764117
C   C121      1.0  0.08760  0.32610  0.02025  1.0000 -0.1091177322
C   C122      1.0  0.91240  0.17390  0.52025  1.0000 -0.1091177322
C   C123      1.0  0.58760  0.67390  0.47975  1.0000 -0.1091177322
C   C124      1.0  0.41240  0.82610  0.97975  1.0000 -0.1091177322
C   C125      1.0  0.08890  0.37060  0.98550  1.0000 -0.1091177322
C   C126      1.0  0.91110  0.12940  0.48550  1.0000 -0.1091177322
C   C127      1.0  0.58890  0.62940  0.51450  1.0000 -0.1091177322
C   C128      1.0  0.41110  0.87060  0.01450  1.0000 -0.1091177322
C   C129      1.0  0.03090  0.37710  0.95133  1.0000 -0.1721074585
C   C130      1.0  0.96910  0.12290  0.45133  1.0000 -0.1721074585
C   C131      1.0  0.53090  0.62290  0.54867  1.0000 -0.1721074585
C   C132      1.0  0.46910  0.87710  0.04867  1.0000 -0.1721074585
C   C133      1.0  0.96920  0.33420  0.94920  1.0000 -0.1091177322
C   C134      1.0  0.03080  0.16580  0.44920  1.0000 -0.1150417033
C   C135      1.0  0.46920  0.66580  0.55080  1.0000 -0.1091177322
C   C136      1.0  0.53080  0.83420  0.05080  1.0000 -0.1091177322
C   C137      1.0  0.96050  0.29140  0.98390  1.0000 -0.1303511339
C   C138      1.0  0.03950  0.20860  0.48390  1.0000 -0.1303511339
C   C139      1.0  0.46050  0.70860  0.51610  1.0000 -0.1303511339
C   C140      1.0  0.53950  0.79140  0.01610  1.0000 -0.1303511339
C   C141      1.0  0.38030  0.59010  0.93412  1.0000 0.5452474502
C   C142      1.0  0.61970  0.90990  0.43412  1.0000 0.5452474502
C   C143      1.0  0.88030  0.40990  0.56588  1.0000 0.5452474502
C   C144      1.0  0.11970  0.09010  0.06588  1.0000 0.5452474502
C   C145      1.0  0.29790  0.55251  0.92676  1.0000 -0.0324655216
C   C146      1.0  0.70210  0.94749  0.42676  1.0000 -0.0324655216
C   C147      1.0  0.79790  0.44749  0.57324  1.0000 -0.0324655216
C   C148      1.0  0.20210  0.05251  0.07324  1.0000 -0.0324655216
C   C149      1.0  0.28620  0.52340  0.88557  1.0000 -0.1091177322
C   C150      1.0  0.71380  0.97660  0.38557  1.0000 -0.1091177322
C   C151      1.0  0.78620  0.47660  0.61443  1.0000 -0.1091177322
C   C152      1.0  0.21380  0.02340  0.11443  1.0000 -0.1091177322
C   C153      1.0  0.20840  0.48800  0.87896  1.0000 -0.1005462572
C   C154      1.0  0.79160  0.01200  0.37896  1.0000 -0.1005462572
C   C155      1.0  0.70840  0.51200  0.62104  1.0000 -0.1005462572
C   C156      1.0  0.29160  0.98800  0.12104  1.0000 -0.1005462572
C   C157      1.0  0.14170  0.48005  0.91308  1.0000 -0.1920742824
C   C158      1.0  0.85830  0.01995  0.41308  1.0000 -0.1920742824
C   C159      1.0  0.64170  0.51995  0.58692  1.0000 -0.1920742824
C   C160      1.0  0.35830  0.98005  0.08692  1.0000 -0.1920742824
C   C161      1.0  0.15770  0.51240  0.95404  1.0000 -0.1091177322
C   C162      1.0  0.84230  0.98760  0.45404  1.0000 -0.1091177322
C   C163      1.0  0.65770  0.48760  0.54596  1.0000 -0.1091177322
C   C164      1.0  0.34230  0.01240  0.04596  1.0000 -0.1091177322
C   C165      1.0  0.23380  0.54740  0.96096  1.0000 -0.1091177322
C   C166      1.0  0.76620  0.95260  0.46096  1.0000 -0.1091177322
C   C167      1.0  0.73380  0.45260  0.53904  1.0000 -0.1091177322
C   C168      1.0  0.26620  0.04740  0.03904  1.0000 -0.1091177322
C   C169      1.0  0.07520  0.31680  0.70763  1.0000 0.5681034547
C   C170      1.0  0.92480  0.18320  0.20763  1.0000 0.5681034547
C   C171      1.0  0.57520  0.68320  0.79237  1.0000 0.5681034547
C   C172      1.0  0.42480  0.81680  0.29237  1.0000 0.5681034547
C   C173      1.0  0.06350  0.34380  0.75625  1.0000 -0.0107276542
C   C174      1.0  0.93650  0.15620  0.25625  1.0000 -0.0107276542
C   C175      1.0  0.56350  0.65620  0.74375  1.0000 -0.0107276542
C   C176      1.0  0.43650  0.84380  0.24375  1.0000 -0.0107276542
C   C177      1.0  0.10900  0.32380  0.79487  1.0000 -0.1005462572
C   C178      1.0  0.89100  0.17620  0.29487  1.0000 -0.1005462572
C   C179      1.0  0.60900  0.67620  0.70513  1.0000 -0.1005462572
C   C180      1.0  0.39100  0.82380  0.20513  1.0000 -0.1005462572
C   C181      1.0  0.10030  0.34870  0.83829  1.0000 -0.1005462572
C   C182      1.0  0.89970  0.15130  0.33829  1.0000 -0.1005462572
C   C183      1.0  0.60030  0.65130  0.66171  1.0000 -0.1005462572
C   C184      1.0  0.39970  0.84870  0.16171  1.0000 -0.1005462572
C   C185      1.0  0.04470  0.39603  0.84633  1.0000 -0.2283948514
C   C186      1.0  0.95530  0.10397  0.34633  1.0000 -0.2283948514
C   C187      1.0  0.54470  0.60397  0.65367  1.0000 -0.2283948514
C   C188      1.0  0.45530  0.89603  0.15367  1.0000 -0.2283948514
C   C189      1.0  0.99420  0.41420  0.80716  1.0000 -0.0916149333
C   C190      1.0  0.00580  0.08580  0.30716  1.0000 -0.1005462572
C   C191      1.0  0.49420  0.58580  0.69284  1.0000 -0.1005462572
C   C192      1.0  0.50580  0.91420  0.19284  1.0000 -0.0916149333
C   C193      1.0  0.00270  0.38760  0.76394  1.0000 -0.1005462572
C   C194      1.0  0.99730  0.11240  0.26394  1.0000 -0.1005462572
C   C195      1.0  0.50270  0.61240  0.73606  1.0000 -0.1005462572
C   C196      1.0  0.49730  0.88760  0.23606  1.0000 -0.1005462572
C   C197      1.0  0.70380  0.60170  0.89545  1.0000 0.5283816603
C   C198      1.0  0.29620  0.89830  0.39545  1.0000 0.5283816603
C   C199      1.0  0.20380  0.39830  0.60455  1.0000 0.5283816603
C   C200      1.0  0.79620  0.10170  0.10455  1.0000 0.5283816603
C   C201      1.0  0.78280  0.56057  0.89880  1.0000 -0.0170197281
C   C202      1.0  0.21720  0.93943  0.39880  1.0000 -0.0170197281
C   C203      1.0  0.28280  0.43943  0.60120  1.0000 -0.0170197281
C   C204      1.0  0.71720  0.06057  0.10120  1.0000 -0.0170197281
C   C205      1.0  0.86920  0.57890  0.88820  1.0000 -0.1091177322
C   C206      1.0  0.13080  0.92110  0.38820  1.0000 -0.1005462572
C   C207      1.0  0.36920  0.42110  0.61180  1.0000 -0.1005462572
C   C208      1.0  0.63080  0.07890  0.11180  1.0000 -0.1005462572
C   C209      1.0  0.94490  0.54200  0.89140  1.0000 -0.1005462572
C   C210      1.0  0.05510  0.95800  0.39140  1.0000 -0.1005462572
C   C211      1.0  0.44490  0.45800  0.60860  1.0000 -0.1005462572
C   C212      1.0  0.55510  0.04200  0.10860  1.0000 -0.1005462572
C   C213      1.0  0.93670  0.48422  0.90410  1.0000 -0.1920742824
C   C214      1.0  0.06330  0.01578  0.40410  1.0000 -0.1920742824
C   C215      1.0  0.43670  0.51578  0.59590  1.0000 -0.1920742824
C   C216      1.0  0.56330  0.98422  0.09590  1.0000 -0.1920742824
C   C217      1.0  0.85020  0.46690  0.91380  1.0000 -0.1005462572
C   C218      1.0  0.14980  0.03310  0.41380  1.0000 -0.1005462572
C   C219      1.0  0.35020  0.53310  0.58620  1.0000 -0.1005462572
C   C220      1.0  0.64980  0.96690  0.08620  1.0000 -0.1005462572
C   C221      1.0  0.77240  0.50450  0.91070  1.0000 -0.1091177322
C   C222      1.0  0.22760  0.99550  0.41070  1.0000 -0.1091177322
C   C223      1.0  0.27240  0.49550  0.58930  1.0000 -0.1091177322
C   C224      1.0  0.72760  0.00450  0.08930  1.0000 -0.1091177322
C   C225      1.0  0.13250  0.90350  0.02090  1.0000 -0.2827588658
C   C226      1.0  0.01080  0.94050  0.06260  1.0000 -0.3176465857
C   C227      1.0  0.86750  0.59650  0.52090  1.0000 -0.2827588658
C   C228      1.0  0.98920  0.55950  0.56260  1.0000 -0.3176465857
C   C229      1.0  0.63250  0.09650  0.47910  1.0000 -0.2827588658
C   C230      1.0  0.51080  0.05950  0.43740  1.0000 -0.3176465857
C   C231      1.0  0.36750  0.40350  0.97910  1.0000 -0.2827588658
C   C232      1.0  0.48920  0.44050  0.93740  1.0000 -0.3176465857
C   C233      1.0  0.86750  0.09650  0.97910  1.0000 -0.2827588658
C   C234      1.0  0.98920  0.05950  0.93740  1.0000 -0.3176465857
C   C235      1.0  0.13250  0.40350  0.47910  1.0000 -0.2827588658
C   C236      1.0  0.01080  0.44050  0.43740  1.0000 -0.3176465857
C   C237      1.0  0.36750  0.90350  0.52090  1.0000 -0.2827588658
C   C238      1.0  0.48920  0.94050  0.56260  1.0000 -0.3176465857
C   C239      1.0  0.63250  0.59650  0.02090  1.0000 -0.2827588658
C   C240      1.0  0.51080  0.55950  0.06260  1.0000 -0.3176465857
C   C241      1.0  0.29370  0.68750  0.82350  1.0000 -0.2827588658
C   C242      1.0  0.21440  0.70490  0.89810  1.0000 -0.2210160832
C   C243      1.0  0.70630  0.81250  0.32350  1.0000 -0.2827588658
C   C244      1.0  0.78560  0.79510  0.39810  1.0000 -0.2210160832
C   C245      1.0  0.79370  0.31250  0.67650  1.0000 -0.2827588658
C   C246      1.0  0.71440  0.29510  0.60190  1.0000 -0.2210160832
C   C247      1.0  0.20630  0.18750  0.17650  1.0000 -0.2827588658
C   C248      1.0  0.28560  0.20490  0.10190  1.0000 -0.2210160832
C   C249      1.0  0.70630  0.31250  0.17650  1.0000 -0.2827588658
C   C250      1.0  0.78560  0.29510  0.10190  1.0000 -0.2210160832
C   C251      1.0  0.29370  0.18750  0.67650  1.0000 -0.2827588658
C   C252      1.0  0.21440  0.20490  0.60190  1.0000 -0.2210160832
C   C253      1.0  0.20630  0.68750  0.32350  1.0000 -0.2827588658
C   C254      1.0  0.28560  0.70490  0.39810  1.0000 -0.2210160832
C   C255      1.0  0.79370  0.81250  0.82350  1.0000 -0.2827588658
C   C256      1.0  0.71440  0.79510  0.89810  1.0000 -0.2210160832
N   N1        1.0  0.04670  0.88680  0.03410  1.0000 -0.0811498597
N   N2        1.0  0.95330  0.61320  0.53410  1.0000 -0.0811498597
N   N3        1.0  0.54670  0.11320  0.46590  1.0000 -0.0811498597
N   N4        1.0  0.45330  0.38680  0.96590  1.0000 -0.0811498597
N   N5        1.0  0.95330  0.11320  0.96590  1.0000 -0.0811498597
N   N6        1.0  0.04670  0.38680  0.46590  1.0000 -0.0811498597
N   N7        1.0  0.45330  0.88680  0.53410  1.0000 -0.0811498597
N   N8        1.0  0.54670  0.61320  0.03410  1.0000 -0.0811498597
N   N9        1.0  0.25780  0.72860  0.86151  1.0000 -0.0916149333
N   N10       1.0  0.74220  0.77140  0.36151  1.0000 -0.0916149333
N   N11       1.0  0.75780  0.27140  0.63849  1.0000 -0.0916149333
N   N12       1.0  0.24220  0.22860  0.13849  1.0000 -0.0916149333
N   N13       1.0  0.74220  0.27140  0.13849  1.0000 -0.0916149333
N   N14       1.0  0.25780  0.22860  0.63849  1.0000 -0.0916149333
N   N15       1.0  0.24220  0.72860  0.36151  1.0000 -0.0916149333
N   N16       1.0  0.75780  0.77140  0.86151  1.0000 -0.0916149333
O   O1        1.0  0.93460  0.75740  0.90665  1.0000 -0.5468572961
O   O2        1.0  0.06540  0.74260  0.40665  1.0000 -0.5468572961
O   O3        1.0  0.43460  0.24260  0.59335  1.0000 -0.5468572961
O   O4        1.0  0.56540  0.25740  0.09335  1.0000 -0.5468572961
O   O5        1.0  0.05130  0.79484  0.94546  1.0000 -0.5468572961
O   O6        1.0  0.94870  0.70516  0.44546  1.0000 -0.5468572961
O   O7        1.0  0.55130  0.20516  0.55454  1.0000 -0.5468572961
O   O8        1.0  0.44870  0.29484  0.05454  1.0000 -0.5468572961
O   O9        1.0  0.59830  0.39530  0.02550  1.0000 -0.5388397011
O   O10       1.0  0.40170  0.10470  0.52550  1.0000 -0.5388397011
O   O11       1.0  0.09830  0.60470  0.47450  1.0000 -0.5388397011
O   O12       1.0  0.90170  0.89530  0.97450  1.0000 -0.5388397011
O   O13       1.0  0.57810  0.39452  0.10242  1.0000 -0.5388397011
O   O14       1.0  0.42190  0.10548  0.60242  1.0000 -0.5296490113
O   O15       1.0  0.07810  0.60548  0.39758  1.0000 -0.5388397011
O   O16       1.0  0.92190  0.89452  0.89758  1.0000 -0.5388397011
O   O17       1.0  0.87030  0.72387  0.29729  1.0000 -0.5296490113
O   O18       1.0  0.12970  0.77613  0.79729  1.0000 -0.5296490113
O   O19       1.0  0.37030  0.27613  0.20271  1.0000 -0.5296490113
O   O20       1.0  0.62970  0.22387  0.70271  1.0000 -0.5296490113
O   O21       1.0  0.96930  0.65913  0.32464  1.0000 -0.5468572961
O   O22       1.0  0.03070  0.84087  0.82464  1.0000 -0.5388397011
O   O23       1.0  0.46930  0.34087  0.17536  1.0000 -0.5388397011
O   O24       1.0  0.53070  0.15913  0.67536  1.0000 -0.5468572961
O   O25       1.0  0.28520  0.34642  0.11359  1.0000 -0.5296490113
O   O26       1.0  0.71480  0.15358  0.61359  1.0000 -0.5296490113
O   O27       1.0  0.78520  0.65358  0.38641  1.0000 -0.5296490113
O   O28       1.0  0.21480  0.84642  0.88641  1.0000 -0.5296490113
O   O29       1.0  0.37310  0.41892  0.09545  1.0000 -0.5239642713
O   O30       1.0  0.62690  0.08108  0.59545  1.0000 -0.5239642713
O   O31       1.0  0.87310  0.58108  0.40455  1.0000 -0.5239642713
O   O32       1.0  0.12690  0.91892  0.90455  1.0000 -0.5239642713
O   O33       1.0  0.06540  0.24260  0.09335  1.0000 -0.5468572961
O   O34       1.0  0.93460  0.25740  0.59335  1.0000 -0.5468572961
O   O35       1.0  0.56540  0.75740  0.40665  1.0000 -0.5468572961
O   O36       1.0  0.43460  0.74260  0.90665  1.0000 -0.5468572961
O   O37       1.0  0.94870  0.20516  0.05454  1.0000 -0.5468572961
O   O38       1.0  0.05130  0.29484  0.55454  1.0000 -0.5468572961
O   O39       1.0  0.44870  0.79484  0.44546  1.0000 -0.5468572961
O   O40       1.0  0.55130  0.70516  0.94546  1.0000 -0.5468572961
O   O41       1.0  0.40170  0.60470  0.97450  1.0000 -0.5388397011
O   O42       1.0  0.59830  0.89530  0.47450  1.0000 -0.5388397011
O   O43       1.0  0.90170  0.39530  0.52550  1.0000 -0.5388397011
O   O44       1.0  0.09830  0.10470  0.02550  1.0000 -0.5388397011
O   O45       1.0  0.42190  0.60548  0.89758  1.0000 -0.5296490113
O   O46       1.0  0.57810  0.89452  0.39758  1.0000 -0.5388397011
O   O47       1.0  0.92190  0.39452  0.60242  1.0000 -0.5388397011
O   O48       1.0  0.07810  0.10548  0.10242  1.0000 -0.5388397011
O   O49       1.0  0.12970  0.27613  0.70271  1.0000 -0.5296490113
O   O50       1.0  0.87030  0.22387  0.20271  1.0000 -0.5296490113
O   O51       1.0  0.62970  0.72387  0.79729  1.0000 -0.5296490113
O   O52       1.0  0.37030  0.77613  0.29729  1.0000 -0.5296490113
O   O53       1.0  0.03070  0.34087  0.67536  1.0000 -0.5388397011
O   O54       1.0  0.96930  0.15913  0.17536  1.0000 -0.5388397011
O   O55       1.0  0.53070  0.65913  0.82464  1.0000 -0.5388397011
O   O56       1.0  0.46930  0.84087  0.32464  1.0000 -0.5388397011
O   O57       1.0  0.71480  0.65358  0.88641  1.0000 -0.5296490113
O   O58       1.0  0.28520  0.84642  0.38641  1.0000 -0.5296490113
O   O59       1.0  0.21480  0.34642  0.61359  1.0000 -0.5296490113
O   O60       1.0  0.78520  0.15358  0.11359  1.0000 -0.5296490113
O   O61       1.0  0.62690  0.58108  0.90455  1.0000 -0.5239642713
O   O62       1.0  0.37310  0.91892  0.40455  1.0000 -0.5239642713
O   O63       1.0  0.12690  0.41892  0.59545  1.0000 -0.5239642713
O   O64       1.0  0.87310  0.08108  0.09545  1.0000 -0.5239642713
