# DDEC6 charges by PACMAN v1.1 (https://github.com/mtap-research/PACMAN-charge/)
data_2015[CoSi][nan]3[ION]1
_chemical_formula_sum              "Co28 Si8 H240 C288 N96 F96"
_cell_length_a       24.5063
_cell_length_b       24.5063
_cell_length_c       24.5063
_cell_angle_alpha    90
_cell_angle_beta     90
_cell_angle_gamma    90

_symmetry_space_group_name_H-M    "P 1"
_symmetry_Int_Tables_number       1

loop_
  _symmetry_equiv_pos_as_xyz
  'x, y, z'

loop_
  _atom_site_type_symbol
  _atom_site_label
  _atom_site_symmetry_multiplicity
  _atom_site_fract_x
  _atom_site_fract_y
  _atom_site_fract_z
  _atom_site_occupancy
  _atom_site_charge
Co  Co1       1.0  0.89611  0.02906  0.06681  1.0000 0.9144000799
Co  Co2       1.0  0.60389  0.97094  0.56681  1.0000 0.9144000799
Co  Co3       1.0  0.10389  0.52906  0.43319  1.0000 0.9144000799
Co  Co4       1.0  0.39611  0.47094  0.93319  1.0000 0.9144000799
Co  Co5       1.0  0.06681  0.89611  0.02906  1.0000 0.9144000799
Co  Co6       1.0  0.56681  0.60389  0.97094  1.0000 0.9144000799
Co  Co7       1.0  0.43319  0.10389  0.52906  1.0000 0.9144000799
Co  Co8       1.0  0.93319  0.39611  0.47094  1.0000 0.9144000799
Co  Co9       1.0  0.02906  0.06681  0.89611  1.0000 0.9144000799
Co  Co10      1.0  0.97094  0.56681  0.60389  1.0000 0.9144000799
Co  Co11      1.0  0.52906  0.43319  0.10389  1.0000 0.9144000799
Co  Co12      1.0  0.47094  0.93319  0.39611  1.0000 0.9144000799
Co  Co13      1.0  0.10389  0.97094  0.93319  1.0000 0.9144000799
Co  Co14      1.0  0.39611  0.02906  0.43319  1.0000 0.9144000799
Co  Co15      1.0  0.89611  0.47094  0.56681  1.0000 0.9144000799
Co  Co16      1.0  0.60389  0.52906  0.06681  1.0000 0.9144000799
Co  Co17      1.0  0.93319  0.10389  0.97094  1.0000 0.9144000799
Co  Co18      1.0  0.43319  0.39611  0.02906  1.0000 0.9144000799
Co  Co19      1.0  0.56681  0.89611  0.47094  1.0000 0.9144000799
Co  Co20      1.0  0.06681  0.60389  0.52906  1.0000 0.9144000799
Co  Co21      1.0  0.97094  0.93319  0.10389  1.0000 0.9144000799
Co  Co22      1.0  0.02906  0.43319  0.39611  1.0000 0.9144000799
Co  Co23      1.0  0.47094  0.56681  0.89611  1.0000 0.9144000799
Co  Co24      1.0  0.52906  0.06681  0.60389  1.0000 0.9144000799
Co  Co25      1.0  0.00000  0.00000  0.00000  1.0000 1.0621609703
Co  Co26      1.0  0.50000  0.00000  0.50000  1.0000 1.0621609703
Co  Co27      1.0  0.00000  0.50000  0.50000  1.0000 1.0621609703
Co  Co28      1.0  0.50000  0.50000  0.00000  1.0000 1.0621609703
Si  Si1       1.0  0.60600  0.39400  0.89400  1.0000 1.6981491164
Si  Si2       1.0  0.89400  0.60600  0.39400  1.0000 1.6981491164
Si  Si3       1.0  0.39400  0.89400  0.60600  1.0000 1.6981491164
Si  Si4       1.0  0.10600  0.10600  0.10600  1.0000 1.6981491164
Si  Si5       1.0  0.39400  0.60600  0.10600  1.0000 1.6981491164
Si  Si6       1.0  0.10600  0.39400  0.60600  1.0000 1.6981491164
Si  Si7       1.0  0.60600  0.10600  0.39400  1.0000 1.6981491164
Si  Si8       1.0  0.89400  0.89400  0.89400  1.0000 1.6981491164
H   H1        1.0  0.79060  0.09100  0.08210  1.0000 0.1105714891
H   H2        1.0  0.70940  0.90900  0.58210  1.0000 0.1105714891
H   H3        1.0  0.20940  0.59100  0.41790  1.0000 0.1105714891
H   H4        1.0  0.29060  0.40900  0.91790  1.0000 0.1105714891
H   H5        1.0  0.08210  0.79060  0.09100  1.0000 0.1105714891
H   H6        1.0  0.58210  0.70940  0.90900  1.0000 0.1105714891
H   H7        1.0  0.41790  0.20940  0.59100  1.0000 0.1105714891
H   H8        1.0  0.91790  0.29060  0.40900  1.0000 0.1105714891
H   H9        1.0  0.09100  0.08210  0.79060  1.0000 0.1105714891
H   H10       1.0  0.90900  0.58210  0.70940  1.0000 0.1105714891
H   H11       1.0  0.59100  0.41790  0.20940  1.0000 0.1105714891
H   H12       1.0  0.40900  0.91790  0.29060  1.0000 0.1105714891
H   H13       1.0  0.20940  0.90900  0.91790  1.0000 0.1105714891
H   H14       1.0  0.29060  0.09100  0.41790  1.0000 0.1105714891
H   H15       1.0  0.79060  0.40900  0.58210  1.0000 0.1105714891
H   H16       1.0  0.70940  0.59100  0.08210  1.0000 0.1105714891
H   H17       1.0  0.91790  0.20940  0.90900  1.0000 0.1105714891
H   H18       1.0  0.41790  0.29060  0.09100  1.0000 0.1105714891
H   H19       1.0  0.58210  0.79060  0.40900  1.0000 0.1105714891
H   H20       1.0  0.08210  0.70940  0.59100  1.0000 0.1105714891
H   H21       1.0  0.90900  0.91790  0.20940  1.0000 0.1105714891
H   H22       1.0  0.09100  0.41790  0.29060  1.0000 0.1105714891
H   H23       1.0  0.40900  0.58210  0.79060  1.0000 0.1105714891
H   H24       1.0  0.59100  0.08210  0.70940  1.0000 0.1105714891
H   H25       1.0  0.75270  0.16310  0.12910  1.0000 0.1327589977
H   H26       1.0  0.74730  0.83690  0.62910  1.0000 0.1327589977
H   H27       1.0  0.24730  0.66310  0.37090  1.0000 0.1327589977
H   H28       1.0  0.25270  0.33690  0.87090  1.0000 0.1327589977
H   H29       1.0  0.12910  0.75270  0.16310  1.0000 0.1327589977
H   H30       1.0  0.62910  0.74730  0.83690  1.0000 0.1327589977
H   H31       1.0  0.37090  0.24730  0.66310  1.0000 0.1327589977
H   H32       1.0  0.87090  0.25270  0.33690  1.0000 0.1327589977
H   H33       1.0  0.16310  0.12910  0.75270  1.0000 0.1327589977
H   H34       1.0  0.83690  0.62910  0.74730  1.0000 0.1327589977
H   H35       1.0  0.66310  0.37090  0.24730  1.0000 0.1327589977
H   H36       1.0  0.33690  0.87090  0.25270  1.0000 0.1327589977
H   H37       1.0  0.24730  0.83690  0.87090  1.0000 0.1327589977
H   H38       1.0  0.25270  0.16310  0.37090  1.0000 0.1327589977
H   H39       1.0  0.75270  0.33690  0.62910  1.0000 0.1327589977
H   H40       1.0  0.74730  0.66310  0.12910  1.0000 0.1327589977
H   H41       1.0  0.87090  0.24730  0.83690  1.0000 0.1327589977
H   H42       1.0  0.37090  0.25270  0.16310  1.0000 0.1327589977
H   H43       1.0  0.62910  0.75270  0.33690  1.0000 0.1327589977
H   H44       1.0  0.12910  0.74730  0.66310  1.0000 0.1327589977
H   H45       1.0  0.83690  0.87090  0.24730  1.0000 0.1327589977
H   H46       1.0  0.16310  0.37090  0.25270  1.0000 0.1327589977
H   H47       1.0  0.33690  0.62910  0.75270  1.0000 0.1327589977
H   H48       1.0  0.66310  0.12910  0.74730  1.0000 0.1327589977
H   H49       1.0  0.90250  0.19230  0.19330  1.0000 0.1396761552
H   H50       1.0  0.59750  0.80770  0.69330  1.0000 0.1396761552
H   H51       1.0  0.09750  0.69230  0.30670  1.0000 0.1396761552
H   H52       1.0  0.40250  0.30770  0.80670  1.0000 0.1396761552
H   H53       1.0  0.19330  0.90250  0.19230  1.0000 0.1396761552
H   H54       1.0  0.69330  0.59750  0.80770  1.0000 0.1396761552
H   H55       1.0  0.30670  0.09750  0.69230  1.0000 0.1396761552
H   H56       1.0  0.80670  0.40250  0.30770  1.0000 0.1396761552
H   H57       1.0  0.19230  0.19330  0.90250  1.0000 0.1396761552
H   H58       1.0  0.80770  0.69330  0.59750  1.0000 0.1396761552
H   H59       1.0  0.69230  0.30670  0.09750  1.0000 0.1396761552
H   H60       1.0  0.30770  0.80670  0.40250  1.0000 0.1396761552
H   H61       1.0  0.09750  0.80770  0.80670  1.0000 0.1396761552
H   H62       1.0  0.40250  0.19230  0.30670  1.0000 0.1396761552
H   H63       1.0  0.90250  0.30770  0.69330  1.0000 0.1396761552
H   H64       1.0  0.59750  0.69230  0.19330  1.0000 0.1396761552
H   H65       1.0  0.80670  0.09750  0.80770  1.0000 0.1396761552
H   H66       1.0  0.30670  0.40250  0.19230  1.0000 0.1396761552
H   H67       1.0  0.69330  0.90250  0.30770  1.0000 0.1396761552
H   H68       1.0  0.19330  0.59750  0.69230  1.0000 0.1396761552
H   H69       1.0  0.80770  0.80670  0.09750  1.0000 0.1396761552
H   H70       1.0  0.19230  0.30670  0.40250  1.0000 0.1396761552
H   H71       1.0  0.30770  0.69330  0.90250  1.0000 0.1396761552
H   H72       1.0  0.69230  0.19330  0.59750  1.0000 0.1396761552
H   H73       1.0  0.93410  0.11560  0.14860  1.0000 0.1396761552
H   H74       1.0  0.56590  0.88440  0.64860  1.0000 0.1396761552
H   H75       1.0  0.06590  0.61560  0.35140  1.0000 0.1396761552
H   H76       1.0  0.43410  0.38440  0.85140  1.0000 0.1396761552
H   H77       1.0  0.14860  0.93410  0.11560  1.0000 0.1396761552
H   H78       1.0  0.64860  0.56590  0.88440  1.0000 0.1396761552
H   H79       1.0  0.35140  0.06590  0.61560  1.0000 0.1396761552
H   H80       1.0  0.85140  0.43410  0.38440  1.0000 0.1396761552
H   H81       1.0  0.11560  0.14860  0.93410  1.0000 0.1396761552
H   H82       1.0  0.88440  0.64860  0.56590  1.0000 0.1396761552
H   H83       1.0  0.61560  0.35140  0.06590  1.0000 0.1396761552
H   H84       1.0  0.38440  0.85140  0.43410  1.0000 0.1396761552
H   H85       1.0  0.06590  0.88440  0.85140  1.0000 0.1396761552
H   H86       1.0  0.43410  0.11560  0.35140  1.0000 0.1396761552
H   H87       1.0  0.93410  0.38440  0.64860  1.0000 0.1396761552
H   H88       1.0  0.56590  0.61560  0.14860  1.0000 0.1396761552
H   H89       1.0  0.85140  0.06590  0.88440  1.0000 0.1396761552
H   H90       1.0  0.35140  0.43410  0.11560  1.0000 0.1396761552
H   H91       1.0  0.64860  0.93410  0.38440  1.0000 0.1396761552
H   H92       1.0  0.14860  0.56590  0.61560  1.0000 0.1396761552
H   H93       1.0  0.88440  0.85140  0.06590  1.0000 0.1396761552
H   H94       1.0  0.11560  0.35140  0.43410  1.0000 0.1396761552
H   H95       1.0  0.38440  0.64860  0.93410  1.0000 0.1396761552
H   H96       1.0  0.61560  0.14860  0.56590  1.0000 0.1396761552
H   H97       1.0  0.80710  0.96230  0.00580  1.0000 0.1564751432
H   H98       1.0  0.69290  0.03770  0.50580  1.0000 0.1564751432
H   H99       1.0  0.19290  0.46230  0.49420  1.0000 0.1564751432
H   H100      1.0  0.30710  0.53770  0.99420  1.0000 0.1564751432
H   H101      1.0  0.00580  0.80710  0.96230  1.0000 0.1564751432
H   H102      1.0  0.50580  0.69290  0.03770  1.0000 0.1564751432
H   H103      1.0  0.49420  0.19290  0.46230  1.0000 0.1564751432
H   H104      1.0  0.99420  0.30710  0.53770  1.0000 0.1564751432
H   H105      1.0  0.96230  0.00580  0.80710  1.0000 0.1564751432
H   H106      1.0  0.03770  0.50580  0.69290  1.0000 0.1564751432
H   H107      1.0  0.46230  0.49420  0.19290  1.0000 0.1564751432
H   H108      1.0  0.53770  0.99420  0.30710  1.0000 0.1564751432
H   H109      1.0  0.19290  0.03770  0.99420  1.0000 0.1564751432
H   H110      1.0  0.30710  0.96230  0.49420  1.0000 0.1564751432
H   H111      1.0  0.80710  0.53770  0.50580  1.0000 0.1564751432
H   H112      1.0  0.69290  0.46230  0.00580  1.0000 0.1564751432
H   H113      1.0  0.99420  0.19290  0.03770  1.0000 0.1564751432
H   H114      1.0  0.49420  0.30710  0.96230  1.0000 0.1564751432
H   H115      1.0  0.50580  0.80710  0.53770  1.0000 0.1564751432
H   H116      1.0  0.00580  0.69290  0.46230  1.0000 0.1564751432
H   H117      1.0  0.03770  0.99420  0.19290  1.0000 0.1564751432
H   H118      1.0  0.96230  0.49420  0.30710  1.0000 0.1564751432
H   H119      1.0  0.53770  0.50580  0.80710  1.0000 0.1564751432
H   H120      1.0  0.46230  0.00580  0.69290  1.0000 0.1564751432
H   H121      1.0  0.72620  0.91840  0.02210  1.0000 0.1481264622
H   H122      1.0  0.77380  0.08160  0.52210  1.0000 0.1481264622
H   H123      1.0  0.27380  0.41840  0.47790  1.0000 0.1481264622
H   H124      1.0  0.22620  0.58160  0.97790  1.0000 0.1481264622
H   H125      1.0  0.02210  0.72620  0.91840  1.0000 0.1481264622
H   H126      1.0  0.52210  0.77380  0.08160  1.0000 0.1481264622
H   H127      1.0  0.47790  0.27380  0.41840  1.0000 0.1481264622
H   H128      1.0  0.97790  0.22620  0.58160  1.0000 0.1481264622
H   H129      1.0  0.91840  0.02210  0.72620  1.0000 0.1481264622
H   H130      1.0  0.08160  0.52210  0.77380  1.0000 0.1481264622
H   H131      1.0  0.41840  0.47790  0.27380  1.0000 0.1481264622
H   H132      1.0  0.58160  0.97790  0.22620  1.0000 0.1481264622
H   H133      1.0  0.27380  0.08160  0.97790  1.0000 0.1481264622
H   H134      1.0  0.22620  0.91840  0.47790  1.0000 0.1481264622
H   H135      1.0  0.72620  0.58160  0.52210  1.0000 0.1481264622
H   H136      1.0  0.77380  0.41840  0.02210  1.0000 0.1481264622
H   H137      1.0  0.97790  0.27380  0.08160  1.0000 0.1481264622
H   H138      1.0  0.47790  0.22620  0.91840  1.0000 0.1481264622
H   H139      1.0  0.52210  0.72620  0.58160  1.0000 0.1481264622
H   H140      1.0  0.02210  0.77380  0.41840  1.0000 0.1481264622
H   H141      1.0  0.08160  0.97790  0.27380  1.0000 0.1481264622
H   H142      1.0  0.91840  0.47790  0.22620  1.0000 0.1481264622
H   H143      1.0  0.58160  0.52210  0.72620  1.0000 0.1481264622
H   H144      1.0  0.41840  0.02210  0.77380  1.0000 0.1481264622
H   H145      1.0  0.74060  0.95660  0.18080  1.0000 0.1327589977
H   H146      1.0  0.75940  0.04340  0.68080  1.0000 0.1327589977
H   H147      1.0  0.25940  0.45660  0.31920  1.0000 0.1327589977
H   H148      1.0  0.24060  0.54340  0.81920  1.0000 0.1327589977
H   H149      1.0  0.18080  0.74060  0.95660  1.0000 0.1327589977
H   H150      1.0  0.68080  0.75940  0.04340  1.0000 0.1327589977
H   H151      1.0  0.31920  0.25940  0.45660  1.0000 0.1327589977
H   H152      1.0  0.81920  0.24060  0.54340  1.0000 0.1327589977
H   H153      1.0  0.95660  0.18080  0.74060  1.0000 0.1327589977
H   H154      1.0  0.04340  0.68080  0.75940  1.0000 0.1327589977
H   H155      1.0  0.45660  0.31920  0.25940  1.0000 0.1327589977
H   H156      1.0  0.54340  0.81920  0.24060  1.0000 0.1327589977
H   H157      1.0  0.25940  0.04340  0.81920  1.0000 0.1327589977
H   H158      1.0  0.24060  0.95660  0.31920  1.0000 0.1327589977
H   H159      1.0  0.74060  0.54340  0.68080  1.0000 0.1327589977
H   H160      1.0  0.75940  0.45660  0.18080  1.0000 0.1327589977
H   H161      1.0  0.81920  0.25940  0.04340  1.0000 0.1327589977
H   H162      1.0  0.31920  0.24060  0.95660  1.0000 0.1327589977
H   H163      1.0  0.68080  0.74060  0.54340  1.0000 0.1327589977
H   H164      1.0  0.18080  0.75940  0.45660  1.0000 0.1327589977
H   H165      1.0  0.04340  0.81920  0.25940  1.0000 0.1327589977
H   H166      1.0  0.95660  0.31920  0.24060  1.0000 0.1327589977
H   H167      1.0  0.54340  0.68080  0.74060  1.0000 0.1327589977
H   H168      1.0  0.45660  0.18080  0.75940  1.0000 0.1327589977
H   H169      1.0  0.82210  0.99860  0.16090  1.0000 0.1105714891
H   H170      1.0  0.67790  0.00140  0.66090  1.0000 0.1105714891
H   H171      1.0  0.17790  0.49860  0.33910  1.0000 0.1105714891
H   H172      1.0  0.32210  0.50140  0.83910  1.0000 0.1105714891
H   H173      1.0  0.16090  0.82210  0.99860  1.0000 0.1105714891
H   H174      1.0  0.66090  0.67790  0.00140  1.0000 0.1105714891
H   H175      1.0  0.33910  0.17790  0.49860  1.0000 0.1105714891
H   H176      1.0  0.83910  0.32210  0.50140  1.0000 0.1105714891
H   H177      1.0  0.99860  0.16090  0.82210  1.0000 0.1105714891
H   H178      1.0  0.00140  0.66090  0.67790  1.0000 0.1105714891
H   H179      1.0  0.49860  0.33910  0.17790  1.0000 0.1105714891
H   H180      1.0  0.50140  0.83910  0.32210  1.0000 0.1105714891
H   H181      1.0  0.17790  0.00140  0.83910  1.0000 0.1105714891
H   H182      1.0  0.32210  0.99860  0.33910  1.0000 0.1105714891
H   H183      1.0  0.82210  0.50140  0.66090  1.0000 0.1105714891
H   H184      1.0  0.67790  0.49860  0.16090  1.0000 0.1105714891
H   H185      1.0  0.83910  0.17790  0.00140  1.0000 0.1105714891
H   H186      1.0  0.33910  0.32210  0.99860  1.0000 0.1105714891
H   H187      1.0  0.66090  0.82210  0.50140  1.0000 0.1105714891
H   H188      1.0  0.16090  0.67790  0.49860  1.0000 0.1105714891
H   H189      1.0  0.00140  0.83910  0.17790  1.0000 0.1105714891
H   H190      1.0  0.99860  0.33910  0.32210  1.0000 0.1105714891
H   H191      1.0  0.50140  0.66090  0.82210  1.0000 0.1105714891
H   H192      1.0  0.49860  0.16090  0.67790  1.0000 0.1105714891
H   H193      1.0  0.73840  0.24710  0.14070  1.0000 0.2902602047
H   H194      1.0  0.76160  0.75290  0.64070  1.0000 0.2902602047
H   H195      1.0  0.26160  0.74710  0.35930  1.0000 0.2902602047
H   H196      1.0  0.23840  0.25290  0.85930  1.0000 0.2902602047
H   H197      1.0  0.14070  0.73840  0.24710  1.0000 0.2902602047
H   H198      1.0  0.64070  0.76160  0.75290  1.0000 0.2902602047
H   H199      1.0  0.35930  0.26160  0.74710  1.0000 0.2902602047
H   H200      1.0  0.85930  0.23840  0.25290  1.0000 0.2902602047
H   H201      1.0  0.24710  0.14070  0.73840  1.0000 0.2902602047
H   H202      1.0  0.75290  0.64070  0.76160  1.0000 0.2902602047
H   H203      1.0  0.74710  0.35930  0.26160  1.0000 0.2902602047
H   H204      1.0  0.25290  0.85930  0.23840  1.0000 0.2902602047
H   H205      1.0  0.26160  0.75290  0.85930  1.0000 0.2902602047
H   H206      1.0  0.23840  0.24710  0.35930  1.0000 0.2902602047
H   H207      1.0  0.73840  0.25290  0.64070  1.0000 0.2902602047
H   H208      1.0  0.76160  0.74710  0.14070  1.0000 0.2902602047
H   H209      1.0  0.85930  0.26160  0.75290  1.0000 0.2902602047
H   H210      1.0  0.35930  0.23840  0.24710  1.0000 0.2902602047
H   H211      1.0  0.64070  0.73840  0.25290  1.0000 0.2902602047
H   H212      1.0  0.14070  0.76160  0.74710  1.0000 0.2902602047
H   H213      1.0  0.75290  0.85930  0.26160  1.0000 0.2902602047
H   H214      1.0  0.24710  0.35930  0.23840  1.0000 0.2902602047
H   H215      1.0  0.25290  0.64070  0.73840  1.0000 0.2902602047
H   H216      1.0  0.74710  0.14070  0.76160  1.0000 0.2902602047
H   H217      1.0  0.65420  0.94590  0.18170  1.0000 0.3035128132
H   H218      1.0  0.84580  0.05410  0.68170  1.0000 0.3035128132
H   H219      1.0  0.34580  0.44590  0.31830  1.0000 0.3035128132
H   H220      1.0  0.15420  0.55410  0.81830  1.0000 0.3035128132
H   H221      1.0  0.18170  0.65420  0.94590  1.0000 0.3035128132
H   H222      1.0  0.68170  0.84580  0.05410  1.0000 0.3035128132
H   H223      1.0  0.31830  0.34580  0.44590  1.0000 0.3035128132
H   H224      1.0  0.81830  0.15420  0.55410  1.0000 0.3035128132
H   H225      1.0  0.94590  0.18170  0.65420  1.0000 0.3035128132
H   H226      1.0  0.05410  0.68170  0.84580  1.0000 0.3035128132
H   H227      1.0  0.44590  0.31830  0.34580  1.0000 0.3035128132
H   H228      1.0  0.55410  0.81830  0.15420  1.0000 0.3035128132
H   H229      1.0  0.34580  0.05410  0.81830  1.0000 0.3035128132
H   H230      1.0  0.15420  0.94590  0.31830  1.0000 0.3035128132
H   H231      1.0  0.65420  0.55410  0.68170  1.0000 0.3035128132
H   H232      1.0  0.84580  0.44590  0.18170  1.0000 0.3035128132
H   H233      1.0  0.81830  0.34580  0.05410  1.0000 0.3035128132
H   H234      1.0  0.31830  0.15420  0.94590  1.0000 0.3035128132
H   H235      1.0  0.68170  0.65420  0.55410  1.0000 0.3035128132
H   H236      1.0  0.18170  0.84580  0.44590  1.0000 0.3035128132
H   H237      1.0  0.05410  0.81830  0.34580  1.0000 0.3035128132
H   H238      1.0  0.94590  0.31830  0.15420  1.0000 0.3035128132
H   H239      1.0  0.55410  0.68170  0.65420  1.0000 0.3035128132
H   H240      1.0  0.44590  0.18170  0.84580  1.0000 0.3035128132
C   C1        1.0  0.81340  0.11150  0.10580  1.0000 0.0860982177
C   C2        1.0  0.68660  0.88850  0.60580  1.0000 0.0860982177
C   C3        1.0  0.18660  0.61150  0.39420  1.0000 0.0860982177
C   C4        1.0  0.31340  0.38850  0.89420  1.0000 0.0860982177
C   C5        1.0  0.10580  0.81340  0.11150  1.0000 0.0860982177
C   C6        1.0  0.60580  0.68660  0.88850  1.0000 0.0860982177
C   C7        1.0  0.39420  0.18660  0.61150  1.0000 0.0860982177
C   C8        1.0  0.89420  0.31340  0.38850  1.0000 0.0860982177
C   C9        1.0  0.11150  0.10580  0.81340  1.0000 0.0860982177
C   C10       1.0  0.88850  0.60580  0.68660  1.0000 0.0860982177
C   C11       1.0  0.61150  0.39420  0.18660  1.0000 0.0860982177
C   C12       1.0  0.38850  0.89420  0.31340  1.0000 0.0860982177
C   C13       1.0  0.18660  0.88850  0.89420  1.0000 0.0860982177
C   C14       1.0  0.31340  0.11150  0.39420  1.0000 0.0860982177
C   C15       1.0  0.81340  0.38850  0.60580  1.0000 0.0860982177
C   C16       1.0  0.68660  0.61150  0.10580  1.0000 0.0860982177
C   C17       1.0  0.89420  0.18660  0.88850  1.0000 0.0860982177
C   C18       1.0  0.39420  0.31340  0.11150  1.0000 0.0860982177
C   C19       1.0  0.60580  0.81340  0.38850  1.0000 0.0860982177
C   C20       1.0  0.10580  0.68660  0.61150  1.0000 0.0860982177
C   C21       1.0  0.88850  0.89420  0.18660  1.0000 0.0860982177
C   C22       1.0  0.11150  0.39420  0.31340  1.0000 0.0860982177
C   C23       1.0  0.38850  0.60580  0.81340  1.0000 0.0860982177
C   C24       1.0  0.61150  0.10580  0.68660  1.0000 0.0860982177
C   C25       1.0  0.79050  0.15510  0.13260  1.0000 -0.2176019996
C   C26       1.0  0.70950  0.84490  0.63260  1.0000 -0.2176019996
C   C27       1.0  0.20950  0.65510  0.36740  1.0000 -0.2176019996
C   C28       1.0  0.29050  0.34490  0.86740  1.0000 -0.2176019996
C   C29       1.0  0.13260  0.79050  0.15510  1.0000 -0.2176019996
C   C30       1.0  0.63260  0.70950  0.84490  1.0000 -0.2176019996
C   C31       1.0  0.36740  0.20950  0.65510  1.0000 -0.2176019996
C   C32       1.0  0.86740  0.29050  0.34490  1.0000 -0.2176019996
C   C33       1.0  0.15510  0.13260  0.79050  1.0000 -0.2176019996
C   C34       1.0  0.84490  0.63260  0.70950  1.0000 -0.2176019996
C   C35       1.0  0.65510  0.36740  0.20950  1.0000 -0.2176019996
C   C36       1.0  0.34490  0.86740  0.29050  1.0000 -0.2176019996
C   C37       1.0  0.20950  0.84490  0.86740  1.0000 -0.2176019996
C   C38       1.0  0.29050  0.15510  0.36740  1.0000 -0.2176019996
C   C39       1.0  0.79050  0.34490  0.63260  1.0000 -0.2176019996
C   C40       1.0  0.70950  0.65510  0.13260  1.0000 -0.2176019996
C   C41       1.0  0.86740  0.20950  0.84490  1.0000 -0.2176019996
C   C42       1.0  0.36740  0.29050  0.15510  1.0000 -0.2176019996
C   C43       1.0  0.63260  0.79050  0.34490  1.0000 -0.2176019996
C   C44       1.0  0.13260  0.70950  0.65510  1.0000 -0.2176019996
C   C45       1.0  0.84490  0.86740  0.20950  1.0000 -0.2176019996
C   C46       1.0  0.15510  0.36740  0.29050  1.0000 -0.2176019996
C   C47       1.0  0.34490  0.63260  0.79050  1.0000 -0.2176019996
C   C48       1.0  0.65510  0.13260  0.70950  1.0000 -0.2176019996
C   C49       1.0  0.82490  0.18770  0.16550  1.0000 0.0399365338
C   C50       1.0  0.67510  0.81230  0.66550  1.0000 0.0399365338
C   C51       1.0  0.17510  0.68770  0.33450  1.0000 0.0399365338
C   C52       1.0  0.32490  0.31230  0.83450  1.0000 0.0399365338
C   C53       1.0  0.16550  0.82490  0.18770  1.0000 0.0399365338
C   C54       1.0  0.66550  0.67510  0.81230  1.0000 0.0399365338
C   C55       1.0  0.33450  0.17510  0.68770  1.0000 0.0399365338
C   C56       1.0  0.83450  0.32490  0.31230  1.0000 0.0399365338
C   C57       1.0  0.18770  0.16550  0.82490  1.0000 0.0399365338
C   C58       1.0  0.81230  0.66550  0.67510  1.0000 0.0399365338
C   C59       1.0  0.68770  0.33450  0.17510  1.0000 0.0399365338
C   C60       1.0  0.31230  0.83450  0.32490  1.0000 0.0399365338
C   C61       1.0  0.17510  0.81230  0.83450  1.0000 0.0399365338
C   C62       1.0  0.32490  0.18770  0.33450  1.0000 0.0399365338
C   C63       1.0  0.82490  0.31230  0.66550  1.0000 0.0399365338
C   C64       1.0  0.67510  0.68770  0.16550  1.0000 0.0399365338
C   C65       1.0  0.83450  0.17510  0.81230  1.0000 0.0399365338
C   C66       1.0  0.33450  0.32490  0.18770  1.0000 0.0399365338
C   C67       1.0  0.66550  0.82490  0.31230  1.0000 0.0399365338
C   C68       1.0  0.16550  0.67510  0.68770  1.0000 0.0399365338
C   C69       1.0  0.81230  0.83450  0.17510  1.0000 0.0399365338
C   C70       1.0  0.18770  0.33450  0.32490  1.0000 0.0399365338
C   C71       1.0  0.31230  0.66550  0.82490  1.0000 0.0399365338
C   C72       1.0  0.68770  0.16550  0.67510  1.0000 0.0399365338
C   C73       1.0  0.87840  0.17190  0.17090  1.0000 -0.1900145011
C   C74       1.0  0.62160  0.82810  0.67090  1.0000 -0.1900145011
C   C75       1.0  0.12160  0.67190  0.32910  1.0000 -0.1900145011
C   C76       1.0  0.37840  0.32810  0.82910  1.0000 -0.1900145011
C   C77       1.0  0.17090  0.87840  0.17190  1.0000 -0.1900145011
C   C78       1.0  0.67090  0.62160  0.82810  1.0000 -0.1900145011
C   C79       1.0  0.32910  0.12160  0.67190  1.0000 -0.1900145011
C   C80       1.0  0.82910  0.37840  0.32810  1.0000 -0.1900145011
C   C81       1.0  0.17190  0.17090  0.87840  1.0000 -0.1900145011
C   C82       1.0  0.82810  0.67090  0.62160  1.0000 -0.1900145011
C   C83       1.0  0.67190  0.32910  0.12160  1.0000 -0.1900145011
C   C84       1.0  0.32810  0.82910  0.37840  1.0000 -0.1900145011
C   C85       1.0  0.12160  0.82810  0.82910  1.0000 -0.1900145011
C   C86       1.0  0.37840  0.17190  0.32910  1.0000 -0.1900145011
C   C87       1.0  0.87840  0.32810  0.67090  1.0000 -0.1900145011
C   C88       1.0  0.62160  0.67190  0.17090  1.0000 -0.1900145011
C   C89       1.0  0.82910  0.12160  0.82810  1.0000 -0.1900145011
C   C90       1.0  0.32910  0.37840  0.17190  1.0000 -0.1900145011
C   C91       1.0  0.67090  0.87840  0.32810  1.0000 -0.1900145011
C   C92       1.0  0.17090  0.62160  0.67190  1.0000 -0.1900145011
C   C93       1.0  0.82810  0.82910  0.12160  1.0000 -0.1900145011
C   C94       1.0  0.17190  0.32910  0.37840  1.0000 -0.1900145011
C   C95       1.0  0.32810  0.67090  0.87840  1.0000 -0.1900145011
C   C96       1.0  0.67190  0.17090  0.62160  1.0000 -0.1900145011
C   C97       1.0  0.89710  0.12610  0.14380  1.0000 0.1105714891
C   C98       1.0  0.60290  0.87390  0.64380  1.0000 0.1105714891
C   C99       1.0  0.10290  0.62610  0.35620  1.0000 0.1105714891
C   C100      1.0  0.39710  0.37390  0.85620  1.0000 0.1105714891
C   C101      1.0  0.14380  0.89710  0.12610  1.0000 0.1105714891
C   C102      1.0  0.64380  0.60290  0.87390  1.0000 0.1105714891
C   C103      1.0  0.35620  0.10290  0.62610  1.0000 0.1105714891
C   C104      1.0  0.85620  0.39710  0.37390  1.0000 0.1105714891
C   C105      1.0  0.12610  0.14380  0.89710  1.0000 0.1105714891
C   C106      1.0  0.87390  0.64380  0.60290  1.0000 0.1105714891
C   C107      1.0  0.62610  0.35620  0.10290  1.0000 0.1105714891
C   C108      1.0  0.37390  0.85620  0.39710  1.0000 0.1105714891
C   C109      1.0  0.10290  0.87390  0.85620  1.0000 0.1105714891
C   C110      1.0  0.39710  0.12610  0.35620  1.0000 0.1105714891
C   C111      1.0  0.89710  0.37390  0.64380  1.0000 0.1105714891
C   C112      1.0  0.60290  0.62610  0.14380  1.0000 0.1105714891
C   C113      1.0  0.85620  0.10290  0.87390  1.0000 0.1105714891
C   C114      1.0  0.35620  0.39710  0.12610  1.0000 0.1105714891
C   C115      1.0  0.64380  0.89710  0.37390  1.0000 0.1105714891
C   C116      1.0  0.14380  0.60290  0.62610  1.0000 0.1105714891
C   C117      1.0  0.87390  0.85620  0.10290  1.0000 0.1105714891
C   C118      1.0  0.12610  0.35620  0.39710  1.0000 0.1105714891
C   C119      1.0  0.37390  0.64380  0.89710  1.0000 0.1105714891
C   C120      1.0  0.62610  0.14380  0.60290  1.0000 0.1105714891
C   C121      1.0  0.79350  0.96130  0.04200  1.0000 0.1048466281
C   C122      1.0  0.70650  0.03870  0.54200  1.0000 0.1048466281
C   C123      1.0  0.20650  0.46130  0.45800  1.0000 0.1048466281
C   C124      1.0  0.29350  0.53870  0.95800  1.0000 0.1048466281
C   C125      1.0  0.04200  0.79350  0.96130  1.0000 0.1048466281
C   C126      1.0  0.54200  0.70650  0.03870  1.0000 0.1048466281
C   C127      1.0  0.45800  0.20650  0.46130  1.0000 0.1048466281
C   C128      1.0  0.95800  0.29350  0.53870  1.0000 0.1048466281
C   C129      1.0  0.96130  0.04200  0.79350  1.0000 0.1048466281
C   C130      1.0  0.03870  0.54200  0.70650  1.0000 0.1048466281
C   C131      1.0  0.46130  0.45800  0.20650  1.0000 0.1048466281
C   C132      1.0  0.53870  0.95800  0.29350  1.0000 0.1048466281
C   C133      1.0  0.20650  0.03870  0.95800  1.0000 0.1048466281
C   C134      1.0  0.29350  0.96130  0.45800  1.0000 0.1048466281
C   C135      1.0  0.79350  0.53870  0.54200  1.0000 0.1048466281
C   C136      1.0  0.70650  0.46130  0.04200  1.0000 0.1048466281
C   C137      1.0  0.95800  0.20650  0.03870  1.0000 0.1048466281
C   C138      1.0  0.45800  0.29350  0.96130  1.0000 0.1048466281
C   C139      1.0  0.54200  0.79350  0.53870  1.0000 0.1048466281
C   C140      1.0  0.04200  0.70650  0.46130  1.0000 0.1048466281
C   C141      1.0  0.03870  0.95800  0.20650  1.0000 0.1048466281
C   C142      1.0  0.96130  0.45800  0.29350  1.0000 0.1048466281
C   C143      1.0  0.53870  0.54200  0.79350  1.0000 0.1048466281
C   C144      1.0  0.46130  0.04200  0.70650  1.0000 0.1048466281
C   C145      1.0  0.74540  0.93470  0.05150  1.0000 -0.1797580629
C   C146      1.0  0.75460  0.06530  0.55150  1.0000 -0.1797580629
C   C147      1.0  0.25460  0.43470  0.44850  1.0000 -0.1797580629
C   C148      1.0  0.24540  0.56530  0.94850  1.0000 -0.1797580629
C   C149      1.0  0.05150  0.74540  0.93470  1.0000 -0.1797580629
C   C150      1.0  0.55150  0.75460  0.06530  1.0000 -0.1797580629
C   C151      1.0  0.44850  0.25460  0.43470  1.0000 -0.1797580629
C   C152      1.0  0.94850  0.24540  0.56530  1.0000 -0.1797580629
C   C153      1.0  0.93470  0.05150  0.74540  1.0000 -0.1797580629
C   C154      1.0  0.06530  0.55150  0.75460  1.0000 -0.1797580629
C   C155      1.0  0.43470  0.44850  0.25460  1.0000 -0.1797580629
C   C156      1.0  0.56530  0.94850  0.24540  1.0000 -0.1797580629
C   C157      1.0  0.25460  0.06530  0.94850  1.0000 -0.1797580629
C   C158      1.0  0.24540  0.93470  0.44850  1.0000 -0.1797580629
C   C159      1.0  0.74540  0.56530  0.55150  1.0000 -0.1797580629
C   C160      1.0  0.75460  0.43470  0.05150  1.0000 -0.1797580629
C   C161      1.0  0.94850  0.25460  0.06530  1.0000 -0.1797580629
C   C162      1.0  0.44850  0.24540  0.93470  1.0000 -0.1797580629
C   C163      1.0  0.55150  0.74540  0.56530  1.0000 -0.1797580629
C   C164      1.0  0.05150  0.75460  0.43470  1.0000 -0.1797580629
C   C165      1.0  0.06530  0.94850  0.25460  1.0000 -0.1797580629
C   C166      1.0  0.93470  0.44850  0.24540  1.0000 -0.1797580629
C   C167      1.0  0.56530  0.55150  0.74540  1.0000 -0.1797580629
C   C168      1.0  0.43470  0.05150  0.75460  1.0000 -0.1797580629
C   C169      1.0  0.72480  0.93160  0.10320  1.0000 0.0399365338
C   C170      1.0  0.77520  0.06840  0.60320  1.0000 0.0399365338
C   C171      1.0  0.27520  0.43160  0.39680  1.0000 0.0399365338
C   C172      1.0  0.22480  0.56840  0.89680  1.0000 0.0399365338
C   C173      1.0  0.10320  0.72480  0.93160  1.0000 0.0399365338
C   C174      1.0  0.60320  0.77520  0.06840  1.0000 0.0399365338
C   C175      1.0  0.39680  0.27520  0.43160  1.0000 0.0399365338
C   C176      1.0  0.89680  0.22480  0.56840  1.0000 0.0399365338
C   C177      1.0  0.93160  0.10320  0.72480  1.0000 0.0399365338
C   C178      1.0  0.06840  0.60320  0.77520  1.0000 0.0399365338
C   C179      1.0  0.43160  0.39680  0.27520  1.0000 0.0399365338
C   C180      1.0  0.56840  0.89680  0.22480  1.0000 0.0399365338
C   C181      1.0  0.27520  0.06840  0.89680  1.0000 0.0399365338
C   C182      1.0  0.22480  0.93160  0.39680  1.0000 0.0399365338
C   C183      1.0  0.72480  0.56840  0.60320  1.0000 0.0399365338
C   C184      1.0  0.77520  0.43160  0.10320  1.0000 0.0399365338
C   C185      1.0  0.89680  0.27520  0.06840  1.0000 0.0399365338
C   C186      1.0  0.39680  0.22480  0.93160  1.0000 0.0399365338
C   C187      1.0  0.60320  0.72480  0.56840  1.0000 0.0399365338
C   C188      1.0  0.10320  0.77520  0.43160  1.0000 0.0399365338
C   C189      1.0  0.06840  0.89680  0.27520  1.0000 0.0399365338
C   C190      1.0  0.93160  0.39680  0.22480  1.0000 0.0399365338
C   C191      1.0  0.56840  0.60320  0.72480  1.0000 0.0399365338
C   C192      1.0  0.43160  0.10320  0.77520  1.0000 0.0399365338
C   C193      1.0  0.75380  0.95690  0.14430  1.0000 -0.2132778841
C   C194      1.0  0.74620  0.04310  0.64430  1.0000 -0.2132778841
C   C195      1.0  0.24620  0.45690  0.35570  1.0000 -0.2132778841
C   C196      1.0  0.25380  0.54310  0.85570  1.0000 -0.2132778841
C   C197      1.0  0.14430  0.75380  0.95690  1.0000 -0.2132778841
C   C198      1.0  0.64430  0.74620  0.04310  1.0000 -0.2132778841
C   C199      1.0  0.35570  0.24620  0.45690  1.0000 -0.2132778841
C   C200      1.0  0.85570  0.25380  0.54310  1.0000 -0.2132778841
C   C201      1.0  0.95690  0.14430  0.75380  1.0000 -0.2132778841
C   C202      1.0  0.04310  0.64430  0.74620  1.0000 -0.2132778841
C   C203      1.0  0.45690  0.35570  0.24620  1.0000 -0.2132778841
C   C204      1.0  0.54310  0.85570  0.25380  1.0000 -0.2132778841
C   C205      1.0  0.24620  0.04310  0.85570  1.0000 -0.2132778841
C   C206      1.0  0.25380  0.95690  0.35570  1.0000 -0.2132778841
C   C207      1.0  0.75380  0.54310  0.64430  1.0000 -0.2132778841
C   C208      1.0  0.74620  0.45690  0.14430  1.0000 -0.2132778841
C   C209      1.0  0.85570  0.24620  0.04310  1.0000 -0.2132778841
C   C210      1.0  0.35570  0.25380  0.95690  1.0000 -0.2132778841
C   C211      1.0  0.64430  0.75380  0.54310  1.0000 -0.2132778841
C   C212      1.0  0.14430  0.74620  0.45690  1.0000 -0.2132778841
C   C213      1.0  0.04310  0.85570  0.24620  1.0000 -0.2132778841
C   C214      1.0  0.95690  0.35570  0.25380  1.0000 -0.2132778841
C   C215      1.0  0.54310  0.64430  0.75380  1.0000 -0.2132778841
C   C216      1.0  0.45690  0.14430  0.74620  1.0000 -0.2132778841
C   C217      1.0  0.80210  0.98250  0.13180  1.0000 0.0811351243
C   C218      1.0  0.69790  0.01750  0.63180  1.0000 0.0811351243
C   C219      1.0  0.19790  0.48250  0.36820  1.0000 0.0811351243
C   C220      1.0  0.30210  0.51750  0.86820  1.0000 0.0811351243
C   C221      1.0  0.13180  0.80210  0.98250  1.0000 0.0811351243
C   C222      1.0  0.63180  0.69790  0.01750  1.0000 0.0811351243
C   C223      1.0  0.36820  0.19790  0.48250  1.0000 0.0811351243
C   C224      1.0  0.86820  0.30210  0.51750  1.0000 0.0811351243
C   C225      1.0  0.98250  0.13180  0.80210  1.0000 0.0811351243
C   C226      1.0  0.01750  0.63180  0.69790  1.0000 0.0811351243
C   C227      1.0  0.48250  0.36820  0.19790  1.0000 0.0811351243
C   C228      1.0  0.51750  0.86820  0.30210  1.0000 0.0811351243
C   C229      1.0  0.19790  0.01750  0.86820  1.0000 0.0811351243
C   C230      1.0  0.30210  0.98250  0.36820  1.0000 0.0811351243
C   C231      1.0  0.80210  0.51750  0.63180  1.0000 0.0811351243
C   C232      1.0  0.69790  0.48250  0.13180  1.0000 0.0811351243
C   C233      1.0  0.86820  0.19790  0.01750  1.0000 0.0811351243
C   C234      1.0  0.36820  0.30210  0.98250  1.0000 0.0811351243
C   C235      1.0  0.63180  0.80210  0.51750  1.0000 0.0811351243
C   C236      1.0  0.13180  0.69790  0.48250  1.0000 0.0811351243
C   C237      1.0  0.01750  0.86820  0.19790  1.0000 0.0811351243
C   C238      1.0  0.98250  0.36820  0.30210  1.0000 0.0811351243
C   C239      1.0  0.51750  0.63180  0.80210  1.0000 0.0811351243
C   C240      1.0  0.48250  0.13180  0.69790  1.0000 0.0811351243
C   C241      1.0  0.80230  0.23630  0.19260  1.0000 0.1327589977
C   C242      1.0  0.69770  0.76370  0.69260  1.0000 0.1327589977
C   C243      1.0  0.19770  0.73630  0.30740  1.0000 0.1327589977
C   C244      1.0  0.30230  0.26370  0.80740  1.0000 0.1327589977
C   C245      1.0  0.19260  0.80230  0.23630  1.0000 0.1327589977
C   C246      1.0  0.69260  0.69770  0.76370  1.0000 0.1327589977
C   C247      1.0  0.30740  0.19770  0.73630  1.0000 0.1327589977
C   C248      1.0  0.80740  0.30230  0.26370  1.0000 0.1327589977
C   C249      1.0  0.23630  0.19260  0.80230  1.0000 0.1327589977
C   C250      1.0  0.76370  0.69260  0.69770  1.0000 0.1327589977
C   C251      1.0  0.73630  0.30740  0.19770  1.0000 0.1327589977
C   C252      1.0  0.26370  0.80740  0.30230  1.0000 0.1327589977
C   C253      1.0  0.19770  0.76370  0.80740  1.0000 0.1327589977
C   C254      1.0  0.30230  0.23630  0.30740  1.0000 0.1327589977
C   C255      1.0  0.80230  0.26370  0.69260  1.0000 0.1327589977
C   C256      1.0  0.69770  0.73630  0.19260  1.0000 0.1327589977
C   C257      1.0  0.80740  0.19770  0.76370  1.0000 0.1327589977
C   C258      1.0  0.30740  0.30230  0.23630  1.0000 0.1327589977
C   C259      1.0  0.69260  0.80230  0.26370  1.0000 0.1327589977
C   C260      1.0  0.19260  0.69770  0.73630  1.0000 0.1327589977
C   C261      1.0  0.76370  0.80740  0.19770  1.0000 0.1327589977
C   C262      1.0  0.23630  0.30740  0.30230  1.0000 0.1327589977
C   C263      1.0  0.26370  0.69260  0.80230  1.0000 0.1327589977
C   C264      1.0  0.73630  0.19260  0.69770  1.0000 0.1327589977
C   C265      1.0  0.67490  0.90080  0.11570  1.0000 0.1396761552
C   C266      1.0  0.82510  0.09920  0.61570  1.0000 0.1396761552
C   C267      1.0  0.32510  0.40080  0.38430  1.0000 0.1396761552
C   C268      1.0  0.17490  0.59920  0.88430  1.0000 0.1396761552
C   C269      1.0  0.11570  0.67490  0.90080  1.0000 0.1396761552
C   C270      1.0  0.61570  0.82510  0.09920  1.0000 0.1396761552
C   C271      1.0  0.38430  0.32510  0.40080  1.0000 0.1396761552
C   C272      1.0  0.88430  0.17490  0.59920  1.0000 0.1396761552
C   C273      1.0  0.90080  0.11570  0.67490  1.0000 0.1396761552
C   C274      1.0  0.09920  0.61570  0.82510  1.0000 0.1396761552
C   C275      1.0  0.40080  0.38430  0.32510  1.0000 0.1396761552
C   C276      1.0  0.59920  0.88430  0.17490  1.0000 0.1396761552
C   C277      1.0  0.32510  0.09920  0.88430  1.0000 0.1396761552
C   C278      1.0  0.17490  0.90080  0.38430  1.0000 0.1396761552
C   C279      1.0  0.67490  0.59920  0.61570  1.0000 0.1396761552
C   C280      1.0  0.82510  0.40080  0.11570  1.0000 0.1396761552
C   C281      1.0  0.88430  0.32510  0.09920  1.0000 0.1396761552
C   C282      1.0  0.38430  0.17490  0.90080  1.0000 0.1396761552
C   C283      1.0  0.61570  0.67490  0.59920  1.0000 0.1396761552
C   C284      1.0  0.11570  0.82510  0.40080  1.0000 0.1396761552
C   C285      1.0  0.09920  0.88430  0.32510  1.0000 0.1396761552
C   C286      1.0  0.90080  0.38430  0.17490  1.0000 0.1396761552
C   C287      1.0  0.59920  0.61570  0.67490  1.0000 0.1396761552
C   C288      1.0  0.40080  0.11570  0.82510  1.0000 0.1396761552
N   N1        1.0  0.82280  0.98620  0.08170  1.0000 -0.2176019996
N   N2        1.0  0.67720  0.01380  0.58170  1.0000 -0.2176019996
N   N3        1.0  0.17720  0.48620  0.41830  1.0000 -0.2176019996
N   N4        1.0  0.32280  0.51380  0.91830  1.0000 -0.2176019996
N   N5        1.0  0.08170  0.82280  0.98620  1.0000 -0.2176019996
N   N6        1.0  0.58170  0.67720  0.01380  1.0000 -0.2176019996
N   N7        1.0  0.41830  0.17720  0.48620  1.0000 -0.2176019996
N   N8        1.0  0.91830  0.32280  0.51380  1.0000 -0.2176019996
N   N9        1.0  0.98620  0.08170  0.82280  1.0000 -0.2176019996
N   N10       1.0  0.01380  0.58170  0.67720  1.0000 -0.2176019996
N   N11       1.0  0.48620  0.41830  0.17720  1.0000 -0.2176019996
N   N12       1.0  0.51380  0.91830  0.32280  1.0000 -0.2176019996
N   N13       1.0  0.17720  0.01380  0.91830  1.0000 -0.2176019996
N   N14       1.0  0.32280  0.98620  0.41830  1.0000 -0.2176019996
N   N15       1.0  0.82280  0.51380  0.58170  1.0000 -0.2176019996
N   N16       1.0  0.67720  0.48620  0.08170  1.0000 -0.2176019996
N   N17       1.0  0.91830  0.17720  0.01380  1.0000 -0.2176019996
N   N18       1.0  0.41830  0.32280  0.98620  1.0000 -0.2176019996
N   N19       1.0  0.58170  0.82280  0.51380  1.0000 -0.2176019996
N   N20       1.0  0.08170  0.67720  0.48620  1.0000 -0.2176019996
N   N21       1.0  0.01380  0.91830  0.17720  1.0000 -0.2176019996
N   N22       1.0  0.98620  0.41830  0.32280  1.0000 -0.2176019996
N   N23       1.0  0.51380  0.58170  0.82280  1.0000 -0.2176019996
N   N24       1.0  0.48620  0.08170  0.67720  1.0000 -0.2176019996
N   N25       1.0  0.86520  0.09580  0.11080  1.0000 -0.2132778841
N   N26       1.0  0.63480  0.90420  0.61080  1.0000 -0.2132778841
N   N27       1.0  0.13480  0.59580  0.38920  1.0000 -0.2132778841
N   N28       1.0  0.36520  0.40420  0.88920  1.0000 -0.2132778841
N   N29       1.0  0.11080  0.86520  0.09580  1.0000 -0.2132778841
N   N30       1.0  0.61080  0.63480  0.90420  1.0000 -0.2132778841
N   N31       1.0  0.38920  0.13480  0.59580  1.0000 -0.2132778841
N   N32       1.0  0.88920  0.36520  0.40420  1.0000 -0.2132778841
N   N33       1.0  0.09580  0.11080  0.86520  1.0000 -0.2132778841
N   N34       1.0  0.90420  0.61080  0.63480  1.0000 -0.2132778841
N   N35       1.0  0.59580  0.38920  0.13480  1.0000 -0.2132778841
N   N36       1.0  0.40420  0.88920  0.36520  1.0000 -0.2132778841
N   N37       1.0  0.13480  0.90420  0.88920  1.0000 -0.2132778841
N   N38       1.0  0.36520  0.09580  0.38920  1.0000 -0.2132778841
N   N39       1.0  0.86520  0.40420  0.61080  1.0000 -0.2132778841
N   N40       1.0  0.63480  0.59580  0.11080  1.0000 -0.2132778841
N   N41       1.0  0.88920  0.13480  0.90420  1.0000 -0.2132778841
N   N42       1.0  0.38920  0.36520  0.09580  1.0000 -0.2132778841
N   N43       1.0  0.61080  0.86520  0.40420  1.0000 -0.2132778841
N   N44       1.0  0.11080  0.63480  0.59580  1.0000 -0.2132778841
N   N45       1.0  0.90420  0.88920  0.13480  1.0000 -0.2132778841
N   N46       1.0  0.09580  0.38920  0.36520  1.0000 -0.2132778841
N   N47       1.0  0.40420  0.61080  0.86520  1.0000 -0.2132778841
N   N48       1.0  0.59580  0.11080  0.63480  1.0000 -0.2132778841
N   N49       1.0  0.75620  0.26140  0.17200  1.0000 -0.3587173854
N   N50       1.0  0.74380  0.73860  0.67200  1.0000 -0.3587173854
N   N51       1.0  0.24380  0.76140  0.32800  1.0000 -0.3587173854
N   N52       1.0  0.25620  0.23860  0.82800  1.0000 -0.3587173854
N   N53       1.0  0.17200  0.75620  0.26140  1.0000 -0.3587173854
N   N54       1.0  0.67200  0.74380  0.73860  1.0000 -0.3587173854
N   N55       1.0  0.32800  0.24380  0.76140  1.0000 -0.3587173854
N   N56       1.0  0.82800  0.25620  0.23860  1.0000 -0.3587173854
N   N57       1.0  0.26140  0.17200  0.75620  1.0000 -0.3587173854
N   N58       1.0  0.73860  0.67200  0.74380  1.0000 -0.3587173854
N   N59       1.0  0.76140  0.32800  0.24380  1.0000 -0.3587173854
N   N60       1.0  0.23860  0.82800  0.25620  1.0000 -0.3587173854
N   N61       1.0  0.24380  0.73860  0.82800  1.0000 -0.3587173854
N   N62       1.0  0.25620  0.26140  0.32800  1.0000 -0.3587173854
N   N63       1.0  0.75620  0.23860  0.67200  1.0000 -0.3587173854
N   N64       1.0  0.74380  0.76140  0.17200  1.0000 -0.3587173854
N   N65       1.0  0.82800  0.24380  0.73860  1.0000 -0.3587173854
N   N66       1.0  0.32800  0.25620  0.26140  1.0000 -0.3587173854
N   N67       1.0  0.67200  0.75620  0.23860  1.0000 -0.3587173854
N   N68       1.0  0.17200  0.74380  0.76140  1.0000 -0.3587173854
N   N69       1.0  0.73860  0.82800  0.24380  1.0000 -0.3587173854
N   N70       1.0  0.26140  0.32800  0.25620  1.0000 -0.3587173854
N   N71       1.0  0.23860  0.67200  0.75620  1.0000 -0.3587173854
N   N72       1.0  0.76140  0.17200  0.74380  1.0000 -0.3587173854
N   N73       1.0  0.64430  0.91500  0.16050  1.0000 -0.3587173854
N   N74       1.0  0.85570  0.08500  0.66050  1.0000 -0.3587173854
N   N75       1.0  0.35570  0.41500  0.33950  1.0000 -0.3587173854
N   N76       1.0  0.14430  0.58500  0.83950  1.0000 -0.3587173854
N   N77       1.0  0.16050  0.64430  0.91500  1.0000 -0.3587173854
N   N78       1.0  0.66050  0.85570  0.08500  1.0000 -0.3587173854
N   N79       1.0  0.33950  0.35570  0.41500  1.0000 -0.3587173854
N   N80       1.0  0.83950  0.14430  0.58500  1.0000 -0.3587173854
N   N81       1.0  0.91500  0.16050  0.64430  1.0000 -0.3587173854
N   N82       1.0  0.08500  0.66050  0.85570  1.0000 -0.3587173854
N   N83       1.0  0.41500  0.33950  0.35570  1.0000 -0.3587173854
N   N84       1.0  0.58500  0.83950  0.14430  1.0000 -0.3587173854
N   N85       1.0  0.35570  0.08500  0.83950  1.0000 -0.3587173854
N   N86       1.0  0.14430  0.91500  0.33950  1.0000 -0.3587173854
N   N87       1.0  0.64430  0.58500  0.66050  1.0000 -0.3587173854
N   N88       1.0  0.85570  0.41500  0.16050  1.0000 -0.3587173854
N   N89       1.0  0.83950  0.35570  0.08500  1.0000 -0.3587173854
N   N90       1.0  0.33950  0.14430  0.91500  1.0000 -0.3587173854
N   N91       1.0  0.66050  0.64430  0.58500  1.0000 -0.3587173854
N   N92       1.0  0.16050  0.85570  0.41500  1.0000 -0.3587173854
N   N93       1.0  0.08500  0.83950  0.35570  1.0000 -0.3587173854
N   N94       1.0  0.91500  0.33950  0.14430  1.0000 -0.3587173854
N   N95       1.0  0.58500  0.66050  0.64430  1.0000 -0.3587173854
N   N96       1.0  0.41500  0.16050  0.85570  1.0000 -0.3587173854
F   F1        1.0  0.86540  0.06370  0.99780  1.0000 -0.5834528639
F   F2        1.0  0.63460  0.93630  0.49780  1.0000 -0.5834528639
F   F3        1.0  0.13460  0.56370  0.50220  1.0000 -0.5834528639
F   F4        1.0  0.36540  0.43630  0.00220  1.0000 -0.5834528639
F   F5        1.0  0.99780  0.86540  0.06370  1.0000 -0.5834528639
F   F6        1.0  0.49780  0.63460  0.93630  1.0000 -0.5834528639
F   F7        1.0  0.50220  0.13460  0.56370  1.0000 -0.5834528639
F   F8        1.0  0.00220  0.36540  0.43630  1.0000 -0.5834528639
F   F9        1.0  0.06370  0.99780  0.86540  1.0000 -0.5834528639
F   F10       1.0  0.93630  0.49780  0.63460  1.0000 -0.5834528639
F   F11       1.0  0.56370  0.50220  0.13460  1.0000 -0.5834528639
F   F12       1.0  0.43630  0.00220  0.36540  1.0000 -0.5834528639
F   F13       1.0  0.13460  0.93630  0.00220  1.0000 -0.5834528639
F   F14       1.0  0.36540  0.06370  0.50220  1.0000 -0.5834528639
F   F15       1.0  0.86540  0.43630  0.49780  1.0000 -0.5834528639
F   F16       1.0  0.63460  0.56370  0.99780  1.0000 -0.5834528639
F   F17       1.0  0.00220  0.13460  0.93630  1.0000 -0.5834528639
F   F18       1.0  0.50220  0.36540  0.06370  1.0000 -0.5834528639
F   F19       1.0  0.49780  0.86540  0.43630  1.0000 -0.5834528639
F   F20       1.0  0.99780  0.63460  0.56370  1.0000 -0.5834528639
F   F21       1.0  0.93630  0.00220  0.13460  1.0000 -0.5834528639
F   F22       1.0  0.06370  0.50220  0.36540  1.0000 -0.5834528639
F   F23       1.0  0.43630  0.49780  0.86540  1.0000 -0.5834528639
F   F24       1.0  0.56370  0.99780  0.63460  1.0000 -0.5834528639
F   F25       1.0  0.93280  0.96170  0.03160  1.0000 -0.5289782966
F   F26       1.0  0.56720  0.03830  0.53160  1.0000 -0.5289782966
F   F27       1.0  0.06720  0.46170  0.46840  1.0000 -0.5289782966
F   F28       1.0  0.43280  0.53830  0.96840  1.0000 -0.5289782966
F   F29       1.0  0.03160  0.93280  0.96170  1.0000 -0.5289782966
F   F30       1.0  0.53160  0.56720  0.03830  1.0000 -0.5289782966
F   F31       1.0  0.46840  0.06720  0.46170  1.0000 -0.5289782966
F   F32       1.0  0.96840  0.43280  0.53830  1.0000 -0.5289782966
F   F33       1.0  0.96170  0.03160  0.93280  1.0000 -0.5289782966
F   F34       1.0  0.03830  0.53160  0.56720  1.0000 -0.5289782966
F   F35       1.0  0.46170  0.46840  0.06720  1.0000 -0.5289782966
F   F36       1.0  0.53830  0.96840  0.43280  1.0000 -0.5289782966
F   F37       1.0  0.06720  0.03830  0.96840  1.0000 -0.5289782966
F   F38       1.0  0.43280  0.96170  0.46840  1.0000 -0.5289782966
F   F39       1.0  0.93280  0.53830  0.53160  1.0000 -0.5289782966
F   F40       1.0  0.56720  0.46170  0.03160  1.0000 -0.5289782966
F   F41       1.0  0.96840  0.06720  0.03830  1.0000 -0.5289782966
F   F42       1.0  0.46840  0.43280  0.96170  1.0000 -0.5289782966
F   F43       1.0  0.53160  0.93280  0.53830  1.0000 -0.5289782966
F   F44       1.0  0.03160  0.56720  0.46170  1.0000 -0.5289782966
F   F45       1.0  0.03830  0.96840  0.06720  1.0000 -0.5289782966
F   F46       1.0  0.96170  0.46840  0.43280  1.0000 -0.5289782966
F   F47       1.0  0.53830  0.53160  0.93280  1.0000 -0.5289782966
F   F48       1.0  0.46170  0.03160  0.56720  1.0000 -0.5289782966
F   F49       1.0  0.60100  0.38590  0.96020  1.0000 -0.472806662
F   F50       1.0  0.53980  0.39900  0.88590  1.0000 -0.472806662
F   F51       1.0  0.61410  0.46020  0.89900  1.0000 -0.472806662
F   F52       1.0  0.67580  0.38990  0.89690  1.0000 -0.5226192757
F   F53       1.0  0.60310  0.32420  0.88990  1.0000 -0.5226192757
F   F54       1.0  0.61010  0.39690  0.82420  1.0000 -0.5226192757
F   F55       1.0  0.89900  0.61410  0.46020  1.0000 -0.472806662
F   F56       1.0  0.96020  0.60100  0.38590  1.0000 -0.472806662
F   F57       1.0  0.88590  0.53980  0.39900  1.0000 -0.472806662
F   F58       1.0  0.82420  0.61010  0.39690  1.0000 -0.5226192757
F   F59       1.0  0.89690  0.67580  0.38990  1.0000 -0.5226192757
F   F60       1.0  0.88990  0.60310  0.32420  1.0000 -0.5226192757
F   F61       1.0  0.39900  0.88590  0.53980  1.0000 -0.472806662
F   F62       1.0  0.46020  0.89900  0.61410  1.0000 -0.472806662
F   F63       1.0  0.38590  0.96020  0.60100  1.0000 -0.472806662
F   F64       1.0  0.32420  0.88990  0.60310  1.0000 -0.5226192757
F   F65       1.0  0.39690  0.82420  0.61010  1.0000 -0.5226192757
F   F66       1.0  0.38990  0.89690  0.67580  1.0000 -0.5226192757
F   F67       1.0  0.10100  0.11410  0.03980  1.0000 -0.472806662
F   F68       1.0  0.03980  0.10100  0.11410  1.0000 -0.472806662
F   F69       1.0  0.11410  0.03980  0.10100  1.0000 -0.472806662
F   F70       1.0  0.17580  0.11010  0.10310  1.0000 -0.5226192757
F   F71       1.0  0.10310  0.17580  0.11010  1.0000 -0.5226192757
F   F72       1.0  0.11010  0.10310  0.17580  1.0000 -0.5226192757
F   F73       1.0  0.39900  0.61410  0.03980  1.0000 -0.472806662
F   F74       1.0  0.46020  0.60100  0.11410  1.0000 -0.472806662
F   F75       1.0  0.38590  0.53980  0.10100  1.0000 -0.472806662
F   F76       1.0  0.32420  0.61010  0.10310  1.0000 -0.5226192757
F   F77       1.0  0.39690  0.67580  0.11010  1.0000 -0.5226192757
F   F78       1.0  0.38990  0.60310  0.17580  1.0000 -0.5226192757
F   F79       1.0  0.10100  0.38590  0.53980  1.0000 -0.472806662
F   F80       1.0  0.03980  0.39900  0.61410  1.0000 -0.472806662
F   F81       1.0  0.11410  0.46020  0.60100  1.0000 -0.472806662
F   F82       1.0  0.17580  0.38990  0.60310  1.0000 -0.5226192757
F   F83       1.0  0.10310  0.32420  0.61010  1.0000 -0.5226192757
F   F84       1.0  0.11010  0.39690  0.67580  1.0000 -0.5226192757
F   F85       1.0  0.60100  0.11410  0.46020  1.0000 -0.472806662
F   F86       1.0  0.53980  0.10100  0.38590  1.0000 -0.472806662
F   F87       1.0  0.61410  0.03980  0.39900  1.0000 -0.472806662
F   F88       1.0  0.67580  0.11010  0.39690  1.0000 -0.5226192757
F   F89       1.0  0.60310  0.17580  0.38990  1.0000 -0.5226192757
F   F90       1.0  0.61010  0.10310  0.32420  1.0000 -0.5226192757
F   F91       1.0  0.89900  0.88590  0.96020  1.0000 -0.472806662
F   F92       1.0  0.96020  0.89900  0.88590  1.0000 -0.472806662
F   F93       1.0  0.88590  0.96020  0.89900  1.0000 -0.472806662
F   F94       1.0  0.82420  0.88990  0.89690  1.0000 -0.5226192757
F   F95       1.0  0.89690  0.82420  0.88990  1.0000 -0.5226192757
F   F96       1.0  0.88990  0.89690  0.82420  1.0000 -0.5226192757
