# DDEC6 charges by PACMAN v1.1 (https://github.com/mtap-research/PACMAN-charge/)
data_2015[Cd][nan]3[ION]2
_chemical_formula_sum              "Cd4 H108 C100 N8 O40"
_cell_length_a       10.031
_cell_length_b       14.541
_cell_length_c       23.562
_cell_angle_alpha    90
_cell_angle_beta     96.381
_cell_angle_gamma    90

_symmetry_space_group_name_H-M    "P 1"
_symmetry_Int_Tables_number       1

loop_
  _symmetry_equiv_pos_as_xyz
  'x, y, z'

loop_
  _atom_site_type_symbol
  _atom_site_label
  _atom_site_symmetry_multiplicity
  _atom_site_fract_x
  _atom_site_fract_y
  _atom_site_fract_z
  _atom_site_occupancy
  _atom_site_charge
Cd  Cd1       1.0  0.56192  0.46391  0.68055  1.0000 0.9352301489
Cd  Cd2       1.0  0.43808  0.96391  0.81945  1.0000 0.9352301489
Cd  Cd3       1.0  0.43808  0.53609  0.31945  1.0000 0.9352301489
Cd  Cd4       1.0  0.56192  0.03609  0.18055  1.0000 0.9352301489
H   H1        1.0  0.05930  0.47890  0.67640  1.0000 0.1212880354
H   H2        1.0  0.94070  0.97890  0.82360  1.0000 0.1212880354
H   H3        1.0  0.94070  0.52110  0.32360  1.0000 0.1212880354
H   H4        1.0  0.05930  0.02110  0.17640  1.0000 0.1212880354
H   H5        1.0  0.23930  0.69130  0.60900  1.0000 0.1374583702
H   H6        1.0  0.76070  0.19130  0.89100  1.0000 0.1374583702
H   H7        1.0  0.76070  0.30870  0.39100  1.0000 0.1374583702
H   H8        1.0  0.23930  0.80870  0.10900  1.0000 0.1374583702
H   H9        1.0  0.83970  0.68360  0.59830  1.0000 0.1114164486
H   H10       1.0  0.16030  0.18360  0.90170  1.0000 0.1114164486
H   H11       1.0  0.16030  0.31640  0.40170  1.0000 0.1114164486
H   H12       1.0  0.83970  0.81640  0.09830  1.0000 0.1114164486
H   H13       1.0  0.86850  0.79320  0.52690  1.0000 0.1003938187
H   H14       1.0  0.13150  0.29320  0.97310  1.0000 0.1003938187
H   H15       1.0  0.13150  0.20680  0.47310  1.0000 0.1003938187
H   H16       1.0  0.86850  0.70680  0.02690  1.0000 0.1003938187
H   H17       1.0  0.88030  0.83940  0.58740  1.0000 0.1114164486
H   H18       1.0  0.11970  0.33940  0.91260  1.0000 0.1114164486
H   H19       1.0  0.11970  0.16060  0.41260  1.0000 0.1114164486
H   H20       1.0  0.88030  0.66060  0.08740  1.0000 0.1114164486
H   H21       1.0  0.14430  0.87930  0.51500  1.0000 0.1212880354
H   H22       1.0  0.85570  0.37930  0.98500  1.0000 0.1212880354
H   H23       1.0  0.85570  0.12070  0.48500  1.0000 0.1212880354
H   H24       1.0  0.14430  0.62070  0.01500  1.0000 0.1212880354
H   H25       1.0  0.67990  0.04490  0.51880  1.0000 0.1003938187
H   H26       1.0  0.32010  0.54490  0.98120  1.0000 0.1003938187
H   H27       1.0  0.32010  0.95510  0.48120  1.0000 0.1003938187
H   H28       1.0  0.67990  0.45510  0.01880  1.0000 0.1003938187
H   H29       1.0  0.73510  0.99580  0.57580  1.0000 0.1114164486
H   H30       1.0  0.26490  0.49580  0.92420  1.0000 0.1114164486
H   H31       1.0  0.26490  0.00420  0.42420  1.0000 0.1114164486
H   H32       1.0  0.73510  0.50420  0.07580  1.0000 0.1114164486
H   H33       1.0  0.55850  0.77160  0.47210  1.0000 0.1374583702
H   H34       1.0  0.44150  0.27160  0.02790  1.0000 0.1374583702
H   H35       1.0  0.44150  0.22840  0.52790  1.0000 0.1374583702
H   H36       1.0  0.55850  0.72840  0.97210  1.0000 0.1374583702
H   H37       1.0  0.50990  0.85160  0.30810  1.0000 0.1281054703
H   H38       1.0  0.49010  0.35160  0.19190  1.0000 0.1281054703
H   H39       1.0  0.49010  0.14840  0.69190  1.0000 0.1212880354
H   H40       1.0  0.50990  0.64840  0.80810  1.0000 0.1212880354
H   H41       1.0  0.66667  0.02480  0.42830  1.0000 0.1212880354
H   H42       1.0  0.33340  0.52480  0.07170  1.0000 0.1212880354
H   H43       1.0  0.33340  0.97520  0.57170  1.0000 0.1212880354
H   H44       1.0  0.66667  0.47520  0.92830  1.0000 0.1212880354
H   H45       1.0  0.86970  0.79680  0.95260  1.0000 0.1114164486
H   H46       1.0  0.86330  0.85530  0.89650  1.0000 0.1374583702
H   H47       1.0  0.94490  0.89130  0.95270  1.0000 0.1212880354
H   H48       1.0  0.99620  0.74620  0.83070  1.0000 0.1374583702
H   H49       1.0  0.92120  0.68880  0.87360  1.0000 0.1212880354
H   H50       1.0  0.07320  0.67010  0.86840  1.0000 0.1212880354
H   H51       1.0  0.10090  0.82980  0.90170  1.0000 0.2478742506
H   H52       1.0  0.08680  0.76050  0.94530  1.0000 0.2404541913
H   H53       1.0  0.13030  0.29680  0.54740  1.0000 0.1114164486
H   H54       1.0  0.13670  0.35530  0.60350  1.0000 0.1374583702
H   H55       1.0  0.05510  0.39130  0.54730  1.0000 0.1212880354
H   H56       1.0  0.00380  0.24620  0.66930  1.0000 0.1374583702
H   H57       1.0  0.07880  0.18880  0.62640  1.0000 0.1212880354
H   H58       1.0  0.92680  0.17010  0.63160  1.0000 0.1212880354
H   H59       1.0  0.89910  0.32980  0.59830  1.0000 0.2478742506
H   H60       1.0  0.91320  0.26050  0.55470  1.0000 0.2404541913
H   H61       1.0  0.13030  0.20320  0.04740  1.0000 0.1114164486
H   H62       1.0  0.13670  0.14470  0.10350  1.0000 0.1374583702
H   H63       1.0  0.05510  0.10870  0.04730  1.0000 0.1212880354
H   H64       1.0  0.00380  0.25380  0.16930  1.0000 0.1374583702
H   H65       1.0  0.07880  0.31120  0.12640  1.0000 0.1212880354
H   H66       1.0  0.92680  0.32990  0.13160  1.0000 0.1212880354
H   H67       1.0  0.89910  0.17020  0.09830  1.0000 0.2478742506
H   H68       1.0  0.91320  0.23950  0.05470  1.0000 0.2404541913
H   H69       1.0  0.86970  0.70320  0.45260  1.0000 0.1114164486
H   H70       1.0  0.86330  0.64470  0.39650  1.0000 0.1374583702
H   H71       1.0  0.94490  0.60870  0.45270  1.0000 0.1212880354
H   H72       1.0  0.99620  0.75380  0.33070  1.0000 0.1374583702
H   H73       1.0  0.92120  0.81120  0.37360  1.0000 0.1212880354
H   H74       1.0  0.07320  0.82990  0.36840  1.0000 0.1212880354
H   H75       1.0  0.10090  0.67020  0.40170  1.0000 0.2478742506
H   H76       1.0  0.08680  0.73950  0.44530  1.0000 0.2404541913
H   H77       1.0  0.27950  0.23600  0.78110  1.0000 0.1212880354
H   H78       1.0  0.37990  0.28530  0.74470  1.0000 0.1374583702
H   H79       1.0  0.31570  0.33980  0.79220  1.0000 0.1281054703
H   H80       1.0  0.40590  0.33740  0.88600  1.0000 0.1114164486
H   H81       1.0  0.53200  0.27840  0.90790  1.0000 0.1281054703
H   H82       1.0  0.38930  0.23300  0.90020  1.0000 0.1281054703
H   H83       1.0  0.47670  0.19200  0.82270  1.0000 0.2585980277
H   H84       1.0  0.54030  0.28050  0.81570  1.0000 0.2585980277
H   H85       1.0  0.72050  0.73600  0.71890  1.0000 0.1212880354
H   H86       1.0  0.62010  0.78530  0.75530  1.0000 0.1374583702
H   H87       1.0  0.68430  0.83980  0.70780  1.0000 0.1281054703
H   H88       1.0  0.59410  0.83740  0.61400  1.0000 0.1114164486
H   H89       1.0  0.46800  0.77840  0.59210  1.0000 0.1281054703
H   H90       1.0  0.61070  0.73300  0.59980  1.0000 0.1281054703
H   H91       1.0  0.52330  0.69200  0.67730  1.0000 0.2585980277
H   H92       1.0  0.45970  0.78050  0.68430  1.0000 0.2585980277
H   H93       1.0  0.72050  0.76400  0.21890  1.0000 0.1212880354
H   H94       1.0  0.62010  0.71470  0.25530  1.0000 0.1374583702
H   H95       1.0  0.68430  0.66020  0.20780  1.0000 0.1281054703
H   H96       1.0  0.59410  0.66260  0.11400  1.0000 0.1114164486
H   H97       1.0  0.46800  0.72160  0.09210  1.0000 0.1281054703
H   H98       1.0  0.61070  0.76700  0.09980  1.0000 0.1281054703
H   H99       1.0  0.52330  0.80800  0.17730  1.0000 0.2585980277
H   H100      1.0  0.45970  0.71950  0.18430  1.0000 0.2585980277
H   H101      1.0  0.27950  0.26400  0.28110  1.0000 0.1212880354
H   H102      1.0  0.37990  0.21470  0.24470  1.0000 0.1374583702
H   H103      1.0  0.31570  0.16020  0.29220  1.0000 0.1281054703
H   H104      1.0  0.40590  0.16260  0.38600  1.0000 0.1114164486
H   H105      1.0  0.53200  0.22160  0.40790  1.0000 0.1281054703
H   H106      1.0  0.38930  0.26700  0.40020  1.0000 0.1281054703
H   H107      1.0  0.47670  0.30800  0.32270  1.0000 0.2585980277
H   H108      1.0  0.54030  0.21950  0.31570  1.0000 0.2585980277
C   C1        1.0  0.80470  0.53050  0.65490  1.0000 0.5283151399
C   C2        1.0  0.19530  0.03050  0.84510  1.0000 0.5283151399
C   C3        1.0  0.19530  0.46950  0.34510  1.0000 0.5283151399
C   C4        1.0  0.80470  0.96950  0.15490  1.0000 0.5283151399
C   C5        1.0  0.92990  0.57460  0.64030  1.0000 -0.0054041222
C   C6        1.0  0.07010  0.07460  0.85970  1.0000 -0.0054041222
C   C7        1.0  0.07010  0.42540  0.35970  1.0000 -0.0054041222
C   C8        1.0  0.92990  0.92540  0.14030  1.0000 -0.0054041222
C   C9        1.0  0.05410  0.53430  0.65660  1.0000 -0.1495298179
C   C10       1.0  0.94590  0.03430  0.84340  1.0000 -0.1495298179
C   C11       1.0  0.94590  0.46570  0.34340  1.0000 -0.1495298179
C   C12       1.0  0.05410  0.96570  0.15660  1.0000 -0.1495298179
C   C13       1.0  0.16920  0.57700  0.64340  1.0000 0.0115866749
C   C14       1.0  0.83080  0.07700  0.85660  1.0000 0.0115866749
C   C15       1.0  0.83080  0.42300  0.35660  1.0000 0.0115866749
C   C16       1.0  0.16920  0.92300  0.14340  1.0000 0.0115866749
C   C17       1.0  0.16120  0.66030  0.61540  1.0000 -0.2108062376
C   C18       1.0  0.83880  0.16030  0.88460  1.0000 -0.2108062376
C   C19       1.0  0.83880  0.33970  0.38460  1.0000 -0.2108062376
C   C20       1.0  0.16120  0.83970  0.11540  1.0000 -0.2108062376
C   C21       1.0  0.03920  0.69730  0.59700  1.0000 0.2178745586
C   C22       1.0  0.96080  0.19730  0.90300  1.0000 0.2178745586
C   C23       1.0  0.96080  0.30270  0.40300  1.0000 0.2178745586
C   C24       1.0  0.03920  0.80270  0.09700  1.0000 0.2178745586
C   C25       1.0  0.92230  0.65660  0.60980  1.0000 -0.2371575926
C   C26       1.0  0.07770  0.15660  0.89020  1.0000 -0.2371575926
C   C27       1.0  0.07770  0.34340  0.39020  1.0000 -0.2371575926
C   C28       1.0  0.92230  0.84340  0.10980  1.0000 -0.2371575926
C   C29       1.0  0.30560  0.53240  0.65960  1.0000 0.520186169
C   C30       1.0  0.69440  0.03240  0.84040  1.0000 0.520186169
C   C31       1.0  0.69440  0.46760  0.34040  1.0000 0.520186169
C   C32       1.0  0.30560  0.96760  0.15960  1.0000 0.520186169
C   C33       1.0  0.92700  0.82880  0.55410  1.0000 -0.0257862062
C   C34       1.0  0.07300  0.32880  0.94590  1.0000 -0.0257862062
C   C35       1.0  0.07300  0.17120  0.44590  1.0000 -0.0257862062
C   C36       1.0  0.92700  0.67120  0.05410  1.0000 -0.0257862062
C   C37       1.0  0.95840  0.92170  0.52730  1.0000 0.0323690232
C   C38       1.0  0.04160  0.42170  0.97270  1.0000 0.0323690232
C   C39       1.0  0.04160  0.07830  0.47270  1.0000 0.0323690232
C   C40       1.0  0.95840  0.57830  0.02730  1.0000 0.0323690232
C   C41       1.0  0.08610  0.92900  0.50910  1.0000 -0.2108062376
C   C42       1.0  0.91390  0.42900  0.99090  1.0000 -0.2108062376
C   C43       1.0  0.91390  0.07100  0.49090  1.0000 -0.2108062376
C   C44       1.0  0.08610  0.57100  0.00910  1.0000 -0.2108062376
C   C45       1.0  0.87110  0.99530  0.51670  1.0000 0.0239139665
C   C46       1.0  0.12890  0.49530  0.98330  1.0000 0.0239139665
C   C47       1.0  0.12890  0.00470  0.48330  1.0000 0.0239139665
C   C48       1.0  0.87110  0.50470  0.01670  1.0000 0.0239139665
C   C49       1.0  0.72950  0.99170  0.53450  1.0000 -0.0928564184
C   C50       1.0  0.27050  0.49170  0.96550  1.0000 -0.0928564184
C   C51       1.0  0.27050  0.00830  0.46550  1.0000 -0.0928564184
C   C52       1.0  0.72950  0.50830  0.03450  1.0000 -0.0928564184
C   C53       1.0  0.61770  0.90380  0.45990  1.0000 0.2404541913
C   C54       1.0  0.38230  0.40380  0.04010  1.0000 0.2404541913
C   C55       1.0  0.38230  0.09620  0.54010  1.0000 0.2404541913
C   C56       1.0  0.61770  0.59620  0.95990  1.0000 0.2404541913
C   C57       1.0  0.56690  0.81590  0.44430  1.0000 -0.256784333
C   C58       1.0  0.43310  0.31590  0.05570  1.0000 -0.256784333
C   C59       1.0  0.43310  0.18410  0.55570  1.0000 -0.256784333
C   C60       1.0  0.56690  0.68410  0.94430  1.0000 -0.256784333
C   C61       1.0  0.52940  0.79580  0.38670  1.0000 0.0034267613
C   C62       1.0  0.47060  0.29580  0.11330  1.0000 0.0034267613
C   C63       1.0  0.47060  0.20420  0.61330  1.0000 0.0034267613
C   C64       1.0  0.52940  0.70420  0.88670  1.0000 0.0034267613
C   C65       1.0  0.53950  0.86370  0.34620  1.0000 -0.1495298179
C   C66       1.0  0.46050  0.36370  0.15380  1.0000 -0.1495298179
C   C67       1.0  0.46050  0.13630  0.65380  1.0000 -0.1495298179
C   C68       1.0  0.53950  0.63630  0.84620  1.0000 -0.1495298179
C   C69       1.0  0.59280  0.94940  0.36140  1.0000 -0.0257862062
C   C70       1.0  0.40720  0.44940  0.13860  1.0000 -0.0257862062
C   C71       1.0  0.40720  0.05060  0.63860  1.0000 -0.0257862062
C   C72       1.0  0.59280  0.55060  0.86140  1.0000 -0.0257862062
C   C73       1.0  0.63080  0.96750  0.41800  1.0000 -0.2371575926
C   C74       1.0  0.36920  0.46750  0.08200  1.0000 -0.2371575926
C   C75       1.0  0.36920  0.03250  0.58200  1.0000 -0.2371575926
C   C76       1.0  0.63080  0.53250  0.91800  1.0000 -0.2371575926
C   C77       1.0  0.48320  0.70180  0.36720  1.0000 0.520186169
C   C78       1.0  0.51680  0.20180  0.13280  1.0000 0.520186169
C   C79       1.0  0.51680  0.29820  0.63280  1.0000 0.520186169
C   C80       1.0  0.48320  0.79820  0.86720  1.0000 0.520186169
C   C81       1.0  0.60500  0.01600  0.31550  1.0000 0.520186169
C   C82       1.0  0.39500  0.51600  0.18450  1.0000 0.520186169
C   C83       1.0  0.39500  0.98400  0.68450  1.0000 0.520186169
C   C84       1.0  0.60500  0.48400  0.81550  1.0000 0.520186169
C   C85       1.0  0.91900  0.83800  0.93100  1.0000 -0.3250192572
C   C86       1.0  0.00500  0.71700  0.86700  1.0000 -0.3003792037
C   C87       1.0  0.08100  0.33800  0.56900  1.0000 -0.3191080679
C   C88       1.0  0.99500  0.21700  0.63300  1.0000 -0.3003792037
C   C89       1.0  0.08100  0.16200  0.06900  1.0000 -0.3250192572
C   C90       1.0  0.99500  0.28300  0.13300  1.0000 -0.3003792037
C   C91       1.0  0.91900  0.66200  0.43100  1.0000 -0.3250192572
C   C92       1.0  0.00500  0.78300  0.36700  1.0000 -0.3003792037
C   C93       1.0  0.34900  0.28110  0.78180  1.0000 -0.3133181353
C   C94       1.0  0.44600  0.27770  0.88510  1.0000 -0.3191080679
C   C95       1.0  0.65100  0.78110  0.71820  1.0000 -0.3133181353
C   C96       1.0  0.55400  0.77770  0.61490  1.0000 -0.3191080679
C   C97       1.0  0.65100  0.71890  0.21820  1.0000 -0.3133181353
C   C98       1.0  0.55400  0.72230  0.11490  1.0000 -0.3191080679
C   C99       1.0  0.34900  0.21890  0.28180  1.0000 -0.3133181353
C   C100      1.0  0.44600  0.22230  0.38510  1.0000 -0.3191080679
N   N1        1.0  0.04400  0.78800  0.91400  1.0000 -0.1009513522
N   N2        1.0  0.95600  0.28800  0.58600  1.0000 -0.1009513522
N   N3        1.0  0.95600  0.21200  0.08600  1.0000 -0.1009513522
N   N4        1.0  0.04400  0.71200  0.41400  1.0000 -0.1009513522
N   N5        1.0  0.46510  0.25320  0.82500  1.0000 -0.1009513522
N   N6        1.0  0.53490  0.75320  0.67500  1.0000 -0.1009513522
N   N7        1.0  0.53490  0.74680  0.17500  1.0000 -0.1009513522
N   N8        1.0  0.46510  0.24680  0.32500  1.0000 -0.1009513522
O   O1        1.0  0.80990  0.45730  0.68190  1.0000 -0.5314520021
O   O2        1.0  0.19010  0.95730  0.81810  1.0000 -0.5314520021
O   O3        1.0  0.19010  0.54270  0.31810  1.0000 -0.5314520021
O   O4        1.0  0.80990  0.04270  0.18190  1.0000 -0.5314520021
O   O5        1.0  0.69520  0.56610  0.63690  1.0000 -0.5314520021
O   O6        1.0  0.30480  0.06610  0.86310  1.0000 -0.5314520021
O   O7        1.0  0.30480  0.43390  0.36310  1.0000 -0.5314520021
O   O8        1.0  0.69520  0.93390  0.13690  1.0000 -0.5314520021
O   O9        1.0  0.30920  0.45950  0.68410  1.0000 -0.4910264899
O   O10       1.0  0.69080  0.95950  0.81590  1.0000 -0.4910264899
O   O11       1.0  0.69080  0.54050  0.31590  1.0000 -0.4910264899
O   O12       1.0  0.30920  0.04050  0.18410  1.0000 -0.4910264899
O   O13       1.0  0.40540  0.57190  0.64750  1.0000 -0.4910264899
O   O14       1.0  0.59460  0.07190  0.85250  1.0000 -0.4910264899
O   O15       1.0  0.59460  0.42810  0.35250  1.0000 -0.4910264899
O   O16       1.0  0.40540  0.92810  0.14750  1.0000 -0.4910264899
O   O17       1.0  0.03890  0.78140  0.56930  1.0000 -0.1495298179
O   O18       1.0  0.96110  0.28140  0.93070  1.0000 -0.1495298179
O   O19       1.0  0.96110  0.21860  0.43070  1.0000 -0.1495298179
O   O20       1.0  0.03890  0.71860  0.06930  1.0000 -0.1495298179
O   O21       1.0  0.65650  0.91030  0.51630  1.0000 -0.192595752
O   O22       1.0  0.34350  0.41030  0.98370  1.0000 -0.192595752
O   O23       1.0  0.34350  0.08970  0.48370  1.0000 -0.192595752
O   O24       1.0  0.65650  0.58970  0.01630  1.0000 -0.192595752
O   O25       1.0  0.47810  0.64030  0.40150  1.0000 -0.4910264899
O   O26       1.0  0.52190  0.14030  0.09850  1.0000 -0.4910264899
O   O27       1.0  0.52190  0.35970  0.59850  1.0000 -0.4910264899
O   O28       1.0  0.47810  0.85970  0.90150  1.0000 -0.4910264899
O   O29       1.0  0.45200  0.68810  0.31620  1.0000 -0.4910264899
O   O30       1.0  0.54800  0.18810  0.18380  1.0000 -0.4910264899
O   O31       1.0  0.54800  0.31190  0.68380  1.0000 -0.4910264899
O   O32       1.0  0.45200  0.81190  0.81620  1.0000 -0.4910264899
O   O33       1.0  0.57580  0.99660  0.26880  1.0000 -0.4424284343
O   O34       1.0  0.42420  0.49660  0.23120  1.0000 -0.4424284343
O   O35       1.0  0.42420  0.00340  0.73120  1.0000 -0.4424284343
O   O36       1.0  0.57580  0.50340  0.76880  1.0000 -0.4424284343
O   O37       1.0  0.64820  0.09410  0.32930  1.0000 -0.4910264899
O   O38       1.0  0.35180  0.59410  0.17070  1.0000 -0.4910264899
O   O39       1.0  0.35180  0.90590  0.67070  1.0000 -0.4910264899
O   O40       1.0  0.64820  0.40590  0.82930  1.0000 -0.4910264899
