# DDEC6 charges by PACMAN v1.1 (https://github.com/mtap-research/PACMAN-charge/)
data_2015[Zn][pcu]3[ION]1
_chemical_formula_sum              "Zn4 H52 C56 N4 O26"
_cell_length_a       10.1747
_cell_length_b       10.1747
_cell_length_c       23.4388
_cell_angle_alpha    79.2291
_cell_angle_beta     100.771
_cell_angle_gamma    128.698

_symmetry_space_group_name_H-M    "P 1"
_symmetry_Int_Tables_number       1

loop_
  _symmetry_equiv_pos_as_xyz
  'x, y, z'

loop_
  _atom_site_type_symbol
  _atom_site_label
  _atom_site_symmetry_multiplicity
  _atom_site_fract_x
  _atom_site_fract_y
  _atom_site_fract_z
  _atom_site_occupancy
  _atom_site_charge
Zn  Zn1       1.0  0.87317  0.72011  0.30334  1.0000 0.9442433867
Zn  Zn2       1.0  0.72011  0.87317  0.19666  1.0000 0.9442433867
Zn  Zn3       1.0  0.12683  0.27989  0.69666  1.0000 0.9442433867
Zn  Zn4       1.0  0.27989  0.12683  0.80334  1.0000 0.9442433867
H   H1        1.0  0.19350  0.18550  0.39050  1.0000 0.1204613003
H   H2        1.0  0.18550  0.19350  0.10950  1.0000 0.1204613003
H   H3        1.0  0.80650  0.81450  0.60950  1.0000 0.1204613003
H   H4        1.0  0.81450  0.80650  0.89050  1.0000 0.1204613003
H   H5        1.0  0.85770  0.25070  0.29610  1.0000 0.1204613003
H   H6        1.0  0.25070  0.85770  0.20390  1.0000 0.1204613003
H   H7        1.0  0.14230  0.74930  0.70390  1.0000 0.1204613003
H   H8        1.0  0.74930  0.14230  0.79610  1.0000 0.1204613003
H   H9        1.0  0.21880  0.58840  0.41020  1.0000 0.1310689713
H   H10       1.0  0.58840  0.21880  0.08980  1.0000 0.1310689713
H   H11       1.0  0.78120  0.41160  0.58980  1.0000 0.1310689713
H   H12       1.0  0.41160  0.78120  0.91020  1.0000 0.1310689713
H   H13       1.0  0.22590  0.37410  0.51830  1.0000 0.1310689713
H   H14       1.0  0.37410  0.22590  0.98170  1.0000 0.1310689713
H   H15       1.0  0.77410  0.62590  0.48170  1.0000 0.1310689713
H   H16       1.0  0.62590  0.77410  0.01830  1.0000 0.1310689713
H   H17       1.0  0.59900  0.57900  0.22200  1.0000 0.3722273413
H   H18       1.0  0.57900  0.59900  0.27800  1.0000 0.3722273413
H   H19       1.0  0.40100  0.42100  0.77800  1.0000 0.3722273413
H   H20       1.0  0.42100  0.40100  0.72200  1.0000 0.3722273413
H   H21       1.0  0.21580  0.42800  0.24650  1.0000 0.1310689713
H   H22       1.0  0.29300  0.42440  0.19380  1.0000 0.1310689713
H   H23       1.0  0.09440  0.28980  0.20050  1.0000 0.1422513975
H   H24       1.0  0.16170  0.51190  0.13030  1.0000 0.2610544938
H   H25       1.0  0.25900  0.63260  0.17600  1.0000 0.2698111388
H   H26       1.0  0.01810  0.51130  0.22020  1.0000 0.1422513975
H   H27       1.0  0.91230  0.37770  0.17220  1.0000 0.1460939351
H   H28       1.0  0.99790  0.57330  0.15350  1.0000 0.1422513975
H   H29       1.0  0.42800  0.21580  0.25350  1.0000 0.1310689713
H   H30       1.0  0.42440  0.29300  0.30620  1.0000 0.1310689713
H   H31       1.0  0.28980  0.09440  0.29950  1.0000 0.1422513975
H   H32       1.0  0.51190  0.16170  0.36970  1.0000 0.2610544938
H   H33       1.0  0.63260  0.25900  0.32400  1.0000 0.2698111388
H   H34       1.0  0.51130  0.01810  0.27980  1.0000 0.1422513975
H   H35       1.0  0.37770  0.91230  0.32780  1.0000 0.1460939351
H   H36       1.0  0.57330  0.99790  0.34650  1.0000 0.1422513975
H   H37       1.0  0.78420  0.57200  0.75350  1.0000 0.1310689713
H   H38       1.0  0.70700  0.57560  0.80620  1.0000 0.1310689713
H   H39       1.0  0.90560  0.71020  0.79950  1.0000 0.1422513975
H   H40       1.0  0.83830  0.48810  0.86970  1.0000 0.2610544938
H   H41       1.0  0.74100  0.36740  0.82400  1.0000 0.2698111388
H   H42       1.0  0.98190  0.48870  0.77980  1.0000 0.1422513975
H   H43       1.0  0.08770  0.62230  0.82780  1.0000 0.1460939351
H   H44       1.0  0.00210  0.42670  0.84650  1.0000 0.1422513975
H   H45       1.0  0.57200  0.78420  0.74650  1.0000 0.1310689713
H   H46       1.0  0.57560  0.70700  0.69380  1.0000 0.1310689713
H   H47       1.0  0.71020  0.90560  0.70050  1.0000 0.1422513975
H   H48       1.0  0.48810  0.83830  0.63030  1.0000 0.2610544938
H   H49       1.0  0.36740  0.74100  0.67600  1.0000 0.2698111388
H   H50       1.0  0.48870  0.98190  0.72020  1.0000 0.1422513975
H   H51       1.0  0.62230  0.08770  0.67220  1.0000 0.1460939351
H   H52       1.0  0.42670  0.00210  0.65350  1.0000 0.1422513975
C   C1        1.0  0.15169  0.24891  0.38029  1.0000 -0.1440008727
C   C2        1.0  0.24891  0.15169  0.11971  1.0000 -0.1440008727
C   C3        1.0  0.84831  0.75109  0.61971  1.0000 -0.1440008727
C   C4        1.0  0.75109  0.84831  0.88029  1.0000 -0.1440008727
C   C5        1.0  0.22899  0.39601  0.40678  1.0000 0.0866807404
C   C6        1.0  0.39601  0.22899  0.09322  1.0000 0.0866807404
C   C7        1.0  0.77101  0.60399  0.59322  1.0000 0.0866807404
C   C8        1.0  0.60399  0.77101  0.90678  1.0000 0.0866807404
C   C9        1.0  0.59416  0.57144  0.38091  1.0000 0.5669255111
C   C10       1.0  0.57144  0.59416  0.11909  1.0000 0.5669255111
C   C11       1.0  0.40584  0.42856  0.61909  1.0000 0.5669255111
C   C12       1.0  0.42856  0.40584  0.88091  1.0000 0.5669255111
C   C13       1.0  0.95238  0.28782  0.32416  1.0000 -0.1440008727
C   C14       1.0  0.28782  0.95238  0.17584  1.0000 -0.1440008727
C   C15       1.0  0.04762  0.71218  0.67584  1.0000 -0.1440008727
C   C16       1.0  0.71218  0.04762  0.82416  1.0000 -0.1440008727
C   C17       1.0  0.92981  0.03739  0.30891  1.0000 0.5762800428
C   C18       1.0  0.03739  0.92981  0.19109  1.0000 0.5762800428
C   C19       1.0  0.07019  0.96261  0.69109  1.0000 0.5762800428
C   C20       1.0  0.96261  0.07019  0.80891  1.0000 0.5762800428
C   C21       1.0  0.16704  0.48856  0.39192  1.0000 -0.1578343191
C   C22       1.0  0.48856  0.16704  0.10808  1.0000 -0.1578343191
C   C23       1.0  0.83296  0.51144  0.60808  1.0000 -0.1578343191
C   C24       1.0  0.51144  0.83296  0.89192  1.0000 -0.1578343191
C   C25       1.0  0.02954  0.43526  0.35033  1.0000 -0.0184087198
C   C26       1.0  0.43526  0.02954  0.14967  1.0000 -0.0184087198
C   C27       1.0  0.97046  0.56474  0.64967  1.0000 -0.0184087198
C   C28       1.0  0.56474  0.97046  0.85033  1.0000 -0.0184087198
C   C29       1.0  0.33821  0.42559  0.51081  1.0000 -0.1578343191
C   C30       1.0  0.42559  0.33821  0.98919  1.0000 -0.1578343191
C   C31       1.0  0.66179  0.57441  0.48919  1.0000 -0.1578343191
C   C32       1.0  0.57441  0.66179  0.01081  1.0000 -0.1578343191
C   C33       1.0  0.01328  0.19392  0.33891  1.0000 -0.0184087198
C   C34       1.0  0.19392  0.01328  0.16109  1.0000 -0.0184087198
C   C35       1.0  0.98672  0.80608  0.66109  1.0000 -0.0184087198
C   C36       1.0  0.80608  0.98672  0.83891  1.0000 -0.0184087198
C   C37       1.0  0.37331  0.45249  0.45308  1.0000 0.0473636969
C   C38       1.0  0.45249  0.37331  0.04692  1.0000 0.0473636969
C   C39       1.0  0.62669  0.54751  0.54692  1.0000 0.0473636969
C   C40       1.0  0.54751  0.62669  0.95308  1.0000 0.0473636969
C   C41       1.0  0.53921  0.52899  0.44208  1.0000 -0.0539185104
C   C42       1.0  0.52899  0.53921  0.05792  1.0000 -0.0539185104
C   C43       1.0  0.46079  0.47101  0.55792  1.0000 -0.0539185104
C   C44       1.0  0.47101  0.46079  0.94208  1.0000 -0.0539185104
C   C45       1.0  0.96649  0.53831  0.33279  1.0000 0.546235964
C   C46       1.0  0.53831  0.96649  0.16721  1.0000 0.546235964
C   C47       1.0  0.03351  0.46169  0.66721  1.0000 0.546235964
C   C48       1.0  0.46169  0.03351  0.83279  1.0000 0.546235964
C   C49       1.0  0.19500  0.40660  0.20550  1.0000 -0.3027788584
C   C50       1.0  0.01050  0.49390  0.17960  1.0000 -0.3027788584
C   C51       1.0  0.40660  0.19500  0.29450  1.0000 -0.3027788584
C   C52       1.0  0.49390  0.01050  0.32040  1.0000 -0.3027788584
C   C53       1.0  0.80500  0.59340  0.79450  1.0000 -0.3027788584
C   C54       1.0  0.98950  0.50610  0.82040  1.0000 -0.3027788584
C   C55       1.0  0.59340  0.80500  0.70550  1.0000 -0.3027788584
C   C56       1.0  0.50610  0.98950  0.67960  1.0000 -0.3027788584
N   N1        1.0  0.16770  0.52330  0.16894  1.0000 -0.0834069361
N   N2        1.0  0.52330  0.16770  0.33106  1.0000 -0.0834069361
N   N3        1.0  0.83230  0.47670  0.83106  1.0000 -0.0834069361
N   N4        1.0  0.47670  0.83230  0.66894  1.0000 -0.0834069361
O   O1        1.0  0.73911  0.61769  0.37766  1.0000 -0.5597139594
O   O2        1.0  0.61769  0.73911  0.12234  1.0000 -0.5597139594
O   O3        1.0  0.26089  0.38231  0.62234  1.0000 -0.5597139594
O   O4        1.0  0.38231  0.26089  0.87766  1.0000 -0.5597139594
O   O5        1.0  0.65590  0.65590  0.25000  1.0000 -0.7399877456
O   O6        1.0  0.34410  0.34410  0.75000  1.0000 -0.7399877456
O   O7        1.0  0.80930  0.00050  0.27133  1.0000 -0.5400722173
O   O8        1.0  0.00050  0.80930  0.22867  1.0000 -0.5400722173
O   O9        1.0  0.19070  0.99950  0.72867  1.0000 -0.5400722173
O   O10       1.0  0.99950  0.19070  0.77133  1.0000 -0.5400722173
O   O11       1.0  0.05464  0.68596  0.34734  1.0000 -0.5158594992
O   O12       1.0  0.68596  0.05464  0.15266  1.0000 -0.5158594992
O   O13       1.0  0.94536  0.31404  0.65266  1.0000 -0.5158594992
O   O14       1.0  0.31404  0.94536  0.84734  1.0000 -0.5158594992
O   O15       1.0  0.82571  0.47409  0.30244  1.0000 -0.5597139594
O   O16       1.0  0.47409  0.82571  0.19756  1.0000 -0.5597139594
O   O17       1.0  0.17429  0.52591  0.69756  1.0000 -0.5597139594
O   O18       1.0  0.52591  0.17429  0.80244  1.0000 -0.5597139594
O   O19       1.0  0.98856  0.95644  0.32360  1.0000 -0.5400722173
O   O20       1.0  0.95644  0.98856  0.17640  1.0000 -0.5400722173
O   O21       1.0  0.01144  0.04356  0.67640  1.0000 -0.5400722173
O   O22       1.0  0.04356  0.01144  0.82360  1.0000 -0.5400722173
O   O23       1.0  0.49324  0.55976  0.33848  1.0000 -0.5400722173
O   O24       1.0  0.55976  0.49324  0.16152  1.0000 -0.5400722173
O   O25       1.0  0.50676  0.44024  0.66152  1.0000 -0.5400722173
O   O26       1.0  0.44024  0.50676  0.83848  1.0000 -0.5400722173
