# DDEC6 charges by PACMAN v1.1 (https://github.com/mtap-research/PACMAN-charge/)
data_2015[Cu][nan]3[ION]2
_chemical_formula_sum              "Cu6 H192 C232 N32 Cl12 O96"
_cell_length_a       23.0343
_cell_length_b       23.0343
_cell_length_c       27.0979
_cell_angle_alpha    55.1115
_cell_angle_beta     124.888
_cell_angle_gamma    126.784

_symmetry_space_group_name_H-M    "P 1"
_symmetry_Int_Tables_number       1

loop_
  _symmetry_equiv_pos_as_xyz
  'x, y, z'

loop_
  _atom_site_type_symbol
  _atom_site_label
  _atom_site_symmetry_multiplicity
  _atom_site_fract_x
  _atom_site_fract_y
  _atom_site_fract_z
  _atom_site_occupancy
  _atom_site_charge
Cu  Cu1       1.0  0.75010  0.75010  0.25000  1.0000 0.6198741668
Cu  Cu2       1.0  0.24990  0.24990  0.75000  1.0000 0.6198741668
Cu  Cu3       1.0  0.75708  0.26284  0.88640  1.0000 0.4730889672
Cu  Cu4       1.0  0.26284  0.75708  0.61360  1.0000 0.4753169292
Cu  Cu5       1.0  0.24292  0.73716  0.11360  1.0000 0.4730889672
Cu  Cu6       1.0  0.73716  0.24292  0.38640  1.0000 0.4730889672
H   H1        1.0  0.80750  0.91670  0.17440  1.0000 0.1111620757
H   H2        1.0  0.91670  0.80750  0.32560  1.0000 0.1111620757
H   H3        1.0  0.19250  0.08330  0.82560  1.0000 0.1111620757
H   H4        1.0  0.08330  0.19250  0.67440  1.0000 0.1111620757
H   H5        1.0  0.88770  0.00690  0.11460  1.0000 0.1390211938
H   H6        1.0  0.00690  0.88770  0.38540  1.0000 0.1390211938
H   H7        1.0  0.11230  0.99310  0.88540  1.0000 0.1390211938
H   H8        1.0  0.99310  0.11230  0.61460  1.0000 0.1390211938
H   H9        1.0  0.92180  0.83740  0.14340  1.0000 0.1591022177
H   H10       1.0  0.83740  0.92180  0.35660  1.0000 0.1591022177
H   H11       1.0  0.07820  0.16260  0.85660  1.0000 0.1591022177
H   H12       1.0  0.16260  0.07820  0.64340  1.0000 0.1591022177
H   H13       1.0  0.84000  0.75040  0.20290  1.0000 0.1192191739
H   H14       1.0  0.75040  0.84000  0.29710  1.0000 0.1192191739
H   H15       1.0  0.16000  0.24960  0.79710  1.0000 0.1192191739
H   H16       1.0  0.24960  0.16000  0.70290  1.0000 0.1192191739
H   H17       1.0  0.99990  0.09850  0.98790  1.0000 0.1192191739
H   H18       1.0  0.09850  0.99990  0.51210  1.0000 0.1192191739
H   H19       1.0  0.00010  0.90150  0.01210  1.0000 0.1192191739
H   H20       1.0  0.90150  0.00010  0.48790  1.0000 0.1192191739
H   H21       1.0  0.01630  0.16530  0.00350  1.0000 0.1192191739
H   H22       1.0  0.16530  0.01630  0.49650  1.0000 0.1192191739
H   H23       1.0  0.98370  0.83470  0.99650  1.0000 0.1192191739
H   H24       1.0  0.83470  0.98370  0.50350  1.0000 0.1192191739
H   H25       1.0  0.16890  0.81730  0.10250  1.0000 0.1281926144
H   H26       1.0  0.81730  0.16890  0.39750  1.0000 0.1281926144
H   H27       1.0  0.83110  0.18270  0.89750  1.0000 0.1281926144
H   H28       1.0  0.18270  0.83110  0.60250  1.0000 0.1281926144
H   H29       1.0  0.18380  0.94060  0.07030  1.0000 0.1591022177
H   H30       1.0  0.94060  0.18380  0.42970  1.0000 0.1591022177
H   H31       1.0  0.81620  0.05940  0.92970  1.0000 0.1591022177
H   H32       1.0  0.05940  0.81620  0.57030  1.0000 0.1591022177
H   H33       1.0  0.35940  0.02420  0.01940  1.0000 0.1508323857
H   H34       1.0  0.02420  0.35940  0.48060  1.0000 0.1508323857
H   H35       1.0  0.64060  0.97580  0.98060  1.0000 0.1508323857
H   H36       1.0  0.97580  0.64060  0.51940  1.0000 0.1508323857
H   H37       1.0  0.35000  0.89980  0.06390  1.0000 0.1192191739
H   H38       1.0  0.89980  0.35000  0.43610  1.0000 0.1192191739
H   H39       1.0  0.65000  0.10020  0.93610  1.0000 0.1192191739
H   H40       1.0  0.10020  0.65000  0.56390  1.0000 0.1192191739
H   H41       1.0  0.23250  0.18170  0.97190  1.0000 0.0998534703
H   H42       1.0  0.18170  0.23250  0.52810  1.0000 0.0998534703
H   H43       1.0  0.76750  0.81830  0.02810  1.0000 0.0998534703
H   H44       1.0  0.81830  0.76750  0.47190  1.0000 0.0998534703
H   H45       1.0  0.31330  0.19490  0.03080  1.0000 0.1192191739
H   H46       1.0  0.19490  0.31330  0.46920  1.0000 0.1192191739
H   H47       1.0  0.68670  0.80510  0.96920  1.0000 0.1192191739
H   H48       1.0  0.80510  0.68670  0.53080  1.0000 0.1192191739
H   H49       1.0  0.62730  0.20230  0.43650  1.0000 0.1192191739
H   H50       1.0  0.20230  0.62730  0.06350  1.0000 0.1192191739
H   H51       1.0  0.37270  0.79770  0.56350  1.0000 0.1192191739
H   H52       1.0  0.79770  0.37270  0.93650  1.0000 0.1192191739
H   H53       1.0  0.49330  0.16650  0.40220  1.0000 0.1508323857
H   H54       1.0  0.16650  0.49330  0.09780  1.0000 0.1508323857
H   H55       1.0  0.50670  0.83350  0.59780  1.0000 0.1508323857
H   H56       1.0  0.83350  0.50670  0.90220  1.0000 0.1508323857
H   H57       1.0  0.47310  0.22010  0.22620  1.0000 0.1508323857
H   H58       1.0  0.22010  0.47310  0.27380  1.0000 0.1508323857
H   H59       1.0  0.52690  0.77990  0.77380  1.0000 0.1508323857
H   H60       1.0  0.77990  0.52690  0.72620  1.0000 0.1508323857
H   H61       1.0  0.60130  0.24970  0.26270  1.0000 0.1281926144
H   H62       1.0  0.24970  0.60130  0.23730  1.0000 0.1281926144
H   H63       1.0  0.39870  0.75030  0.73730  1.0000 0.1281926144
H   H64       1.0  0.75030  0.39870  0.76270  1.0000 0.1281926144
H   H65       1.0  0.24480  0.12780  0.23540  1.0000 0.1192191739
H   H66       1.0  0.12780  0.24480  0.26460  1.0000 0.1192191739
H   H67       1.0  0.75520  0.87220  0.76460  1.0000 0.1192191739
H   H68       1.0  0.87220  0.75520  0.73540  1.0000 0.1192191739
H   H69       1.0  0.26730  0.21910  0.19730  1.0000 0.1192191739
H   H70       1.0  0.21910  0.26730  0.30270  1.0000 0.1192191739
H   H71       1.0  0.73270  0.78090  0.80270  1.0000 0.1192191739
H   H72       1.0  0.78090  0.73270  0.69730  1.0000 0.1192191739
H   H73       1.0  0.12730  0.13890  0.13600  1.0000 0.1390211938
H   H74       1.0  0.13890  0.12730  0.36400  1.0000 0.1390211938
H   H75       1.0  0.87270  0.86110  0.86400  1.0000 0.1390211938
H   H76       1.0  0.86110  0.87270  0.63600  1.0000 0.1390211938
H   H77       1.0  0.11370  0.13050  0.98640  1.0000 0.1390211938
H   H78       1.0  0.13050  0.11370  0.51360  1.0000 0.1390211938
H   H79       1.0  0.88630  0.86950  0.01360  1.0000 0.1390211938
H   H80       1.0  0.86950  0.88630  0.48640  1.0000 0.1390211938
H   H81       1.0  0.31740  0.17480  0.13140  1.0000 0.1390211938
H   H82       1.0  0.17480  0.31740  0.36860  1.0000 0.1390211938
H   H83       1.0  0.68260  0.82520  0.86860  1.0000 0.1390211938
H   H84       1.0  0.82520  0.68260  0.63140  1.0000 0.1390211938
H   H85       1.0  0.75970  0.67110  0.38780  1.0000 0.1192191739
H   H86       1.0  0.67110  0.75970  0.11220  1.0000 0.1192191739
H   H87       1.0  0.24030  0.32890  0.61220  1.0000 0.1192191739
H   H88       1.0  0.32890  0.24030  0.88780  1.0000 0.1192191739
H   H89       1.0  0.67900  0.59060  0.44590  1.0000 0.1390211938
H   H90       1.0  0.59060  0.67900  0.05410  1.0000 0.1390211938
H   H91       1.0  0.32100  0.40940  0.55410  1.0000 0.1390211938
H   H92       1.0  0.40940  0.32100  0.94590  1.0000 0.1390211938
H   H93       1.0  0.49630  0.59390  0.27980  1.0000 0.1508323857
H   H94       1.0  0.59390  0.49630  0.22020  1.0000 0.1508323857
H   H95       1.0  0.50370  0.40610  0.72020  1.0000 0.1508323857
H   H96       1.0  0.40610  0.50370  0.77980  1.0000 0.1508323857
H   H97       1.0  0.58210  0.68010  0.22470  1.0000 0.1192191739
H   H98       1.0  0.68010  0.58210  0.27530  1.0000 0.1192191739
H   H99       1.0  0.41790  0.31990  0.77530  1.0000 0.1192191739
H   H100      1.0  0.31990  0.41790  0.72470  1.0000 0.1192191739
H   H101      1.0  0.41280  0.48240  0.43290  1.0000 0.1192191739
H   H102      1.0  0.48240  0.41280  0.06710  1.0000 0.1192191739
H   H103      1.0  0.58720  0.51760  0.56710  1.0000 0.1192191739
H   H104      1.0  0.51760  0.58720  0.93290  1.0000 0.1192191739
H   H105      1.0  0.34510  0.46410  0.36900  1.0000 0.1192191739
H   H106      1.0  0.46410  0.34510  0.13100  1.0000 0.1192191739
H   H107      1.0  0.65490  0.53590  0.63100  1.0000 0.1192191739
H   H108      1.0  0.53590  0.65490  0.86900  1.0000 0.1192191739
H   H109      1.0  0.19910  0.84370  0.47840  1.0000 0.1192191739
H   H110      1.0  0.84370  0.19910  0.02160  1.0000 0.1192191739
H   H111      1.0  0.80090  0.15630  0.52160  1.0000 0.1192191739
H   H112      1.0  0.15630  0.80090  0.97840  1.0000 0.1192191739
H   H113      1.0  0.21160  0.96940  0.40770  1.0000 0.1508323857
H   H114      1.0  0.96940  0.21160  0.09230  1.0000 0.1508323857
H   H115      1.0  0.78840  0.03060  0.59230  1.0000 0.1508323857
H   H116      1.0  0.03060  0.78840  0.90770  1.0000 0.1508323857
H   H117      1.0  0.38930  0.04370  0.55100  1.0000 0.1591022177
H   H118      1.0  0.04370  0.38930  0.94900  1.0000 0.1591022177
H   H119      1.0  0.61070  0.95630  0.44900  1.0000 0.1591022177
H   H120      1.0  0.95630  0.61070  0.05100  1.0000 0.1591022177
H   H121      1.0  0.37560  0.91320  0.61690  1.0000 0.1281926144
H   H122      1.0  0.91320  0.37560  0.88310  1.0000 0.1281926144
H   H123      1.0  0.62440  0.08680  0.38310  1.0000 0.1281926144
H   H124      1.0  0.08680  0.62440  0.11690  1.0000 0.1281926144
H   H125      1.0  0.44550  0.26110  0.41360  1.0000 0.1281926144
H   H126      1.0  0.26110  0.44550  0.08640  1.0000 0.1281926144
H   H127      1.0  0.55450  0.73890  0.58640  1.0000 0.1281926144
H   H128      1.0  0.73890  0.55450  0.91360  1.0000 0.1281926144
H   H129      1.0  0.35670  0.23610  0.36670  1.0000 0.1192191739
H   H130      1.0  0.23610  0.35670  0.13330  1.0000 0.1192191739
H   H131      1.0  0.64330  0.76390  0.63330  1.0000 0.1192191739
H   H132      1.0  0.76390  0.64330  0.86670  1.0000 0.1192191739
H   H133      1.0  0.61960  0.27200  0.86050  1.0000 0.1192191739
H   H134      1.0  0.27200  0.61960  0.63950  1.0000 0.1192191739
H   H135      1.0  0.38040  0.72800  0.13950  1.0000 0.1192191739
H   H136      1.0  0.72800  0.38040  0.36050  1.0000 0.1192191739
H   H137      1.0  0.49500  0.25680  0.78520  1.0000 0.1390211938
H   H138      1.0  0.25680  0.49500  0.71480  1.0000 0.1390211938
H   H139      1.0  0.50500  0.74320  0.21480  1.0000 0.1390211938
H   H140      1.0  0.74320  0.50500  0.28520  1.0000 0.1390211938
H   H141      1.0  0.52830  0.18570  0.70240  1.0000 0.1591022177
H   H142      1.0  0.18570  0.52830  0.79760  1.0000 0.1591022177
H   H143      1.0  0.47170  0.81430  0.29760  1.0000 0.1591022177
H   H144      1.0  0.81430  0.47170  0.20240  1.0000 0.1591022177
H   H145      1.0  0.64880  0.19760  0.78020  1.0000 0.1281926144
H   H146      1.0  0.19760  0.64880  0.71980  1.0000 0.1281926144
H   H147      1.0  0.35120  0.80240  0.21980  1.0000 0.1281926144
H   H148      1.0  0.80240  0.35120  0.28020  1.0000 0.1281926144
H   H149      1.0  0.30220  0.16020  0.58510  1.0000 0.1192191739
H   H150      1.0  0.16020  0.30220  0.91490  1.0000 0.1192191739
H   H151      1.0  0.69780  0.83980  0.41490  1.0000 0.1192191739
H   H152      1.0  0.83980  0.69780  0.08510  1.0000 0.1192191739
H   H153      1.0  0.31620  0.23820  0.58370  1.0000 0.1111620757
H   H154      1.0  0.23820  0.31620  0.91630  1.0000 0.1111620757
H   H155      1.0  0.68380  0.76180  0.41630  1.0000 0.1111620757
H   H156      1.0  0.76180  0.68380  0.08370  1.0000 0.1111620757
H   H157      1.0  0.40270  0.37070  0.37360  1.0000 0.1390211938
H   H158      1.0  0.37070  0.40270  0.12640  1.0000 0.1390211938
H   H159      1.0  0.59730  0.62930  0.62640  1.0000 0.1390211938
H   H160      1.0  0.62930  0.59730  0.87360  1.0000 0.1390211938
H   H161      1.0  0.35080  0.16820  0.51880  1.0000 0.1390211938
H   H162      1.0  0.16820  0.35080  0.98120  1.0000 0.1390211938
H   H163      1.0  0.64920  0.83180  0.48120  1.0000 0.1281926144
H   H164      1.0  0.83180  0.64920  0.01880  1.0000 0.1390211938
H   H165      1.0  0.36410  0.35850  0.50700  1.0000 0.1281926144
H   H166      1.0  0.35850  0.36410  0.99300  1.0000 0.1281926144
H   H167      1.0  0.63590  0.64150  0.49300  1.0000 0.1281926144
H   H168      1.0  0.64150  0.63590  0.00700  1.0000 0.1281926144
H   H169      1.0  0.91780  0.57120  0.42680  1.0000 0.1591022177
H   H170      1.0  0.57120  0.91780  0.07320  1.0000 0.1591022177
H   H171      1.0  0.08220  0.42880  0.57320  1.0000 0.1591022177
H   H172      1.0  0.42880  0.08220  0.92680  1.0000 0.1591022177
H   H173      1.0  0.85790  0.55070  0.45270  1.0000 0.1797510223
H   H174      1.0  0.55070  0.85790  0.04730  1.0000 0.1797510223
H   H175      1.0  0.14210  0.44930  0.54730  1.0000 0.1797510223
H   H176      1.0  0.44930  0.14210  0.95270  1.0000 0.1797510223
H   H177      1.0  0.82960  0.51280  0.40420  1.0000 0.1681176001
H   H178      1.0  0.51280  0.82960  0.09580  1.0000 0.1681176001
H   H179      1.0  0.17040  0.48720  0.59580  1.0000 0.1681176001
H   H180      1.0  0.48720  0.17040  0.90420  1.0000 0.1681176001
H   H181      1.0  0.62720  0.16880  0.05010  1.0000 0.1591022177
H   H182      1.0  0.16880  0.62720  0.44990  1.0000 0.1591022177
H   H183      1.0  0.37280  0.83120  0.94990  1.0000 0.1591022177
H   H184      1.0  0.83120  0.37280  0.55010  1.0000 0.1591022177
H   H185      1.0  0.71130  0.17030  0.09990  1.0000 0.1591022177
H   H186      1.0  0.17030  0.71130  0.40010  1.0000 0.1591022177
H   H187      1.0  0.28870  0.82970  0.90010  1.0000 0.1591022177
H   H188      1.0  0.82970  0.28870  0.59990  1.0000 0.1591022177
H   H189      1.0  0.69830  0.24890  0.05760  1.0000 0.1934933313
H   H190      1.0  0.24890  0.69830  0.44240  1.0000 0.1934933313
H   H191      1.0  0.30170  0.75110  0.94240  1.0000 0.1934933313
H   H192      1.0  0.75110  0.30170  0.55760  1.0000 0.1934933313
C   C1        1.0  0.83130  0.90010  0.16820  1.0000 0.0605806704
C   C2        1.0  0.90010  0.83130  0.33180  1.0000 0.0605806704
C   C3        1.0  0.16870  0.09990  0.83180  1.0000 0.0605806704
C   C4        1.0  0.09990  0.16870  0.66820  1.0000 0.0605806704
C   C5        1.0  0.87880  0.95380  0.13260  1.0000 -0.1519209421
C   C6        1.0  0.95380  0.87880  0.36740  1.0000 -0.1519209421
C   C7        1.0  0.12120  0.04620  0.86740  1.0000 -0.1519209421
C   C8        1.0  0.04620  0.12120  0.63260  1.0000 -0.1519209421
C   C9        1.0  0.91320  0.93120  0.12290  1.0000 0.0048538835
C   C10       1.0  0.93120  0.91320  0.37710  1.0000 0.0048538835
C   C11       1.0  0.08680  0.06880  0.87710  1.0000 0.0048538835
C   C12       1.0  0.06880  0.08680  0.62290  1.0000 0.0048538835
C   C13       1.0  0.89890  0.85530  0.14910  1.0000 -0.120607383
C   C14       1.0  0.85530  0.89890  0.35090  1.0000 -0.120607383
C   C15       1.0  0.10110  0.14470  0.85090  1.0000 -0.120607383
C   C16       1.0  0.14470  0.10110  0.64910  1.0000 -0.120607383
C   C17       1.0  0.84990  0.80370  0.18480  1.0000 0.0998534703
C   C18       1.0  0.80370  0.84990  0.31520  1.0000 0.0998534703
C   C19       1.0  0.15010  0.19630  0.81520  1.0000 0.0998534703
C   C20       1.0  0.19630  0.15010  0.68480  1.0000 0.0998534703
C   C21       1.0  0.96450  0.98750  0.08440  1.0000 0.5089906329
C   C22       1.0  0.98750  0.96450  0.41560  1.0000 0.5089906329
C   C23       1.0  0.03550  0.01250  0.91560  1.0000 0.5089906329
C   C24       1.0  0.01250  0.03550  0.58440  1.0000 0.5089906329
C   C25       1.0  0.02230  0.11670  0.02300  1.0000 -0.0709492157
C   C26       1.0  0.11670  0.02230  0.47700  1.0000 -0.0709492157
C   C27       1.0  0.97770  0.88330  0.97700  1.0000 -0.0709492157
C   C28       1.0  0.88330  0.97770  0.52300  1.0000 -0.0709492157
C   C29       1.0  0.20990  0.85990  0.08700  1.0000 0.090044065
C   C30       1.0  0.85990  0.20990  0.41300  1.0000 0.090044065
C   C31       1.0  0.79010  0.14010  0.91300  1.0000 0.090044065
C   C32       1.0  0.14010  0.79010  0.58700  1.0000 0.090044065
C   C33       1.0  0.21760  0.93340  0.06670  1.0000 -0.120607383
C   C34       1.0  0.93340  0.21760  0.43330  1.0000 -0.120607383
C   C35       1.0  0.78240  0.06660  0.93330  1.0000 -0.120607383
C   C36       1.0  0.06660  0.78240  0.56670  1.0000 -0.120607383
C   C37       1.0  0.27280  0.99560  0.04140  1.0000 0.0076877212
C   C38       1.0  0.99560  0.27280  0.45860  1.0000 0.0076877212
C   C39       1.0  0.72720  0.00440  0.95860  1.0000 0.0076877212
C   C40       1.0  0.00440  0.72720  0.54140  1.0000 0.0076877212
C   C41       1.0  0.32120  0.98240  0.03840  1.0000 -0.1297793044
C   C42       1.0  0.98240  0.32120  0.46160  1.0000 -0.1297793044
C   C43       1.0  0.67880  0.01760  0.96160  1.0000 -0.1297793044
C   C44       1.0  0.01760  0.67880  0.53840  1.0000 -0.1297793044
C   C45       1.0  0.31340  0.90780  0.06300  1.0000 0.0684492677
C   C46       1.0  0.90780  0.31340  0.43700  1.0000 0.0684492677
C   C47       1.0  0.68660  0.09220  0.93700  1.0000 0.0684492677
C   C48       1.0  0.09220  0.68660  0.56300  1.0000 0.0684492677
C   C49       1.0  0.28340  0.07620  0.01730  1.0000 0.5186273212
C   C50       1.0  0.07620  0.28340  0.48270  1.0000 0.5186273212
C   C51       1.0  0.71660  0.92380  0.98270  1.0000 0.5186273212
C   C52       1.0  0.92380  0.71660  0.51730  1.0000 0.5186273212
C   C53       1.0  0.25760  0.16040  0.01890  1.0000 -0.0709492157
C   C54       1.0  0.16040  0.25760  0.48110  1.0000 -0.0709492157
C   C55       1.0  0.74240  0.83960  0.98110  1.0000 -0.0709492157
C   C56       1.0  0.83960  0.74240  0.51890  1.0000 -0.0709492157
C   C57       1.0  0.59540  0.20460  0.39340  1.0000 0.0998534703
C   C58       1.0  0.20460  0.59540  0.10660  1.0000 0.0998534703
C   C59       1.0  0.40460  0.79540  0.60660  1.0000 0.0998534703
C   C60       1.0  0.79540  0.40460  0.89340  1.0000 0.0998534703
C   C61       1.0  0.51620  0.18580  0.37300  1.0000 -0.120607383
C   C62       1.0  0.18580  0.51620  0.12700  1.0000 -0.120607383
C   C63       1.0  0.48380  0.81420  0.62700  1.0000 -0.120607383
C   C64       1.0  0.81420  0.48380  0.87300  1.0000 -0.120607383
C   C65       1.0  0.47400  0.19600  0.31000  1.0000 0.0302098399
C   C66       1.0  0.19600  0.47400  0.19000  1.0000 0.0302098399
C   C67       1.0  0.52600  0.80400  0.69000  1.0000 0.0302098399
C   C68       1.0  0.80400  0.52600  0.81000  1.0000 0.0302098399
C   C69       1.0  0.50410  0.21670  0.26970  1.0000 -0.1297793044
C   C70       1.0  0.21670  0.50410  0.23030  1.0000 -0.1297793044
C   C71       1.0  0.49590  0.78330  0.73030  1.0000 -0.1297793044
C   C72       1.0  0.78330  0.49590  0.76970  1.0000 -0.1297793044
C   C73       1.0  0.57950  0.23250  0.29210  1.0000 0.0605806704
C   C74       1.0  0.23250  0.57950  0.20790  1.0000 0.0605806704
C   C75       1.0  0.42050  0.76750  0.70790  1.0000 0.0605806704
C   C76       1.0  0.76750  0.42050  0.79210  1.0000 0.0605806704
C   C77       1.0  0.38700  0.17300  0.28800  1.0000 0.526535473
C   C78       1.0  0.17300  0.38700  0.21200  1.0000 0.5186273212
C   C79       1.0  0.61300  0.82700  0.71200  1.0000 0.526535473
C   C80       1.0  0.82700  0.61300  0.78800  1.0000 0.526535473
C   C81       1.0  0.27000  0.17400  0.20400  1.0000 -0.0709492157
C   C82       1.0  0.17400  0.27000  0.29600  1.0000 -0.0709492157
C   C83       1.0  0.73000  0.82600  0.79600  1.0000 -0.0709492157
C   C84       1.0  0.82600  0.73000  0.70400  1.0000 -0.0709492157
C   C85       1.0  0.22870  0.16090  0.14240  1.0000 0.0998534703
C   C86       1.0  0.16090  0.22870  0.35760  1.0000 0.0998534703
C   C87       1.0  0.77130  0.83910  0.85760  1.0000 0.0998534703
C   C88       1.0  0.83910  0.77130  0.64240  1.0000 0.0998534703
C   C89       1.0  0.15190  0.14370  0.11450  1.0000 -0.1801808163
C   C90       1.0  0.14370  0.15190  0.38550  1.0000 -0.1801808163
C   C91       1.0  0.84810  0.85630  0.88550  1.0000 -0.1801808163
C   C92       1.0  0.85630  0.84810  0.61450  1.0000 -0.1801808163
C   C93       1.0  0.10740  0.13280  0.05570  1.0000 0.1192191739
C   C94       1.0  0.13280  0.10740  0.44430  1.0000 0.1192191739
C   C95       1.0  0.89260  0.86720  0.94430  1.0000 0.1281926144
C   C96       1.0  0.86720  0.89260  0.55570  1.0000 0.1192191739
C   C97       1.0  0.14330  0.13830  0.02640  1.0000 -0.1801808163
C   C98       1.0  0.13830  0.14330  0.47360  1.0000 -0.1801808163
C   C99       1.0  0.85670  0.86170  0.97360  1.0000 -0.1801808163
C   C100      1.0  0.86170  0.85670  0.52640  1.0000 -0.1801808163
C   C101      1.0  0.22180  0.15500  0.05280  1.0000 0.0998534703
C   C102      1.0  0.15500  0.22180  0.44720  1.0000 0.0998534703
C   C103      1.0  0.77820  0.84500  0.94720  1.0000 0.0998534703
C   C104      1.0  0.84500  0.77820  0.55280  1.0000 0.0998534703
C   C105      1.0  0.26400  0.16500  0.11170  1.0000 -0.174609316
C   C106      1.0  0.16500  0.26400  0.38830  1.0000 -0.174609316
C   C107      1.0  0.73600  0.83500  0.88830  1.0000 -0.1801808163
C   C108      1.0  0.83500  0.73600  0.61170  1.0000 -0.174609316
C   C109      1.0  0.70550  0.65530  0.36570  1.0000 0.090044065
C   C110      1.0  0.65530  0.70550  0.13430  1.0000 0.090044065
C   C111      1.0  0.29450  0.34470  0.63430  1.0000 0.090044065
C   C112      1.0  0.34470  0.29450  0.86570  1.0000 0.090044065
C   C113      1.0  0.65810  0.60730  0.40040  1.0000 -0.120607383
C   C114      1.0  0.60730  0.65810  0.09960  1.0000 -0.120607383
C   C115      1.0  0.34190  0.39270  0.59960  1.0000 -0.120607383
C   C116      1.0  0.39270  0.34190  0.90040  1.0000 -0.120607383
C   C117      1.0  0.57770  0.58290  0.36790  1.0000 0.020799696
C   C118      1.0  0.58290  0.57770  0.13210  1.0000 0.020799696
C   C119      1.0  0.42230  0.41710  0.63210  1.0000 0.020799696
C   C120      1.0  0.41710  0.42230  0.86790  1.0000 0.020799696
C   C121      1.0  0.55050  0.60970  0.30280  1.0000 -0.1297793044
C   C122      1.0  0.60970  0.55050  0.19720  1.0000 -0.1297793044
C   C123      1.0  0.44950  0.39030  0.69720  1.0000 -0.1297793044
C   C124      1.0  0.39030  0.44950  0.80280  1.0000 -0.1297793044
C   C125      1.0  0.60140  0.65980  0.27030  1.0000 0.0812197054
C   C126      1.0  0.65980  0.60140  0.22970  1.0000 0.0812197054
C   C127      1.0  0.39860  0.34020  0.72970  1.0000 0.0812197054
C   C128      1.0  0.34020  0.39860  0.77030  1.0000 0.0812197054
C   C129      1.0  0.52670  0.52770  0.40700  1.0000 0.5089906329
C   C130      1.0  0.52770  0.52670  0.09300  1.0000 0.5089906329
C   C131      1.0  0.47330  0.47230  0.59300  1.0000 0.5089906329
C   C132      1.0  0.47230  0.47330  0.90700  1.0000 0.5089906329
C   C133      1.0  0.39540  0.46120  0.40140  1.0000 -0.0709492157
C   C134      1.0  0.46120  0.39540  0.09860  1.0000 -0.0709492157
C   C135      1.0  0.60460  0.53880  0.59860  1.0000 -0.0709492157
C   C136      1.0  0.53880  0.60460  0.90140  1.0000 -0.0709492157
C   C137      1.0  0.23950  0.88530  0.49380  1.0000 0.0605806704
C   C138      1.0  0.88530  0.23950  0.00620  1.0000 0.0605806704
C   C139      1.0  0.76050  0.11470  0.50620  1.0000 0.0605806704
C   C140      1.0  0.11470  0.76050  0.99380  1.0000 0.0605806704
C   C141      1.0  0.24580  0.96020  0.45100  1.0000 -0.1297793044
C   C142      1.0  0.96020  0.24580  0.04900  1.0000 -0.1297793044
C   C143      1.0  0.75420  0.03980  0.54900  1.0000 -0.1297793044
C   C144      1.0  0.03980  0.75420  0.95100  1.0000 -0.1297793044
C   C145      1.0  0.30150  0.01850  0.47300  1.0000 0.020799696
C   C146      1.0  0.01850  0.30150  0.02700  1.0000 0.020799696
C   C147      1.0  0.69850  0.98150  0.52700  1.0000 0.020799696
C   C148      1.0  0.98150  0.69850  0.97300  1.0000 0.020799696
C   C149      1.0  0.34920  0.00280  0.53400  1.0000 -0.1139805945
C   C150      1.0  0.00280  0.34920  0.96600  1.0000 -0.1139805945
C   C151      1.0  0.65080  0.99720  0.46600  1.0000 -0.1139805945
C   C152      1.0  0.99720  0.65080  0.03400  1.0000 -0.1139805945
C   C153      1.0  0.34000  0.92400  0.57400  1.0000 0.1111620757
C   C154      1.0  0.92400  0.34000  0.92600  1.0000 0.1111620757
C   C155      1.0  0.66000  0.07600  0.42600  1.0000 0.1111620757
C   C156      1.0  0.07600  0.66000  0.07400  1.0000 0.1111620757
C   C157      1.0  0.31300  0.10100  0.43100  1.0000 0.526535473
C   C158      1.0  0.10100  0.31300  0.06900  1.0000 0.526535473
C   C159      1.0  0.68700  0.89900  0.56900  1.0000 0.526535473
C   C160      1.0  0.89900  0.68700  0.93100  1.0000 0.526535473
C   C161      1.0  0.39100  0.23100  0.41200  1.0000 -0.0709492157
C   C162      1.0  0.23100  0.39100  0.08800  1.0000 -0.0709492157
C   C163      1.0  0.60900  0.76900  0.58800  1.0000 -0.0709492157
C   C164      1.0  0.76900  0.60900  0.91200  1.0000 -0.0709492157
C   C165      1.0  0.60120  0.25460  0.82770  1.0000 0.0998534703
C   C166      1.0  0.25460  0.60120  0.67230  1.0000 0.0998534703
C   C167      1.0  0.39880  0.74540  0.17230  1.0000 0.0998534703
C   C168      1.0  0.74540  0.39880  0.32770  1.0000 0.0998534703
C   C169      1.0  0.52600  0.24480  0.78280  1.0000 -0.1297793044
C   C170      1.0  0.24480  0.52600  0.71720  1.0000 -0.1297793044
C   C171      1.0  0.47400  0.75520  0.21720  1.0000 -0.1297793044
C   C172      1.0  0.75520  0.47400  0.28280  1.0000 -0.1297793044
C   C173      1.0  0.49650  0.21850  0.73560  1.0000 -0.0197385172
C   C174      1.0  0.21850  0.49650  0.76440  1.0000 -0.0197385172
C   C175      1.0  0.50350  0.78150  0.26440  1.0000 -0.0197385172
C   C176      1.0  0.78150  0.50350  0.23560  1.0000 -0.0197385172
C   C177      1.0  0.54530  0.20290  0.73490  1.0000 -0.120607383
C   C178      1.0  0.20290  0.54530  0.76510  1.0000 -0.120607383
C   C179      1.0  0.45470  0.79710  0.26510  1.0000 -0.120607383
C   C180      1.0  0.79710  0.45470  0.23490  1.0000 -0.120607383
C   C181      1.0  0.61780  0.21180  0.78030  1.0000 0.0684492677
C   C182      1.0  0.21180  0.61780  0.71970  1.0000 0.0684492677
C   C183      1.0  0.38220  0.78820  0.21970  1.0000 0.0684492677
C   C184      1.0  0.78820  0.38220  0.28030  1.0000 0.0684492677
C   C185      1.0  0.42060  0.21180  0.68850  1.0000 0.5089906329
C   C186      1.0  0.21180  0.42060  0.81150  1.0000 0.5089906329
C   C187      1.0  0.57940  0.78820  0.31150  1.0000 0.5089906329
C   C188      1.0  0.78820  0.57940  0.18850  1.0000 0.5089906329
C   C189      1.0  0.33900  0.21440  0.58200  1.0000 -0.0641372739
C   C190      1.0  0.21440  0.33900  0.91800  1.0000 -0.0641372739
C   C191      1.0  0.66100  0.78560  0.41800  1.0000 -0.0641372739
C   C192      1.0  0.78560  0.66100  0.08200  1.0000 -0.0641372739
C   C193      1.0  0.38560  0.37840  0.43510  1.0000 0.1281926144
C   C194      1.0  0.37840  0.38560  0.06490  1.0000 0.1281926144
C   C195      1.0  0.61440  0.62160  0.56490  1.0000 0.1281926144
C   C196      1.0  0.62160  0.61440  0.93510  1.0000 0.1281926144
C   C197      1.0  0.38930  0.34150  0.41090  1.0000 -0.1914381336
C   C198      1.0  0.34150  0.38930  0.08910  1.0000 -0.1914381336
C   C199      1.0  0.61070  0.65850  0.58910  1.0000 -0.1914381336
C   C200      1.0  0.65850  0.61070  0.91090  1.0000 -0.1914381336
C   C201      1.0  0.37440  0.26480  0.43950  1.0000 0.0998534703
C   C202      1.0  0.26480  0.37440  0.06050  1.0000 0.0998534703
C   C203      1.0  0.62560  0.73520  0.56050  1.0000 0.0998534703
C   C204      1.0  0.73520  0.62560  0.93950  1.0000 0.0998534703
C   C205      1.0  0.35830  0.22110  0.49720  1.0000 -0.1914381336
C   C206      1.0  0.22110  0.35830  0.00280  1.0000 -0.1914381336
C   C207      1.0  0.64170  0.77890  0.50280  1.0000 -0.1914381336
C   C208      1.0  0.77890  0.64170  0.99720  1.0000 -0.1914381336
C   C209      1.0  0.35380  0.25740  0.52170  1.0000 0.0998534703
C   C210      1.0  0.25740  0.35380  0.97830  1.0000 0.0998534703
C   C211      1.0  0.64620  0.74260  0.47830  1.0000 0.0998534703
C   C212      1.0  0.74260  0.64620  0.02170  1.0000 0.0998534703
C   C213      1.0  0.36730  0.33430  0.49020  1.0000 -0.198678126
C   C214      1.0  0.33430  0.36730  0.00980  1.0000 -0.198678126
C   C215      1.0  0.63270  0.66570  0.50980  1.0000 -0.198678126
C   C216      1.0  0.66570  0.63270  0.99020  1.0000 -0.198678126
C   C217      1.0  0.84550  0.62250  0.36300  1.0000 0.4204850295
C   C218      1.0  0.62250  0.84550  0.13700  1.0000 0.4204850295
C   C219      1.0  0.15450  0.37750  0.63700  1.0000 0.4204850295
C   C220      1.0  0.37750  0.15450  0.86300  1.0000 0.4204850295
C   C221      1.0  0.86400  0.56000  0.41600  1.0000 -0.5010164952
C   C222      1.0  0.56000  0.86400  0.08400  1.0000 -0.5010164952
C   C223      1.0  0.13600  0.44000  0.58400  1.0000 -0.5010164952
C   C224      1.0  0.44000  0.13600  0.91600  1.0000 -0.5010164952
C   C225      1.0  0.69960  0.21040  0.00900  1.0000 0.337558935
C   C226      1.0  0.21040  0.69960  0.49100  1.0000 0.337558935
C   C227      1.0  0.30040  0.78960  0.99100  1.0000 0.337558935
C   C228      1.0  0.78960  0.30040  0.50900  1.0000 0.337558935
C   C229      1.0  0.68300  0.19900  0.05800  1.0000 -0.4724269858
C   C230      1.0  0.19900  0.68300  0.44200  1.0000 -0.4724269858
C   C231      1.0  0.31700  0.80100  0.94200  1.0000 -0.4724269858
C   C232      1.0  0.80100  0.31700  0.55800  1.0000 -0.4724269858
N   N1        1.0  0.81730  0.82510  0.19460  1.0000 -0.198678126
N   N2        1.0  0.82510  0.81730  0.30540  1.0000 -0.198678126
N   N3        1.0  0.18270  0.17490  0.80540  1.0000 -0.198678126
N   N4        1.0  0.17490  0.18270  0.69460  1.0000 -0.198678126
N   N5        1.0  0.25760  0.84620  0.08590  1.0000 -0.1914381336
N   N6        1.0  0.84620  0.25760  0.41410  1.0000 -0.1914381336
N   N7        1.0  0.74240  0.15380  0.91410  1.0000 -0.1914381336
N   N8        1.0  0.15380  0.74240  0.58590  1.0000 -0.1914381336
N   N9        1.0  0.62580  0.22540  0.35340  1.0000 -0.198678126
N   N10       1.0  0.22540  0.62580  0.14660  1.0000 -0.198678126
N   N11       1.0  0.37420  0.77460  0.64660  1.0000 -0.198678126
N   N12       1.0  0.77460  0.37420  0.85340  1.0000 -0.198678126
N   N13       1.0  0.67890  0.68090  0.30180  1.0000 -0.2090011762
N   N14       1.0  0.68090  0.67890  0.19820  1.0000 -0.2090011762
N   N15       1.0  0.32110  0.31910  0.69820  1.0000 -0.2090011762
N   N16       1.0  0.31910  0.32110  0.80180  1.0000 -0.2090011762
N   N17       1.0  0.28550  0.86890  0.55340  1.0000 -0.1801808163
N   N18       1.0  0.86890  0.28550  0.94660  1.0000 -0.1801808163
N   N19       1.0  0.71450  0.13110  0.44660  1.0000 -0.1801808163
N   N20       1.0  0.13110  0.71450  0.05340  1.0000 -0.1801808163
N   N21       1.0  0.64640  0.24020  0.82530  1.0000 -0.198678126
N   N22       1.0  0.24020  0.64640  0.67470  1.0000 -0.198678126
N   N23       1.0  0.35360  0.75980  0.17470  1.0000 -0.198678126
N   N24       1.0  0.75980  0.35360  0.32530  1.0000 -0.198678126
N   N25       1.0  0.82480  0.66700  0.32610  1.0000 -0.4577036658
N   N26       1.0  0.66700  0.82480  0.17390  1.0000 -0.4577036658
N   N27       1.0  0.17520  0.33300  0.67390  1.0000 -0.4577036658
N   N28       1.0  0.33300  0.17520  0.82610  1.0000 -0.4577036658
N   N29       1.0  0.71950  0.22550  0.97300  1.0000 -0.4724269858
N   N30       1.0  0.22550  0.71950  0.52700  1.0000 -0.4724269858
N   N31       1.0  0.28050  0.77450  0.02700  1.0000 -0.4724269858
N   N32       1.0  0.77450  0.28050  0.47300  1.0000 -0.4724269858
Cl  Cl1       1.0  0.01800  0.43400  0.28000  1.0000 1.3698276497
Cl  Cl2       1.0  0.43400  0.01800  0.22000  1.0000 1.3698276497
Cl  Cl3       1.0  0.98200  0.56600  0.72000  1.0000 1.3698276497
Cl  Cl4       1.0  0.56600  0.98200  0.78000  1.0000 1.3763004416
Cl  Cl5       1.0  0.26600  0.99300  0.64550  1.0000 1.3698276497
Cl  Cl6       1.0  0.99300  0.26600  0.85450  1.0000 1.3698276497
Cl  Cl7       1.0  0.73400  0.00700  0.35450  1.0000 1.3698276497
Cl  Cl8       1.0  0.00700  0.73400  0.14550  1.0000 1.3698276497
Cl  Cl9       1.0  0.36630  0.58970  0.59920  1.0000 1.387933957
Cl  Cl10      1.0  0.58970  0.36630  0.90080  1.0000 1.387933957
Cl  Cl11      1.0  0.63370  0.41030  0.40080  1.0000 1.387933957
Cl  Cl12      1.0  0.41030  0.63370  0.09920  1.0000 1.387933957
O   O1        1.0  0.99040  0.96560  0.07040  1.0000 -0.4724269858
O   O2        1.0  0.96560  0.99040  0.42960  1.0000 -0.4724269858
O   O3        1.0  0.00960  0.03440  0.92960  1.0000 -0.4724269858
O   O4        1.0  0.03440  0.00960  0.57040  1.0000 -0.4724269858
O   O5        1.0  0.97950  0.05850  0.06740  1.0000 -0.2211053683
O   O6        1.0  0.05850  0.97950  0.43260  1.0000 -0.2211053683
O   O7        1.0  0.02050  0.94150  0.93260  1.0000 -0.2211053683
O   O8        1.0  0.94150  0.02050  0.56740  1.0000 -0.2211053683
O   O9        1.0  0.32070  0.12950  0.98300  1.0000 -0.4577036658
O   O10       1.0  0.12950  0.32070  0.51700  1.0000 -0.4577036658
O   O11       1.0  0.67930  0.87050  0.01700  1.0000 -0.4577036658
O   O12       1.0  0.87050  0.67930  0.48300  1.0000 -0.4577036658
O   O13       1.0  0.24760  0.08160  0.03770  1.0000 -0.198678126
O   O14       1.0  0.08160  0.24760  0.46230  1.0000 -0.198678126
O   O15       1.0  0.75240  0.91840  0.96230  1.0000 -0.198678126
O   O16       1.0  0.91840  0.75240  0.53770  1.0000 -0.198678126
O   O17       1.0  0.36000  0.14600  0.32800  1.0000 -0.4724269858
O   O18       1.0  0.14600  0.36000  0.17200  1.0000 -0.4724269858
O   O19       1.0  0.64000  0.85400  0.67200  1.0000 -0.4724269858
O   O20       1.0  0.85400  0.64000  0.82800  1.0000 -0.4724269858
O   O21       1.0  0.35010  0.18650  0.22700  1.0000 -0.248612774
O   O22       1.0  0.18650  0.35010  0.27300  1.0000 -0.248612774
O   O23       1.0  0.64990  0.81350  0.77300  1.0000 -0.248612774
O   O24       1.0  0.81350  0.64990  0.72700  1.0000 -0.248612774
O   O25       1.0  0.54970  0.50890  0.46420  1.0000 -0.4506081089
O   O26       1.0  0.50890  0.54970  0.03580  1.0000 -0.4506081089
O   O27       1.0  0.45030  0.49110  0.53580  1.0000 -0.4506081089
O   O28       1.0  0.49110  0.45030  0.96420  1.0000 -0.4506081089
O   O29       1.0  0.45280  0.50760  0.36970  1.0000 -0.2301082289
O   O30       1.0  0.50760  0.45280  0.13030  1.0000 -0.2301082289
O   O31       1.0  0.54720  0.49240  0.63030  1.0000 -0.2301082289
O   O32       1.0  0.49240  0.54720  0.86970  1.0000 -0.2301082289
O   O33       1.0  0.25880  0.11320  0.38500  1.0000 -0.4506081089
O   O34       1.0  0.11320  0.25880  0.11500  1.0000 -0.4506081089
O   O35       1.0  0.74120  0.88680  0.61500  1.0000 -0.4506081089
O   O36       1.0  0.88680  0.74120  0.88500  1.0000 -0.4506081089
O   O37       1.0  0.37690  0.15090  0.45160  1.0000 -0.198678126
O   O38       1.0  0.15090  0.37690  0.04840  1.0000 -0.198678126
O   O39       1.0  0.62310  0.84910  0.54840  1.0000 -0.2090011762
O   O40       1.0  0.84910  0.62310  0.95160  1.0000 -0.2090011762
O   O41       1.0  0.37030  0.20430  0.69750  1.0000 -0.4506081089
O   O42       1.0  0.20430  0.37030  0.80250  1.0000 -0.4506081089
O   O43       1.0  0.62970  0.79570  0.30250  1.0000 -0.4577036658
O   O44       1.0  0.79570  0.62970  0.19750  1.0000 -0.4506081089
O   O45       1.0  0.41160  0.21660  0.63440  1.0000 -0.1801808163
O   O46       1.0  0.21660  0.41160  0.86560  1.0000 -0.1801808163
O   O47       1.0  0.58840  0.78340  0.36560  1.0000 -0.1801808163
O   O48       1.0  0.78340  0.58840  0.13440  1.0000 -0.1801808163
O   O49       1.0  0.93100  0.35900  0.27700  1.0000 -0.5676972991
O   O50       1.0  0.03200  0.47200  0.21000  1.0000 -0.6043002134
O   O51       1.0  0.08800  0.40200  0.34200  1.0000 -0.5799610442
O   O52       1.0  0.02300  0.50300  0.29000  1.0000 -0.5584566003
O   O53       1.0  0.35900  0.93100  0.22300  1.0000 -0.5676972991
O   O54       1.0  0.47200  0.03200  0.29000  1.0000 -0.6043002134
O   O55       1.0  0.40200  0.08800  0.15800  1.0000 -0.5799610442
O   O56       1.0  0.50300  0.02300  0.21000  1.0000 -0.5584566003
O   O57       1.0  0.06900  0.64100  0.72300  1.0000 -0.5676972991
O   O58       1.0  0.96800  0.52800  0.79000  1.0000 -0.6043002134
O   O59       1.0  0.91200  0.59800  0.65800  1.0000 -0.5799610442
O   O60       1.0  0.97700  0.49700  0.71000  1.0000 -0.5584566003
O   O61       1.0  0.64100  0.06900  0.77700  1.0000 -0.5676972991
O   O62       1.0  0.52800  0.96800  0.71000  1.0000 -0.6043002134
O   O63       1.0  0.59800  0.91200  0.84200  1.0000 -0.5799610442
O   O64       1.0  0.49700  0.97700  0.79000  1.0000 -0.5584566003
O   O65       1.0  0.22000  0.03800  0.63300  1.0000 -0.5584566003
O   O66       1.0  0.35100  0.00900  0.70800  1.0000 -0.5206782049
O   O67       1.0  0.28300  0.02900  0.57900  1.0000 -0.5885212099
O   O68       1.0  0.21100  0.89700  0.66300  1.0000 -0.551550493
O   O69       1.0  0.03800  0.22000  0.86700  1.0000 -0.551550493
O   O70       1.0  0.00900  0.35100  0.79200  1.0000 -0.5206782049
O   O71       1.0  0.02900  0.28300  0.92100  1.0000 -0.5885212099
O   O72       1.0  0.89700  0.21100  0.83700  1.0000 -0.551550493
O   O73       1.0  0.78000  0.96200  0.36700  1.0000 -0.551550493
O   O74       1.0  0.64900  0.99100  0.29200  1.0000 -0.5206782049
O   O75       1.0  0.71700  0.97100  0.42100  1.0000 -0.5885212099
O   O76       1.0  0.78900  0.10300  0.33700  1.0000 -0.551550493
O   O77       1.0  0.96200  0.78000  0.13300  1.0000 -0.551550493
O   O78       1.0  0.99100  0.64900  0.20800  1.0000 -0.5206782049
O   O79       1.0  0.97100  0.71700  0.07900  1.0000 -0.5885212099
O   O80       1.0  0.10300  0.78900  0.16300  1.0000 -0.551550493
O   O81       1.0  0.41820  0.58180  0.57900  1.0000 -0.551550493
O   O82       1.0  0.34100  0.66500  0.54200  1.0000 -0.5799610442
O   O83       1.0  0.28530  0.50730  0.60600  1.0000 -0.5799610442
O   O84       1.0  0.42000  0.60400  0.67000  1.0000 -0.5799610442
O   O85       1.0  0.58180  0.41820  0.92100  1.0000 -0.551550493
O   O86       1.0  0.66500  0.34100  0.95800  1.0000 -0.5799610442
O   O87       1.0  0.50730  0.28530  0.89400  1.0000 -0.5799610442
O   O88       1.0  0.60400  0.42000  0.83000  1.0000 -0.5799610442
O   O89       1.0  0.58180  0.41820  0.42100  1.0000 -0.551550493
O   O90       1.0  0.65900  0.33500  0.45800  1.0000 -0.5799610442
O   O91       1.0  0.71470  0.49270  0.39400  1.0000 -0.5799610442
O   O92       1.0  0.58000  0.39600  0.33000  1.0000 -0.5799610442
O   O93       1.0  0.41820  0.58180  0.07900  1.0000 -0.551550493
O   O94       1.0  0.33500  0.65900  0.04200  1.0000 -0.5799610442
O   O95       1.0  0.49270  0.71470  0.10600  1.0000 -0.5799610442
O   O96       1.0  0.39600  0.58000  0.17000  1.0000 -0.5799610442
