# DDEC6 charges by PACMAN v1.1 (https://github.com/mtap-research/PACMAN-charge/)
data_2015[Dy][pcu]3[ION]1
_chemical_formula_sum              "Dy16 H60 C48 N12 Cl8 O128"
_cell_length_a       14.011
_cell_length_b       18.822
_cell_length_c       23.421
_cell_angle_alpha    90
_cell_angle_beta     90
_cell_angle_gamma    90

_symmetry_space_group_name_H-M    "P 1"
_symmetry_Int_Tables_number       1

loop_
  _symmetry_equiv_pos_as_xyz
  'x, y, z'

loop_
  _atom_site_type_symbol
  _atom_site_label
  _atom_site_symmetry_multiplicity
  _atom_site_fract_x
  _atom_site_fract_y
  _atom_site_fract_z
  _atom_site_occupancy
  _atom_site_charge
Dy  Dy1       1.0  0.74103  0.10844  0.08052  1.0000 2.1741235037
Dy  Dy2       1.0  0.75897  0.89156  0.58052  1.0000 2.1818240832
Dy  Dy3       1.0  0.25897  0.60844  0.41948  1.0000 2.1741235037
Dy  Dy4       1.0  0.24103  0.39156  0.91948  1.0000 2.1741235037
Dy  Dy5       1.0  0.74454  0.91004  0.10366  1.0000 2.1858063547
Dy  Dy6       1.0  0.75546  0.08996  0.60366  1.0000 2.1818240832
Dy  Dy7       1.0  0.25546  0.41004  0.39634  1.0000 2.1818240832
Dy  Dy8       1.0  0.24454  0.58996  0.89634  1.0000 2.1818240832
Dy  Dy9       1.0  0.59720  0.98502  0.98601  1.0000 2.1818240832
Dy  Dy10      1.0  0.90280  0.01498  0.48601  1.0000 2.1858063547
Dy  Dy11      1.0  0.40280  0.48502  0.51399  1.0000 2.1818240832
Dy  Dy12      1.0  0.09720  0.51498  0.01399  1.0000 2.1818240832
Dy  Dy13      1.0  0.87149  0.99361  0.97676  1.0000 2.1741235037
Dy  Dy14      1.0  0.62851  0.00639  0.47676  1.0000 2.1741235037
Dy  Dy15      1.0  0.12851  0.49361  0.52324  1.0000 2.1741235037
Dy  Dy16      1.0  0.37149  0.50639  0.02324  1.0000 2.1741235037
H   H1        1.0  0.99890  0.68860  0.07300  1.0000 0.328312386
H   H2        1.0  0.50110  0.31140  0.57300  1.0000 0.328312386
H   H3        1.0  0.00110  0.18860  0.42700  1.0000 0.328312386
H   H4        1.0  0.49890  0.81140  0.92700  1.0000 0.328312386
H   H5        1.0  0.90000  0.71490  0.08270  1.0000 0.3165647744
H   H6        1.0  0.60000  0.28510  0.58270  1.0000 0.3165647744
H   H7        1.0  0.10000  0.21490  0.41730  1.0000 0.3165647744
H   H8        1.0  0.40000  0.78510  0.91730  1.0000 0.3165647744
H   H9        1.0  0.53300  0.33050  0.07900  1.0000 0.328312386
H   H10       1.0  0.96700  0.66950  0.57900  1.0000 0.328312386
H   H11       1.0  0.46700  0.83050  0.42100  1.0000 0.328312386
H   H12       1.0  0.03300  0.16950  0.92100  1.0000 0.328312386
H   H13       1.0  0.56080  0.25510  0.08850  1.0000 0.328312386
H   H14       1.0  0.93920  0.74490  0.58850  1.0000 0.328312386
H   H15       1.0  0.43920  0.75510  0.41150  1.0000 0.328312386
H   H16       1.0  0.06080  0.24490  0.91150  1.0000 0.328312386
H   H17       1.0  0.90590  0.99190  0.25710  1.0000 0.3165647744
H   H18       1.0  0.59410  0.00810  0.75710  1.0000 0.3144294826
H   H19       1.0  0.09410  0.49190  0.24290  1.0000 0.3165647744
H   H20       1.0  0.40590  0.50810  0.74290  1.0000 0.3144294826
H   H21       1.0  0.90590  0.93580  0.30200  1.0000 0.328312386
H   H22       1.0  0.59410  0.06420  0.80200  1.0000 0.328312386
H   H23       1.0  0.09410  0.43580  0.19800  1.0000 0.328312386
H   H24       1.0  0.40590  0.56420  0.69800  1.0000 0.328312386
H   H25       1.0  0.91290  0.73670  0.98960  1.0000 0.1278725865
H   H26       1.0  0.58710  0.26330  0.48960  1.0000 0.1278725865
H   H27       1.0  0.08710  0.23670  0.51040  1.0000 0.1278725865
H   H28       1.0  0.41290  0.76330  0.01040  1.0000 0.1278725865
H   H29       1.0  0.09490  0.78320  0.00450  1.0000 0.1707717983
H   H30       1.0  0.40510  0.21680  0.50450  1.0000 0.1707717983
H   H31       1.0  0.90510  0.28320  0.49550  1.0000 0.1707717983
H   H32       1.0  0.59490  0.71680  0.99550  1.0000 0.1707717983
H   H33       1.0  0.03520  0.78430  0.94810  1.0000 0.1707717983
H   H34       1.0  0.46480  0.21570  0.44810  1.0000 0.1707717983
H   H35       1.0  0.96480  0.28430  0.55190  1.0000 0.1707717983
H   H36       1.0  0.53520  0.71570  0.05190  1.0000 0.1707717983
H   H37       1.0  0.40560  0.23310  0.05330  1.0000 0.1204734279
H   H38       1.0  0.09440  0.76690  0.55330  1.0000 0.1204734279
H   H39       1.0  0.59440  0.73310  0.44670  1.0000 0.1204734279
H   H40       1.0  0.90560  0.26690  0.94670  1.0000 0.1204734279
H   H41       1.0  0.44390  0.20900  0.95630  1.0000 0.1707717983
H   H42       1.0  0.05610  0.79100  0.45630  1.0000 0.1707717983
H   H43       1.0  0.55610  0.70900  0.54370  1.0000 0.1707717983
H   H44       1.0  0.94390  0.29100  0.04370  1.0000 0.1707717983
H   H45       1.0  0.53930  0.25180  0.96260  1.0000 0.1707717983
H   H46       1.0  0.96070  0.74820  0.46260  1.0000 0.1707717983
H   H47       1.0  0.46070  0.75180  0.53740  1.0000 0.1707717983
H   H48       1.0  0.03930  0.24820  0.03740  1.0000 0.1707717983
H   H49       1.0  0.74040  0.95090  0.29600  1.0000 0.1204734279
H   H50       1.0  0.75960  0.04910  0.79600  1.0000 0.1204734279
H   H51       1.0  0.25960  0.45090  0.20400  1.0000 0.1204734279
H   H52       1.0  0.24040  0.54910  0.70400  1.0000 0.1204734279
H   H53       1.0  0.77360  0.09580  0.27710  1.0000 0.1707717983
H   H54       1.0  0.72640  0.90420  0.77710  1.0000 0.1707717983
H   H55       1.0  0.22640  0.59580  0.22290  1.0000 0.1707717983
H   H56       1.0  0.27360  0.40420  0.72290  1.0000 0.1707717983
H   H57       1.0  0.67290  0.06070  0.28410  1.0000 0.1811567901
H   H58       1.0  0.82710  0.93930  0.78410  1.0000 0.1811567901
H   H59       1.0  0.32710  0.56070  0.21590  1.0000 0.1811567901
H   H60       1.0  0.17290  0.43930  0.71590  1.0000 0.1811567901
C   C1        1.0  0.91770  0.83150  0.02760  1.0000 0.6490220883
C   C2        1.0  0.58230  0.16850  0.52760  1.0000 0.6490220883
C   C3        1.0  0.08230  0.33150  0.47240  1.0000 0.6490220883
C   C4        1.0  0.41770  0.66850  0.97240  1.0000 0.6490220883
C   C5        1.0  0.95930  0.75760  0.01610  1.0000 0.086571647
C   C6        1.0  0.54070  0.24240  0.51610  1.0000 0.086571647
C   C7        1.0  0.04070  0.25760  0.48390  1.0000 0.0848220272
C   C8        1.0  0.45930  0.74240  0.98390  1.0000 0.086571647
C   C9        1.0  0.04660  0.75780  0.98300  1.0000 -0.3421525955
C   C10       1.0  0.45340  0.24220  0.48300  1.0000 -0.3421525955
C   C11       1.0  0.95340  0.25780  0.51700  1.0000 -0.3421525955
C   C12       1.0  0.54660  0.74220  0.01700  1.0000 -0.3421525955
C   C13       1.0  0.08630  0.68570  0.96710  1.0000 0.7388550846
C   C14       1.0  0.41370  0.31430  0.46710  1.0000 0.7388550846
C   C15       1.0  0.91370  0.18570  0.53290  1.0000 0.7388550846
C   C16       1.0  0.58630  0.81430  0.03290  1.0000 0.7388550846
C   C17       1.0  0.39960  0.32930  0.01070  1.0000 0.6490220883
C   C18       1.0  0.10040  0.67070  0.51070  1.0000 0.6490220883
C   C19       1.0  0.60040  0.82930  0.48930  1.0000 0.6490220883
C   C20       1.0  0.89960  0.17070  0.98930  1.0000 0.6490220883
C   C21       1.0  0.45120  0.26340  0.03300  1.0000 0.0682946358
C   C22       1.0  0.04880  0.73660  0.53300  1.0000 0.0682946358
C   C23       1.0  0.54880  0.76340  0.46700  1.0000 0.0682946358
C   C24       1.0  0.95120  0.23660  0.96700  1.0000 0.0682946358
C   C25       1.0  0.49440  0.22160  0.98270  1.0000 -0.3421525955
C   C26       1.0  0.00560  0.77840  0.48270  1.0000 -0.3421525955
C   C27       1.0  0.50560  0.72160  0.51730  1.0000 -0.3421525955
C   C28       1.0  0.99440  0.27840  0.01730  1.0000 -0.3421525955
C   C29       1.0  0.54550  0.15410  0.00160  1.0000 0.7492916642
C   C30       1.0  0.95450  0.84590  0.50160  1.0000 0.7492916642
C   C31       1.0  0.45450  0.65410  0.49840  1.0000 0.7492916642
C   C32       1.0  0.04550  0.34590  0.99840  1.0000 0.7492916642
C   C33       1.0  0.77700  0.00760  0.36560  1.0000 0.6490220883
C   C34       1.0  0.72300  0.99240  0.86560  1.0000 0.6490220883
C   C35       1.0  0.22300  0.50760  0.13440  1.0000 0.6490220883
C   C36       1.0  0.27700  0.49240  0.63440  1.0000 0.6490220883
C   C37       1.0  0.78170  0.99210  0.30240  1.0000 0.0682946358
C   C38       1.0  0.71830  0.00790  0.80240  1.0000 0.0641477017
C   C39       1.0  0.21830  0.49210  0.19760  1.0000 0.0682946358
C   C40       1.0  0.28170  0.50790  0.69760  1.0000 0.0682946358
C   C41       1.0  0.73710  0.05300  0.27000  1.0000 -0.3421525955
C   C42       1.0  0.76290  0.94700  0.77000  1.0000 -0.3421525955
C   C43       1.0  0.26290  0.55300  0.23000  1.0000 -0.3421525955
C   C44       1.0  0.23710  0.44700  0.73000  1.0000 -0.3421525955
C   C45       1.0  0.73280  0.03950  0.20417  1.0000 0.7492916642
C   C46       1.0  0.76720  0.96050  0.70417  1.0000 0.7492916642
C   C47       1.0  0.26720  0.53950  0.29583  1.0000 0.7492916642
C   C48       1.0  0.23280  0.46050  0.79583  1.0000 0.7492916642
N   N1        1.0  0.95180  0.71510  0.06300  1.0000 -0.4095566174
N   N2        1.0  0.54820  0.28490  0.56300  1.0000 -0.4095566174
N   N3        1.0  0.04820  0.21510  0.43700  1.0000 -0.4095566174
N   N4        1.0  0.45180  0.78490  0.93700  1.0000 -0.4095566174
N   N5        1.0  0.52500  0.28610  0.07210  1.0000 -0.4771572741
N   N6        1.0  0.97500  0.71390  0.57210  1.0000 -0.4771572741
N   N7        1.0  0.47500  0.78610  0.42790  1.0000 -0.4771572741
N   N8        1.0  0.02500  0.21390  0.92790  1.0000 -0.4771572741
N   N9        1.0  0.87770  0.97030  0.28470  1.0000 -0.4423466528
N   N10       1.0  0.62230  0.02970  0.78470  1.0000 -0.4423466528
N   N11       1.0  0.12230  0.47030  0.21530  1.0000 -0.4423466528
N   N12       1.0  0.37770  0.52970  0.71530  1.0000 -0.4423466528
Cl  Cl1       1.0  0.22710  0.29183  0.14735  1.0000 1.2789618282
Cl  Cl2       1.0  0.27290  0.70817  0.64735  1.0000 1.2789618282
Cl  Cl3       1.0  0.77290  0.79183  0.35265  1.0000 1.2789618282
Cl  Cl4       1.0  0.72710  0.20817  0.85265  1.0000 1.2789618282
Cl  Cl5       1.0  0.24265  0.72128  0.11417  1.0000 1.2932135372
Cl  Cl6       1.0  0.25735  0.27872  0.61417  1.0000 1.2932135372
Cl  Cl7       1.0  0.75735  0.22128  0.38583  1.0000 1.2932135372
Cl  Cl8       1.0  0.74265  0.77872  0.88583  1.0000 1.2932135372
O   O1        1.0  0.73007  0.06148  0.98836  1.0000 -0.9111539316
O   O2        1.0  0.76993  0.93852  0.48836  1.0000 -0.9111539316
O   O3        1.0  0.26993  0.56148  0.51164  1.0000 -0.9111539316
O   O4        1.0  0.23007  0.43852  0.01164  1.0000 -0.9191357287
O   O5        1.0  0.83974  0.00913  0.07426  1.0000 -1.0375788999
O   O6        1.0  0.66026  0.99087  0.57426  1.0000 -1.0346125754
O   O7        1.0  0.16026  0.50913  0.42574  1.0000 -1.0375788999
O   O8        1.0  0.33974  0.49087  0.92574  1.0000 -1.0375788999
O   O9        1.0  0.73830  0.92356  0.00091  1.0000 -0.9859008781
O   O10       1.0  0.76170  0.07644  0.50091  1.0000 -0.9859008781
O   O11       1.0  0.26170  0.42356  0.49909  1.0000 -0.9969664009
O   O12       1.0  0.23830  0.57644  0.99909  1.0000 -0.9859008781
O   O13       1.0  0.64298  0.00365  0.07984  1.0000 -1.0516217144
O   O14       1.0  0.85702  0.99635  0.57984  1.0000 -1.067276636
O   O15       1.0  0.35702  0.50365  0.42016  1.0000 -1.0516217144
O   O16       1.0  0.14298  0.49635  0.92016  1.0000 -1.067276636
O   O17       1.0  0.93040  0.87850  0.98870  1.0000 -0.5710159873
O   O18       1.0  0.56960  0.12150  0.48870  1.0000 -0.5710159873
O   O19       1.0  0.06960  0.37850  0.51130  1.0000 -0.5710159873
O   O20       1.0  0.43040  0.62150  0.01130  1.0000 -0.5710159873
O   O21       1.0  0.86750  0.83790  0.06990  1.0000 -0.5506032916
O   O22       1.0  0.63250  0.16210  0.56990  1.0000 -0.5506032916
O   O23       1.0  0.13250  0.33790  0.43010  1.0000 -0.5506032916
O   O24       1.0  0.36750  0.66210  0.93010  1.0000 -0.5506032916
O   O25       1.0  0.15630  0.68689  0.93137  1.0000 -0.5710159873
O   O26       1.0  0.34370  0.31311  0.43137  1.0000 -0.5710159873
O   O27       1.0  0.84370  0.18689  0.56863  1.0000 -0.5710159873
O   O28       1.0  0.65630  0.81311  0.06863  1.0000 -0.5710159873
O   O29       1.0  0.05240  0.63352  0.98903  1.0000 -0.5506032916
O   O30       1.0  0.44760  0.36648  0.48903  1.0000 -0.5506032916
O   O31       1.0  0.94760  0.13352  0.51097  1.0000 -0.5506032916
O   O32       1.0  0.55240  0.86648  0.01097  1.0000 -0.5506032916
O   O33       1.0  0.33260  0.31588  0.97633  1.0000 -0.5710159873
O   O34       1.0  0.16740  0.68412  0.47633  1.0000 -0.5710159873
O   O35       1.0  0.66740  0.81588  0.52367  1.0000 -0.5710159873
O   O36       1.0  0.83260  0.18412  0.02367  1.0000 -0.5710159873
O   O37       1.0  0.42430  0.38733  0.02777  1.0000 -0.5640005859
O   O38       1.0  0.07570  0.61267  0.52777  1.0000 -0.5710159873
O   O39       1.0  0.57570  0.88733  0.47223  1.0000 -0.5710159873
O   O40       1.0  0.92430  0.11267  0.97223  1.0000 -0.5710159873
O   O41       1.0  0.53670  0.09885  0.97183  1.0000 -0.5710159873
O   O42       1.0  0.96330  0.90115  0.47183  1.0000 -0.5710159873
O   O43       1.0  0.46330  0.59885  0.52817  1.0000 -0.5710159873
O   O44       1.0  0.03670  0.40115  0.02817  1.0000 -0.5710159873
O   O45       1.0  0.59840  0.15651  0.04538  1.0000 -0.5777952762
O   O46       1.0  0.90160  0.84349  0.54538  1.0000 -0.5710159873
O   O47       1.0  0.40160  0.65651  0.45462  1.0000 -0.5777952762
O   O48       1.0  0.09840  0.34349  0.95462  1.0000 -0.5710159873
O   O49       1.0  0.85340  0.01250  0.39179  1.0000 -0.5326676758
O   O50       1.0  0.64660  0.98750  0.89179  1.0000 -0.5326676758
O   O51       1.0  0.14660  0.51250  0.10821  1.0000 -0.5326676758
O   O52       1.0  0.35340  0.48750  0.60821  1.0000 -0.5326676758
O   O53       1.0  0.69570  0.01140  0.38546  1.0000 -0.54490743
O   O54       1.0  0.80430  0.98860  0.88546  1.0000 -0.54490743
O   O55       1.0  0.30430  0.51140  0.11454  1.0000 -0.5506032916
O   O56       1.0  0.19570  0.48860  0.61454  1.0000 -0.5506032916
O   O57       1.0  0.75720  0.98151  0.18632  1.0000 -0.5963060053
O   O58       1.0  0.74280  0.01849  0.68632  1.0000 -0.5923583897
O   O59       1.0  0.24280  0.48151  0.31368  1.0000 -0.5923583897
O   O60       1.0  0.25720  0.51849  0.81368  1.0000 -0.5923583897
O   O61       1.0  0.70210  0.09170  0.17534  1.0000 -0.5777952762
O   O62       1.0  0.79790  0.90830  0.67534  1.0000 -0.5777952762
O   O63       1.0  0.29790  0.59170  0.32466  1.0000 -0.5777952762
O   O64       1.0  0.20210  0.40830  0.82466  1.0000 -0.5777952762
O   O65       1.0  0.88730  0.13020  0.13670  1.0000 -0.1633899353
O   O66       1.0  0.61270  0.86980  0.63670  1.0000 -0.1633899353
O   O67       1.0  0.11270  0.63020  0.36330  1.0000 -0.170274684
O   O68       1.0  0.38730  0.36980  0.86330  1.0000 -0.1633899353
O   O69       1.0  0.72270  0.22638  0.12226  1.0000 -0.46210579
O   O70       1.0  0.77730  0.77362  0.62226  1.0000 -0.4663394483
O   O71       1.0  0.27730  0.72638  0.37774  1.0000 -0.4663394483
O   O72       1.0  0.22270  0.27362  0.87774  1.0000 -0.4663394483
O   O73       1.0  0.60620  0.88940  0.16520  1.0000 -0.2167513536
O   O74       1.0  0.89380  0.11060  0.66520  1.0000 -0.2114588486
O   O75       1.0  0.39380  0.38940  0.33480  1.0000 -0.2167513536
O   O76       1.0  0.10620  0.61060  0.83480  1.0000 -0.2114588486
O   O77       1.0  0.78570  0.82630  0.17656  1.0000 -0.3299771043
O   O78       1.0  0.71430  0.17370  0.67656  1.0000 -0.3232023211
O   O79       1.0  0.21430  0.32630  0.32344  1.0000 -0.3299771043
O   O80       1.0  0.28570  0.67370  0.82344  1.0000 -0.3299771043
O   O81       1.0  0.44680  0.99170  0.03799  1.0000 -0.3489177418
O   O82       1.0  0.05320  0.00830  0.53799  1.0000 -0.3489177418
O   O83       1.0  0.55320  0.49170  0.46201  1.0000 -0.3489177418
O   O84       1.0  0.94680  0.50830  0.96201  1.0000 -0.3421525955
O   O85       1.0  0.46610  0.95160  0.92319  1.0000 -0.4536155851
O   O86       1.0  0.03390  0.04840  0.42319  1.0000 -0.4536155851
O   O87       1.0  0.53390  0.45160  0.57681  1.0000 -0.4536155851
O   O88       1.0  0.96610  0.54840  0.07681  1.0000 -0.4536155851
O   O89       1.0  0.99560  0.98280  0.90442  1.0000 -0.3890355321
O   O90       1.0  0.50440  0.01720  0.40442  1.0000 -0.3813045534
O   O91       1.0  0.00440  0.48280  0.59558  1.0000 -0.3813045534
O   O92       1.0  0.49560  0.51720  0.09558  1.0000 -0.3813045534
O   O93       1.0  0.02810  0.00280  0.02420  1.0000 -0.2942001017
O   O94       1.0  0.47190  0.99720  0.52420  1.0000 -0.2942001017
O   O95       1.0  0.97190  0.50280  0.47580  1.0000 -0.2942001017
O   O96       1.0  0.52810  0.49720  0.97580  1.0000 -0.2942001017
O   O97       1.0  0.33333  0.29640  0.15290  1.0000 -0.4423466528
O   O98       1.0  0.19120  0.22120  0.14750  1.0000 -0.4095566174
O   O99       1.0  0.19740  0.33740  0.10200  1.0000 -0.3813045534
O   O100      1.0  0.19630  0.32830  0.20310  1.0000 -0.3890355321
O   O101      1.0  0.16670  0.70360  0.65290  1.0000 -0.4423466528
O   O102      1.0  0.30880  0.77880  0.64750  1.0000 -0.4154217633
O   O103      1.0  0.30260  0.66260  0.60200  1.0000 -0.3813045534
O   O104      1.0  0.30370  0.67170  0.70310  1.0000 -0.3890355321
O   O105      1.0  0.66667  0.79640  0.34710  1.0000 -0.4423466528
O   O106      1.0  0.80880  0.72120  0.35250  1.0000 -0.4154217633
O   O107      1.0  0.80260  0.83740  0.39800  1.0000 -0.3813045534
O   O108      1.0  0.80370  0.82830  0.29690  1.0000 -0.3890355321
O   O109      1.0  0.83330  0.20360  0.84710  1.0000 -0.4423466528
O   O110      1.0  0.69120  0.27880  0.85250  1.0000 -0.4154217633
O   O111      1.0  0.69740  0.16260  0.89800  1.0000 -0.3813045534
O   O112      1.0  0.69630  0.17170  0.79690  1.0000 -0.3890355321
O   O113      1.0  0.25590  0.79200  0.13390  1.0000 -0.4095566174
O   O114      1.0  0.15370  0.68910  0.13380  1.0000 -0.4314401539
O   O115      1.0  0.32390  0.67510  0.13010  1.0000 -0.3890355321
O   O116      1.0  0.24190  0.72180  0.05080  1.0000 -0.4095566174
O   O117      1.0  0.24410  0.20800  0.63390  1.0000 -0.4049737545
O   O118      1.0  0.34630  0.31090  0.63380  1.0000 -0.4314401539
O   O119      1.0  0.17610  0.32490  0.63010  1.0000 -0.3813045534
O   O120      1.0  0.25810  0.27820  0.55080  1.0000 -0.4095566174
O   O121      1.0  0.74410  0.29200  0.36610  1.0000 -0.4095566174
O   O122      1.0  0.84630  0.18910  0.36620  1.0000 -0.4314401539
O   O123      1.0  0.67610  0.17510  0.36990  1.0000 -0.3813045534
O   O124      1.0  0.75810  0.22180  0.44920  1.0000 -0.4095566174
O   O125      1.0  0.75590  0.70800  0.86610  1.0000 -0.4049737545
O   O126      1.0  0.65370  0.81090  0.86620  1.0000 -0.4314401539
O   O127      1.0  0.82390  0.82490  0.86990  1.0000 -0.3813045534
O   O128      1.0  0.74190  0.77820  0.94920  1.0000 -0.4095566174
