# DDEC6 charges by PACMAN v1.1 (https://github.com/mtap-research/PACMAN-charge/)
data_2015[In][nan]3[ION]1
_chemical_formula_sum              "In16 H88 C96 N24 O112"
_cell_length_a       9.3366
_cell_length_b       21.917
_cell_length_c       24.057
_cell_angle_alpha    90
_cell_angle_beta     90
_cell_angle_gamma    90

_symmetry_space_group_name_H-M    "P 1"
_symmetry_Int_Tables_number       1

loop_
  _symmetry_equiv_pos_as_xyz
  'x, y, z'

loop_
  _atom_site_type_symbol
  _atom_site_label
  _atom_site_symmetry_multiplicity
  _atom_site_fract_x
  _atom_site_fract_y
  _atom_site_fract_z
  _atom_site_occupancy
  _atom_site_charge
In  In1       1.0  0.15669  0.11090  0.02505  1.0000 1.3185991581
In  In2       1.0  0.34331  0.88910  0.52505  1.0000 1.3185991581
In  In3       1.0  0.84331  0.61090  0.47495  1.0000 1.3185991581
In  In4       1.0  0.65669  0.38910  0.97495  1.0000 1.3185991581
In  In5       1.0  0.84331  0.88910  0.97495  1.0000 1.3185991581
In  In6       1.0  0.65669  0.11090  0.47495  1.0000 1.3185991581
In  In7       1.0  0.15669  0.38910  0.52505  1.0000 1.3185991581
In  In8       1.0  0.34331  0.61090  0.02505  1.0000 1.3185991581
In  In9       1.0  0.82358  0.26245  0.17808  1.0000 1.3827854927
In  In10      1.0  0.67642  0.73755  0.67808  1.0000 1.3827854927
In  In11      1.0  0.17642  0.76245  0.32192  1.0000 1.3827854927
In  In12      1.0  0.32358  0.23755  0.82192  1.0000 1.3827854927
In  In13      1.0  0.17642  0.73755  0.82192  1.0000 1.3827854927
In  In14      1.0  0.32358  0.26245  0.32192  1.0000 1.3827854927
In  In15      1.0  0.82358  0.23755  0.67808  1.0000 1.3827854927
In  In16      1.0  0.67642  0.76245  0.17808  1.0000 1.3827854927
H   H1        1.0  0.41304  0.00432  0.03961  1.0000 0.1037913125
H   H2        1.0  0.08696  0.99568  0.53961  1.0000 0.1037913125
H   H3        1.0  0.58696  0.50432  0.46039  1.0000 0.1037913125
H   H4        1.0  0.91304  0.49568  0.96039  1.0000 0.1037913125
H   H5        1.0  0.58696  0.99568  0.96039  1.0000 0.1037913125
H   H6        1.0  0.91304  0.00432  0.46039  1.0000 0.1037913125
H   H7        1.0  0.41304  0.49568  0.53961  1.0000 0.1037913125
H   H8        1.0  0.08696  0.50432  0.03961  1.0000 0.1037913125
H   H9        1.0  0.42307  0.18455  0.10104  1.0000 0.0922110315
H   H10       1.0  0.07693  0.81545  0.60104  1.0000 0.0922110315
H   H11       1.0  0.57693  0.68455  0.39896  1.0000 0.0922110315
H   H12       1.0  0.92307  0.31545  0.89896  1.0000 0.0922110315
H   H13       1.0  0.57693  0.81545  0.89896  1.0000 0.0922110315
H   H14       1.0  0.92307  0.18455  0.39896  1.0000 0.0922110315
H   H15       1.0  0.42307  0.31545  0.60104  1.0000 0.0922110315
H   H16       1.0  0.07693  0.68455  0.10104  1.0000 0.0922110315
H   H17       1.0  0.67234  0.02678  0.08077  1.0000 0.105954827
H   H18       1.0  0.82766  0.97322  0.58077  1.0000 0.105954827
H   H19       1.0  0.32766  0.52678  0.41923  1.0000 0.105954827
H   H20       1.0  0.17234  0.47322  0.91923  1.0000 0.105954827
H   H21       1.0  0.32766  0.97322  0.91923  1.0000 0.105954827
H   H22       1.0  0.17234  0.02678  0.41923  1.0000 0.105954827
H   H23       1.0  0.67234  0.47322  0.58077  1.0000 0.105954827
H   H24       1.0  0.82766  0.52678  0.08077  1.0000 0.105954827
H   H25       1.0  0.17784  0.41488  0.13056  1.0000 0.2831835572
H   H26       1.0  0.32216  0.58512  0.63056  1.0000 0.2831835572
H   H27       1.0  0.82216  0.91488  0.36944  1.0000 0.2831835572
H   H28       1.0  0.67784  0.08512  0.86944  1.0000 0.2831835572
H   H29       1.0  0.82216  0.58512  0.86944  1.0000 0.2831835572
H   H30       1.0  0.67784  0.41488  0.36944  1.0000 0.2831835572
H   H31       1.0  0.17784  0.08512  0.63056  1.0000 0.2831835572
H   H32       1.0  0.32216  0.91488  0.13056  1.0000 0.2831835572
H   H33       1.0  0.09897  0.34756  0.13530  1.0000 0.2850069936
H   H34       1.0  0.40103  0.65244  0.63530  1.0000 0.2850069936
H   H35       1.0  0.90103  0.84756  0.36470  1.0000 0.2850069936
H   H36       1.0  0.59897  0.15244  0.86470  1.0000 0.2850069936
H   H37       1.0  0.90103  0.65244  0.86470  1.0000 0.2850069936
H   H38       1.0  0.59897  0.34756  0.36470  1.0000 0.2850069936
H   H39       1.0  0.09897  0.15244  0.63530  1.0000 0.2850069936
H   H40       1.0  0.40103  0.84756  0.13530  1.0000 0.2850069936
H   H41       1.0  0.25339  0.39288  0.03557  1.0000 0.1386045825
H   H42       1.0  0.24661  0.60712  0.53557  1.0000 0.1386045825
H   H43       1.0  0.74661  0.89288  0.46443  1.0000 0.1386045825
H   H44       1.0  0.75339  0.10712  0.96443  1.0000 0.1386045825
H   H45       1.0  0.74661  0.60712  0.96443  1.0000 0.1386045825
H   H46       1.0  0.75339  0.39288  0.46443  1.0000 0.1386045825
H   H47       1.0  0.25339  0.10712  0.53557  1.0000 0.1386045825
H   H48       1.0  0.24661  0.89288  0.03557  1.0000 0.1386045825
H   H49       1.0  0.06173  0.39177  0.04519  1.0000 0.1319739557
H   H50       1.0  0.43827  0.60823  0.54519  1.0000 0.1319739557
H   H51       1.0  0.93827  0.89177  0.45481  1.0000 0.1319739557
H   H52       1.0  0.56173  0.10823  0.95481  1.0000 0.1319739557
H   H53       1.0  0.93827  0.60823  0.95481  1.0000 0.1319739557
H   H54       1.0  0.56173  0.39177  0.45481  1.0000 0.1319739557
H   H55       1.0  0.06173  0.10823  0.54519  1.0000 0.1319739557
H   H56       1.0  0.43827  0.89177  0.04519  1.0000 0.1319739557
H   H57       1.0  0.15942  0.32164  0.04158  1.0000 0.1461963888
H   H58       1.0  0.34058  0.67836  0.54158  1.0000 0.1461963888
H   H59       1.0  0.84058  0.82164  0.45842  1.0000 0.1461963888
H   H60       1.0  0.65942  0.17836  0.95842  1.0000 0.1461963888
H   H61       1.0  0.84058  0.67836  0.95842  1.0000 0.1461963888
H   H62       1.0  0.65942  0.32164  0.45842  1.0000 0.1461963888
H   H63       1.0  0.15942  0.17836  0.54158  1.0000 0.1461963888
H   H64       1.0  0.34058  0.82164  0.04158  1.0000 0.1461963888
H   H65       1.0  0.32481  0.29576  0.12073  1.0000 0.1386045825
H   H66       1.0  0.17519  0.70424  0.62073  1.0000 0.1386045825
H   H67       1.0  0.67519  0.79576  0.37927  1.0000 0.1386045825
H   H68       1.0  0.82481  0.20424  0.87927  1.0000 0.1386045825
H   H69       1.0  0.67519  0.70424  0.87927  1.0000 0.1386045825
H   H70       1.0  0.82481  0.29576  0.37927  1.0000 0.1386045825
H   H71       1.0  0.32481  0.20424  0.62073  1.0000 0.1386045825
H   H72       1.0  0.17519  0.79576  0.12073  1.0000 0.1386045825
H   H73       1.0  0.32595  0.34428  0.18072  1.0000 0.1319739557
H   H74       1.0  0.17405  0.65572  0.68072  1.0000 0.1319739557
H   H75       1.0  0.67405  0.84428  0.31928  1.0000 0.1319739557
H   H76       1.0  0.82595  0.15572  0.81928  1.0000 0.1319739557
H   H77       1.0  0.67405  0.65572  0.81928  1.0000 0.1319739557
H   H78       1.0  0.82595  0.34428  0.31928  1.0000 0.1319739557
H   H79       1.0  0.32595  0.15572  0.68072  1.0000 0.1319739557
H   H80       1.0  0.17405  0.84428  0.18072  1.0000 0.1319739557
H   H81       1.0  0.40983  0.36915  0.11699  1.0000 0.1319739557
H   H82       1.0  0.09017  0.63085  0.61699  1.0000 0.1319739557
H   H83       1.0  0.59017  0.86915  0.38301  1.0000 0.1319739557
H   H84       1.0  0.90983  0.13085  0.88301  1.0000 0.1319739557
H   H85       1.0  0.59017  0.63085  0.88301  1.0000 0.1319739557
H   H86       1.0  0.90983  0.36915  0.38301  1.0000 0.1319739557
H   H87       1.0  0.40983  0.13085  0.61699  1.0000 0.1319739557
H   H88       1.0  0.09017  0.86915  0.11699  1.0000 0.1319739557
C   C1        1.0  0.94503  0.15875  0.10641  1.0000 0.4882561464
C   C2        1.0  0.55497  0.84125  0.60641  1.0000 0.4882561464
C   C3        1.0  0.05497  0.65875  0.39359  1.0000 0.4882561464
C   C4        1.0  0.44503  0.34125  0.89359  1.0000 0.4882561464
C   C5        1.0  0.05497  0.84125  0.89359  1.0000 0.4882561464
C   C6        1.0  0.44503  0.15875  0.39359  1.0000 0.4882561464
C   C7        1.0  0.94503  0.34125  0.60641  1.0000 0.4882561464
C   C8        1.0  0.55497  0.65875  0.10641  1.0000 0.4882561464
C   C9        1.0  0.06522  0.20707  0.10630  1.0000 0.4808717018
C   C10       1.0  0.43478  0.79293  0.60630  1.0000 0.4808717018
C   C11       1.0  0.93478  0.70707  0.39370  1.0000 0.4808717018
C   C12       1.0  0.56522  0.29293  0.89370  1.0000 0.4808717018
C   C13       1.0  0.93478  0.79293  0.89370  1.0000 0.4808717018
C   C14       1.0  0.56522  0.20707  0.39370  1.0000 0.4808717018
C   C15       1.0  0.06522  0.29293  0.60630  1.0000 0.4808717018
C   C16       1.0  0.43478  0.70707  0.10630  1.0000 0.4808717018
C   C17       1.0  0.95582  0.01707  0.97746  1.0000 0.4808717018
C   C18       1.0  0.54418  0.98293  0.47746  1.0000 0.4808717018
C   C19       1.0  0.04418  0.51707  0.52254  1.0000 0.4808717018
C   C20       1.0  0.45582  0.48293  0.02254  1.0000 0.4808717018
C   C21       1.0  0.04418  0.98293  0.02254  1.0000 0.4808717018
C   C22       1.0  0.45582  0.01707  0.52254  1.0000 0.4808717018
C   C23       1.0  0.95582  0.48293  0.47746  1.0000 0.4808717018
C   C24       1.0  0.54418  0.51707  0.97746  1.0000 0.4808717018
C   C25       1.0  0.04716  0.23230  0.26296  1.0000 0.4882561464
C   C26       1.0  0.45284  0.76770  0.76296  1.0000 0.4882561464
C   C27       1.0  0.95284  0.73230  0.23704  1.0000 0.4882561464
C   C28       1.0  0.54716  0.26770  0.73704  1.0000 0.4882561464
C   C29       1.0  0.95284  0.76770  0.73704  1.0000 0.4882561464
C   C30       1.0  0.54716  0.23230  0.23704  1.0000 0.4882561464
C   C31       1.0  0.04716  0.26770  0.76296  1.0000 0.4882561464
C   C32       1.0  0.45284  0.73230  0.26296  1.0000 0.4882561464
C   C33       1.0  0.07269  0.30087  0.25265  1.0000 0.4675697025
C   C34       1.0  0.42731  0.69913  0.75265  1.0000 0.4675697025
C   C35       1.0  0.92731  0.80087  0.24735  1.0000 0.4675697025
C   C36       1.0  0.57269  0.19913  0.74735  1.0000 0.4675697025
C   C37       1.0  0.92731  0.69913  0.74735  1.0000 0.4675697025
C   C38       1.0  0.57269  0.30087  0.24735  1.0000 0.4675697025
C   C39       1.0  0.07269  0.19913  0.75265  1.0000 0.4675697025
C   C40       1.0  0.42731  0.80087  0.25265  1.0000 0.4675697025
C   C41       1.0  0.67368  0.30719  0.07274  1.0000 0.4808717018
C   C42       1.0  0.82632  0.69281  0.57274  1.0000 0.4808717018
C   C43       1.0  0.32632  0.80719  0.42726  1.0000 0.4808717018
C   C44       1.0  0.17368  0.19281  0.92726  1.0000 0.4808717018
C   C45       1.0  0.32632  0.69281  0.92726  1.0000 0.4808717018
C   C46       1.0  0.17368  0.30719  0.42726  1.0000 0.4808717018
C   C47       1.0  0.67368  0.19281  0.57274  1.0000 0.4808717018
C   C48       1.0  0.82632  0.80719  0.07274  1.0000 0.4808717018
C   C49       1.0  0.78413  0.35826  0.08505  1.0000 0.4808717018
C   C50       1.0  0.71587  0.64174  0.58505  1.0000 0.4808717018
C   C51       1.0  0.21587  0.85826  0.41495  1.0000 0.4808717018
C   C52       1.0  0.28413  0.14174  0.91495  1.0000 0.4808717018
C   C53       1.0  0.21587  0.64174  0.91495  1.0000 0.4808717018
C   C54       1.0  0.28413  0.35826  0.41495  1.0000 0.4808717018
C   C55       1.0  0.78413  0.14174  0.58505  1.0000 0.4808717018
C   C56       1.0  0.71587  0.85826  0.08505  1.0000 0.4808717018
C   C57       1.0  0.44931  0.04642  0.05849  1.0000 -0.0308669697
C   C58       1.0  0.05069  0.95358  0.55849  1.0000 -0.0308669697
C   C59       1.0  0.55069  0.54642  0.44151  1.0000 -0.0308669697
C   C60       1.0  0.94931  0.45358  0.94151  1.0000 -0.0308669697
C   C61       1.0  0.55069  0.95358  0.94151  1.0000 -0.0308669697
C   C62       1.0  0.94931  0.04642  0.44151  1.0000 -0.0308669697
C   C63       1.0  0.44931  0.45358  0.55849  1.0000 -0.0308669697
C   C64       1.0  0.05069  0.54642  0.05849  1.0000 -0.0308669697
C   C65       1.0  0.45667  0.13862  0.09051  1.0000 0.1593016472
C   C66       1.0  0.04333  0.86138  0.59051  1.0000 0.1593016472
C   C67       1.0  0.54333  0.63862  0.40949  1.0000 0.1593016472
C   C68       1.0  0.95667  0.36138  0.90949  1.0000 0.1593016472
C   C69       1.0  0.54333  0.86138  0.90949  1.0000 0.1593016472
C   C70       1.0  0.95667  0.13862  0.40949  1.0000 0.1593016472
C   C71       1.0  0.45667  0.36138  0.59051  1.0000 0.1593016472
C   C72       1.0  0.04333  0.63862  0.09051  1.0000 0.1593016472
C   C73       1.0  0.58333  0.05839  0.08052  1.0000 -0.0230459634
C   C74       1.0  0.91667  0.94161  0.58052  1.0000 -0.0230459634
C   C75       1.0  0.41667  0.55839  0.41948  1.0000 -0.0230459634
C   C76       1.0  0.08333  0.44161  0.91948  1.0000 -0.0230459634
C   C77       1.0  0.41667  0.94161  0.91948  1.0000 -0.0230459634
C   C78       1.0  0.08333  0.05839  0.41948  1.0000 -0.0230459634
C   C79       1.0  0.58333  0.44161  0.58052  1.0000 -0.0230459634
C   C80       1.0  0.91667  0.55839  0.08052  1.0000 -0.0230459634
C   C81       1.0  0.16323  0.36932  0.05503  1.0000 -0.237290344
C   C82       1.0  0.33677  0.63068  0.55503  1.0000 -0.237290344
C   C83       1.0  0.83677  0.86932  0.44497  1.0000 -0.237290344
C   C84       1.0  0.66323  0.13068  0.94497  1.0000 -0.237290344
C   C85       1.0  0.83677  0.63068  0.94497  1.0000 -0.237290344
C   C86       1.0  0.66323  0.36932  0.44497  1.0000 -0.237290344
C   C87       1.0  0.16323  0.13068  0.55503  1.0000 -0.237290344
C   C88       1.0  0.33677  0.86932  0.05503  1.0000 -0.237290344
C   C89       1.0  0.32185  0.34301  0.13532  1.0000 -0.2312685166
C   C90       1.0  0.17815  0.65699  0.63532  1.0000 -0.2312685166
C   C91       1.0  0.67815  0.84301  0.36468  1.0000 -0.2312685166
C   C92       1.0  0.82185  0.15699  0.86468  1.0000 -0.2312685166
C   C93       1.0  0.67815  0.65699  0.86468  1.0000 -0.2312685166
C   C94       1.0  0.82185  0.34301  0.36468  1.0000 -0.2312685166
C   C95       1.0  0.32185  0.15699  0.63532  1.0000 -0.2312685166
C   C96       1.0  0.17815  0.84301  0.13532  1.0000 -0.2312685166
N   N1        1.0  0.36770  0.09730  0.06493  1.0000 -0.351270384
N   N2        1.0  0.13230  0.90270  0.56493  1.0000 -0.351270384
N   N3        1.0  0.63230  0.59730  0.43507  1.0000 -0.351270384
N   N4        1.0  0.86770  0.40270  0.93507  1.0000 -0.351270384
N   N5        1.0  0.63230  0.90270  0.93507  1.0000 -0.351270384
N   N6        1.0  0.86770  0.09730  0.43507  1.0000 -0.351270384
N   N7        1.0  0.36770  0.40270  0.56493  1.0000 -0.351270384
N   N8        1.0  0.13230  0.59730  0.06493  1.0000 -0.351270384
N   N9        1.0  0.58630  0.11593  0.10044  1.0000 -0.2759161134
N   N10       1.0  0.91370  0.88407  0.60044  1.0000 -0.2759161134
N   N11       1.0  0.41370  0.61593  0.39956  1.0000 -0.2759161134
N   N12       1.0  0.08630  0.38407  0.89956  1.0000 -0.2759161134
N   N13       1.0  0.41370  0.88407  0.89956  1.0000 -0.2759161134
N   N14       1.0  0.08630  0.11593  0.39956  1.0000 -0.2759161134
N   N15       1.0  0.58630  0.38407  0.60044  1.0000 -0.2759161134
N   N16       1.0  0.91370  0.61593  0.10044  1.0000 -0.2759161134
N   N17       1.0  0.18356  0.37057  0.11666  1.0000 -0.114097311
N   N18       1.0  0.31644  0.62943  0.61666  1.0000 -0.114097311
N   N19       1.0  0.81644  0.87057  0.38334  1.0000 -0.114097311
N   N20       1.0  0.68356  0.12943  0.88334  1.0000 -0.114097311
N   N21       1.0  0.81644  0.62943  0.88334  1.0000 -0.114097311
N   N22       1.0  0.68356  0.37057  0.38334  1.0000 -0.114097311
N   N23       1.0  0.18356  0.12943  0.61666  1.0000 -0.114097311
N   N24       1.0  0.31644  0.87057  0.11666  1.0000 -0.114097311
O   O1        1.0  0.96481  0.11108  0.07671  1.0000 -0.4873748904
O   O2        1.0  0.53519  0.88892  0.57671  1.0000 -0.4873748904
O   O3        1.0  0.03519  0.61108  0.42329  1.0000 -0.4873748904
O   O4        1.0  0.46481  0.38892  0.92329  1.0000 -0.4873748904
O   O5        1.0  0.03519  0.88892  0.92329  1.0000 -0.4873748904
O   O6        1.0  0.46481  0.11108  0.42329  1.0000 -0.4873748904
O   O7        1.0  0.96481  0.38892  0.57671  1.0000 -0.4873748904
O   O8        1.0  0.53519  0.61108  0.07671  1.0000 -0.4873748904
O   O9        1.0  0.18018  0.19540  0.08025  1.0000 -0.4873748904
O   O10       1.0  0.31982  0.80460  0.58025  1.0000 -0.4873748904
O   O11       1.0  0.81982  0.69540  0.41975  1.0000 -0.4873748904
O   O12       1.0  0.68018  0.30460  0.91975  1.0000 -0.4873748904
O   O13       1.0  0.81982  0.80460  0.91975  1.0000 -0.4873748904
O   O14       1.0  0.68018  0.19540  0.41975  1.0000 -0.4873748904
O   O15       1.0  0.18018  0.30460  0.58025  1.0000 -0.4873748904
O   O16       1.0  0.31982  0.69540  0.08025  1.0000 -0.4873748904
O   O17       1.0  0.04154  0.25557  0.13314  1.0000 -0.5217714373
O   O18       1.0  0.45846  0.74443  0.63314  1.0000 -0.5217714373
O   O19       1.0  0.95846  0.75557  0.36686  1.0000 -0.5217714373
O   O20       1.0  0.54154  0.24443  0.86686  1.0000 -0.5217714373
O   O21       1.0  0.95846  0.74443  0.86686  1.0000 -0.5217714373
O   O22       1.0  0.54154  0.25557  0.36686  1.0000 -0.5217714373
O   O23       1.0  0.04154  0.24443  0.63314  1.0000 -0.5217714373
O   O24       1.0  0.45846  0.75557  0.13314  1.0000 -0.5217714373
O   O25       1.0  0.83767  0.16913  0.13567  1.0000 -0.4152622783
O   O26       1.0  0.66233  0.83087  0.63567  1.0000 -0.4152622783
O   O27       1.0  0.16233  0.66913  0.36433  1.0000 -0.4144760732
O   O28       1.0  0.33767  0.33087  0.86433  1.0000 -0.4144760732
O   O29       1.0  0.16233  0.83087  0.86433  1.0000 -0.4144760732
O   O30       1.0  0.33767  0.16913  0.36433  1.0000 -0.4144760732
O   O31       1.0  0.83767  0.33087  0.63567  1.0000 -0.4152622783
O   O32       1.0  0.66233  0.66913  0.13567  1.0000 -0.4152622783
O   O33       1.0  0.85149  0.98904  0.95523  1.0000 -0.4873748904
O   O34       1.0  0.64851  0.01096  0.45523  1.0000 -0.4873748904
O   O35       1.0  0.14851  0.48904  0.54477  1.0000 -0.4873748904
O   O36       1.0  0.35149  0.51096  0.04477  1.0000 -0.4873748904
O   O37       1.0  0.14851  0.01096  0.04477  1.0000 -0.4873748904
O   O38       1.0  0.35149  0.98904  0.54477  1.0000 -0.4873748904
O   O39       1.0  0.85149  0.51096  0.45523  1.0000 -0.4873748904
O   O40       1.0  0.64851  0.48904  0.95523  1.0000 -0.4873748904
O   O41       1.0  0.99188  0.07096  0.96550  1.0000 -0.4873748904
O   O42       1.0  0.50812  0.92904  0.46550  1.0000 -0.4873748904
O   O43       1.0  0.00812  0.57096  0.53450  1.0000 -0.4873748904
O   O44       1.0  0.49188  0.42904  0.03450  1.0000 -0.4873748904
O   O45       1.0  0.00812  0.92904  0.03450  1.0000 -0.4873748904
O   O46       1.0  0.49188  0.07096  0.53450  1.0000 -0.4873748904
O   O47       1.0  0.99188  0.42904  0.46550  1.0000 -0.4873748904
O   O48       1.0  0.50812  0.57096  0.96550  1.0000 -0.4873748904
O   O49       1.0  0.93352  0.20912  0.24310  1.0000 -0.4789386058
O   O50       1.0  0.56648  0.79088  0.74310  1.0000 -0.4789386058
O   O51       1.0  0.06648  0.70912  0.25690  1.0000 -0.4789386058
O   O52       1.0  0.43352  0.29088  0.75690  1.0000 -0.4789386058
O   O53       1.0  0.06648  0.79088  0.75690  1.0000 -0.4789386058
O   O54       1.0  0.43352  0.20912  0.25690  1.0000 -0.4789386058
O   O55       1.0  0.93352  0.29088  0.74310  1.0000 -0.4789386058
O   O56       1.0  0.56648  0.70912  0.24310  1.0000 -0.4789386058
O   O57       1.0  0.98327  0.32938  0.22336  1.0000 -0.4717860484
O   O58       1.0  0.51673  0.67062  0.72336  1.0000 -0.4717860484
O   O59       1.0  0.01673  0.82938  0.27664  1.0000 -0.4717860484
O   O60       1.0  0.48327  0.17062  0.77664  1.0000 -0.4717860484
O   O61       1.0  0.01673  0.67062  0.77664  1.0000 -0.4717860484
O   O62       1.0  0.48327  0.32938  0.27664  1.0000 -0.4717860484
O   O63       1.0  0.98327  0.17062  0.72336  1.0000 -0.4717860484
O   O64       1.0  0.51673  0.82938  0.22336  1.0000 -0.4717860484
O   O65       1.0  0.18421  0.32465  0.27388  1.0000 -0.4789386058
O   O66       1.0  0.31579  0.67535  0.77388  1.0000 -0.4789386058
O   O67       1.0  0.81579  0.82465  0.22612  1.0000 -0.4789386058
O   O68       1.0  0.68421  0.17535  0.72612  1.0000 -0.4789386058
O   O69       1.0  0.81579  0.67535  0.72612  1.0000 -0.4789386058
O   O70       1.0  0.68421  0.32465  0.22612  1.0000 -0.4789386058
O   O71       1.0  0.18421  0.17535  0.77388  1.0000 -0.4789386058
O   O72       1.0  0.31579  0.82465  0.27388  1.0000 -0.4789386058
O   O73       1.0  0.14015  0.20385  0.29027  1.0000 -0.4152622783
O   O74       1.0  0.35985  0.79615  0.79027  1.0000 -0.4152622783
O   O75       1.0  0.85985  0.70385  0.20973  1.0000 -0.4152622783
O   O76       1.0  0.64015  0.29615  0.70973  1.0000 -0.4152622783
O   O77       1.0  0.85985  0.79615  0.70973  1.0000 -0.4152622783
O   O78       1.0  0.64015  0.20385  0.20973  1.0000 -0.4152622783
O   O79       1.0  0.14015  0.29615  0.79027  1.0000 -0.4152622783
O   O80       1.0  0.35985  0.70385  0.29027  1.0000 -0.4152622783
O   O81       1.0  0.66143  0.26510  0.10792  1.0000 -0.4717860484
O   O82       1.0  0.83857  0.73490  0.60792  1.0000 -0.4717860484
O   O83       1.0  0.33857  0.76510  0.39208  1.0000 -0.4717860484
O   O84       1.0  0.16143  0.23490  0.89208  1.0000 -0.4717860484
O   O85       1.0  0.33857  0.73490  0.89208  1.0000 -0.4717860484
O   O86       1.0  0.16143  0.26510  0.39208  1.0000 -0.4717860484
O   O87       1.0  0.66143  0.23490  0.60792  1.0000 -0.4717860484
O   O88       1.0  0.83857  0.76510  0.10792  1.0000 -0.4717860484
O   O89       1.0  0.85780  0.35344  0.12848  1.0000 -0.4789386058
O   O90       1.0  0.64220  0.64656  0.62848  1.0000 -0.4789386058
O   O91       1.0  0.14220  0.85344  0.37152  1.0000 -0.4789386058
O   O92       1.0  0.35780  0.14656  0.87152  1.0000 -0.4789386058
O   O93       1.0  0.14220  0.64656  0.87152  1.0000 -0.4789386058
O   O94       1.0  0.35780  0.35344  0.37152  1.0000 -0.4789386058
O   O95       1.0  0.85780  0.14656  0.62848  1.0000 -0.4789386058
O   O96       1.0  0.64220  0.85344  0.12848  1.0000 -0.4789386058
O   O97       1.0  0.79523  0.40170  0.05006  1.0000 -0.500398225
O   O98       1.0  0.70477  0.59830  0.55006  1.0000 -0.500398225
O   O99       1.0  0.20477  0.90170  0.44994  1.0000 -0.500398225
O   O100      1.0  0.29523  0.09830  0.94994  1.0000 -0.500398225
O   O101      1.0  0.20477  0.59830  0.94994  1.0000 -0.500398225
O   O102      1.0  0.29523  0.40170  0.44994  1.0000 -0.500398225
O   O103      1.0  0.79523  0.09830  0.55006  1.0000 -0.500398225
O   O104      1.0  0.70477  0.90170  0.05006  1.0000 -0.500398225
O   O105      1.0  0.60093  0.31051  0.02829  1.0000 -0.4717860484
O   O106      1.0  0.89907  0.68949  0.52829  1.0000 -0.4717860484
O   O107      1.0  0.39907  0.81051  0.47171  1.0000 -0.4717860484
O   O108      1.0  0.10093  0.18949  0.97171  1.0000 -0.4717860484
O   O109      1.0  0.39907  0.68949  0.97171  1.0000 -0.4717860484
O   O110      1.0  0.10093  0.31051  0.47171  1.0000 -0.4717860484
O   O111      1.0  0.60093  0.18949  0.52829  1.0000 -0.4717860484
O   O112      1.0  0.89907  0.81051  0.02829  1.0000 -0.4717860484
