# DDEC6 charges by PACMAN v1.1 (https://github.com/mtap-research/PACMAN-charge/)
data_2015[Cd][rtl]3[ION]2
_chemical_formula_sum              "Cd4 H44 C44 N4 O24"
_cell_length_a       10.099
_cell_length_b       14.363
_cell_length_c       14.1233
_cell_angle_alpha    90
_cell_angle_beta     117.815
_cell_angle_gamma    90

_symmetry_space_group_name_H-M    "P 1"
_symmetry_Int_Tables_number       1

loop_
  _symmetry_equiv_pos_as_xyz
  'x, y, z'

loop_
  _atom_site_type_symbol
  _atom_site_label
  _atom_site_symmetry_multiplicity
  _atom_site_fract_x
  _atom_site_fract_y
  _atom_site_fract_z
  _atom_site_occupancy
  _atom_site_charge
Cd  Cd1       1.0  0.65173  0.06628  0.56053  1.0000 0.9908041678
Cd  Cd2       1.0  0.34827  0.56628  0.93947  1.0000 0.9908041678
Cd  Cd3       1.0  0.34827  0.93372  0.43947  1.0000 0.9908041678
Cd  Cd4       1.0  0.65173  0.43372  0.06053  1.0000 0.9908041678
H   H1        1.0  0.08900  0.31000  0.74500  1.0000 0.1209881526
H   H2        1.0  0.91100  0.81000  0.75500  1.0000 0.1209881526
H   H3        1.0  0.91100  0.69000  0.25500  1.0000 0.1209881526
H   H4        1.0  0.08900  0.19000  0.24500  1.0000 0.1209881526
H   H5        1.0  0.11600  0.09300  0.57300  1.0000 0.1209881526
H   H6        1.0  0.88400  0.59300  0.92700  1.0000 0.1209881526
H   H7        1.0  0.88400  0.90700  0.42700  1.0000 0.1209881526
H   H8        1.0  0.11600  0.40700  0.07300  1.0000 0.1209881526
H   H9        1.0  0.47700  0.25400  0.74700  1.0000 0.1209881526
H   H10       1.0  0.52300  0.75400  0.75300  1.0000 0.1209881526
H   H11       1.0  0.52300  0.74600  0.25300  1.0000 0.1209881526
H   H12       1.0  0.47700  0.24600  0.24700  1.0000 0.1209881526
H   H13       1.0  0.99390  0.40630  0.86670  1.0000 0.1397726483
H   H14       1.0  0.88070  0.48300  0.79560  1.0000 0.1315348244
H   H15       1.0  0.88150  0.38510  0.74670  1.0000 0.1397726483
H   H16       1.0  0.80060  0.41100  0.90430  1.0000 0.2626072338
H   H17       1.0  0.69130  0.39960  0.79240  1.0000 0.2498440242
H   H18       1.0  0.75880  0.25130  0.78970  1.0000 0.1397726483
H   H19       1.0  0.72160  0.26390  0.88500  1.0000 0.1315348244
H   H20       1.0  0.88870  0.26280  0.90670  1.0000 0.1315348244
H   H21       1.0  0.00610  0.90630  0.63330  1.0000 0.1397726483
H   H22       1.0  0.11930  0.98300  0.70440  1.0000 0.1315348244
H   H23       1.0  0.11850  0.88510  0.75330  1.0000 0.1397726483
H   H24       1.0  0.19940  0.91100  0.59570  1.0000 0.2626072338
H   H25       1.0  0.30870  0.89960  0.70760  1.0000 0.2498440242
H   H26       1.0  0.24120  0.75130  0.71030  1.0000 0.1397726483
H   H27       1.0  0.27840  0.76390  0.61500  1.0000 0.1315348244
H   H28       1.0  0.11130  0.76280  0.59330  1.0000 0.1315348244
H   H29       1.0  0.00610  0.59370  0.13330  1.0000 0.1397726483
H   H30       1.0  0.11930  0.51700  0.20440  1.0000 0.1315348244
H   H31       1.0  0.11850  0.61490  0.25330  1.0000 0.1397726483
H   H32       1.0  0.19940  0.58900  0.09570  1.0000 0.2626072338
H   H33       1.0  0.30870  0.60040  0.20760  1.0000 0.2498440242
H   H34       1.0  0.24120  0.74870  0.21030  1.0000 0.1397726483
H   H35       1.0  0.27840  0.73610  0.11500  1.0000 0.1315348244
H   H36       1.0  0.11130  0.73720  0.09330  1.0000 0.1315348244
H   H37       1.0  0.99390  0.09370  0.36670  1.0000 0.1397726483
H   H38       1.0  0.88070  0.01700  0.29560  1.0000 0.1315348244
H   H39       1.0  0.88150  0.11490  0.24670  1.0000 0.1397726483
H   H40       1.0  0.80060  0.08900  0.40430  1.0000 0.2626072338
H   H41       1.0  0.69130  0.10040  0.29240  1.0000 0.2498440242
H   H42       1.0  0.75880  0.24870  0.28970  1.0000 0.1397726483
H   H43       1.0  0.72160  0.23610  0.38500  1.0000 0.1315348244
H   H44       1.0  0.88870  0.23720  0.40670  1.0000 0.1315348244
C   C1        1.0  0.36730  0.37440  0.83740  1.0000 0.5817982129
C   C2        1.0  0.63270  0.87440  0.66260  1.0000 0.5817982129
C   C3        1.0  0.63270  0.62560  0.16260  1.0000 0.5817982129
C   C4        1.0  0.36730  0.12560  0.33740  1.0000 0.5817982129
C   C5        1.0  0.37810  0.24280  0.72290  1.0000 -0.1115326301
C   C6        1.0  0.62190  0.74280  0.77710  1.0000 -0.1115326301
C   C7        1.0  0.62190  0.75720  0.27710  1.0000 -0.1115326301
C   C8        1.0  0.37810  0.25720  0.22290  1.0000 -0.1115326301
C   C9        1.0  0.16420  0.14800  0.61980  1.0000 -0.133052712
C   C10       1.0  0.83580  0.64800  0.88020  1.0000 -0.133052712
C   C11       1.0  0.83580  0.85200  0.38020  1.0000 -0.133052712
C   C12       1.0  0.16420  0.35200  0.11980  1.0000 -0.133052712
C   C13       1.0  0.31400  0.16920  0.65280  1.0000 -0.0193020224
C   C14       1.0  0.68600  0.66920  0.84720  1.0000 -0.0193020224
C   C15       1.0  0.68600  0.83080  0.34720  1.0000 -0.0193020224
C   C16       1.0  0.31400  0.33080  0.15280  1.0000 -0.0193020224
C   C17       1.0  0.14480  0.27510  0.72220  1.0000 -0.1115326301
C   C18       1.0  0.85520  0.77510  0.77780  1.0000 -0.1115326301
C   C19       1.0  0.85520  0.72490  0.27780  1.0000 -0.1115326301
C   C20       1.0  0.14480  0.22490  0.22220  1.0000 -0.1115326301
C   C21       1.0  0.29460  0.29660  0.75740  1.0000 -0.0193020224
C   C22       1.0  0.70540  0.79660  0.74260  1.0000 -0.0193020224
C   C23       1.0  0.70540  0.70340  0.24260  1.0000 -0.0193020224
C   C24       1.0  0.29460  0.20340  0.25740  1.0000 -0.0193020224
C   C25       1.0  0.08030  0.19930  0.65510  1.0000 -0.0193020224
C   C26       1.0  0.91970  0.69930  0.84490  1.0000 -0.0193020224
C   C27       1.0  0.91970  0.80070  0.34490  1.0000 -0.0193020224
C   C28       1.0  0.08030  0.30070  0.15510  1.0000 -0.0193020224
C   C29       1.0  0.40280  0.11180  0.61300  1.0000 0.5713242612
C   C30       1.0  0.59720  0.61180  0.88700  1.0000 0.5713242612
C   C31       1.0  0.59720  0.88820  0.38700  1.0000 0.5713242612
C   C32       1.0  0.40280  0.38820  0.11300  1.0000 0.5713242612
C   C33       1.0  0.92210  0.16970  0.62590  1.0000 0.5307506642
C   C34       1.0  0.07790  0.66970  0.87410  1.0000 0.5307506642
C   C35       1.0  0.07790  0.83030  0.37410  1.0000 0.5307506642
C   C36       1.0  0.92210  0.33030  0.12590  1.0000 0.5307506642
C   C37       1.0  0.89470  0.41740  0.81000  1.0000 -0.2976436668
C   C38       1.0  0.78870  0.28140  0.85730  1.0000 -0.2976436668
C   C39       1.0  0.10530  0.91740  0.69000  1.0000 -0.2976436668
C   C40       1.0  0.21130  0.78140  0.64270  1.0000 -0.2976436668
C   C41       1.0  0.10530  0.58260  0.19000  1.0000 -0.2976436668
C   C42       1.0  0.21130  0.71860  0.14270  1.0000 -0.2976436668
C   C43       1.0  0.89470  0.08260  0.31000  1.0000 -0.2976436668
C   C44       1.0  0.78870  0.21860  0.35730  1.0000 -0.2976436668
N   N1        1.0  0.78370  0.38320  0.84260  1.0000 -0.0986468025
N   N2        1.0  0.21630  0.88320  0.65740  1.0000 -0.0986468025
N   N3        1.0  0.21630  0.61680  0.15740  1.0000 -0.0986468025
N   N4        1.0  0.78370  0.11680  0.34260  1.0000 -0.0986468025
O   O1        1.0  0.87210  0.09868  0.56840  1.0000 -0.5296518409
O   O2        1.0  0.12790  0.59868  0.93160  1.0000 -0.5296518409
O   O3        1.0  0.12790  0.90132  0.43160  1.0000 -0.5296518409
O   O4        1.0  0.87210  0.40132  0.06840  1.0000 -0.5296518409
O   O5        1.0  0.28510  0.44141  0.83240  1.0000 -0.5453847923
O   O6        1.0  0.71490  0.94141  0.66760  1.0000 -0.5453847923
O   O7        1.0  0.71490  0.55859  0.16760  1.0000 -0.5448960342
O   O8        1.0  0.28510  0.05859  0.33240  1.0000 -0.5448960342
O   O9        1.0  0.50350  0.36318  0.90310  1.0000 -0.5712616422
O   O10       1.0  0.49650  0.86318  0.59690  1.0000 -0.5712616422
O   O11       1.0  0.49650  0.63682  0.09690  1.0000 -0.5712616422
O   O12       1.0  0.50350  0.13682  0.40310  1.0000 -0.5712616422
O   O13       1.0  0.33840  0.04277  0.55720  1.0000 -0.5712616422
O   O14       1.0  0.66160  0.54277  0.94280  1.0000 -0.5712616422
O   O15       1.0  0.66160  0.95723  0.44280  1.0000 -0.5712616422
O   O16       1.0  0.33840  0.45723  0.05720  1.0000 -0.5712616422
O   O17       1.0  0.53320  0.13801  0.63800  1.0000 -0.5296518409
O   O18       1.0  0.46680  0.63801  0.86200  1.0000 -0.5296518409
O   O19       1.0  0.46680  0.86199  0.36200  1.0000 -0.5296518409
O   O20       1.0  0.53320  0.36199  0.13800  1.0000 -0.5296518409
O   O21       1.0  0.84810  0.21310  0.65910  1.0000 -0.509089885
O   O22       1.0  0.15190  0.71310  0.84090  1.0000 -0.509089885
O   O23       1.0  0.15190  0.78690  0.34090  1.0000 -0.509089885
O   O24       1.0  0.84810  0.28690  0.15910  1.0000 -0.509089885
