# DDEC6 charges by PACMAN v1.1 (https://github.com/mtap-research/PACMAN-charge/)
data_2015[Co][bnn]3[ION]2
_chemical_formula_sum              "Co8 H152 C184 N32 O48"
_cell_length_a       11.4463
_cell_length_b       24.6528
_cell_length_c       20.3256
_cell_angle_alpha    90
_cell_angle_beta     92.6948
_cell_angle_gamma    90

_symmetry_space_group_name_H-M    "P 1"
_symmetry_Int_Tables_number       1

loop_
  _symmetry_equiv_pos_as_xyz
  'x, y, z'

loop_
  _atom_site_type_symbol
  _atom_site_label
  _atom_site_symmetry_multiplicity
  _atom_site_fract_x
  _atom_site_fract_y
  _atom_site_fract_z
  _atom_site_occupancy
  _atom_site_charge
Co  Co1       1.0  0.56118  0.80960  0.73270  1.0000 0.7701807698
Co  Co2       1.0  0.43882  0.30960  0.26730  1.0000 0.7701807698
Co  Co3       1.0  0.55881  0.73393  0.98550  1.0000 0.7500586887
Co  Co4       1.0  0.44119  0.23393  0.01450  1.0000 0.7500586887
Co  Co5       1.0  0.53554  0.81379  0.23734  1.0000 0.7842205246
Co  Co6       1.0  0.46446  0.31379  0.76266  1.0000 0.7842205246
Co  Co7       1.0  0.57421  0.72815  0.48753  1.0000 0.7500586887
Co  Co8       1.0  0.42579  0.22815  0.51247  1.0000 0.7500586887
H   H1        1.0  0.36800  0.72740  0.58700  1.0000 0.1006367767
H   H2        1.0  0.63200  0.22740  0.41300  1.0000 0.1006367767
H   H3        1.0  0.49700  0.72000  0.76700  1.0000 0.3302162767
H   H4        1.0  0.50300  0.22000  0.23300  1.0000 0.3302162767
H   H5        1.0  0.96590  0.74680  0.88890  1.0000 0.1304087305
H   H6        1.0  0.03410  0.24680  0.11110  1.0000 0.1304087305
H   H7        1.0  0.76390  0.75140  0.89240  1.0000 0.1006367767
H   H8        1.0  0.23610  0.25140  0.10760  1.0000 0.1006367767
H   H9        1.0  0.76490  0.79340  0.63690  1.0000 0.1006367767
H   H10       1.0  0.23510  0.29340  0.36310  1.0000 0.1006367767
H   H11       1.0  0.96550  0.79510  0.63390  1.0000 0.119111388
H   H12       1.0  0.03450  0.29510  0.36610  1.0000 0.119111388
H   H13       1.0  0.94260  0.79950  0.14580  1.0000 0.1304087305
H   H14       1.0  0.05740  0.29950  0.85420  1.0000 0.1304087305
H   H15       1.0  0.77950  0.84270  0.82140  1.0000 0.1106199332
H   H16       1.0  0.22050  0.34270  0.17860  1.0000 0.1106199332
H   H17       1.0  0.97680  0.69630  0.07850  1.0000 0.1366154408
H   H18       1.0  0.02320  0.19630  0.92150  1.0000 0.1366154408
H   H19       1.0  0.77450  0.70130  0.07650  1.0000 0.1006367767
H   H20       1.0  0.22550  0.20130  0.92350  1.0000 0.1006367767
H   H21       1.0  0.75020  0.85110  0.32910  1.0000 0.1006367767
H   H22       1.0  0.24980  0.35110  0.67090  1.0000 0.1006367767
H   H23       1.0  0.14760  0.83040  0.63280  1.0000 0.1304087305
H   H24       1.0  0.85240  0.33040  0.36720  1.0000 0.1304087305
H   H25       1.0  0.78060  0.75560  0.39890  1.0000 0.1006367767
H   H26       1.0  0.21940  0.25560  0.60110  1.0000 0.1006367767
H   H27       1.0  0.99050  0.67840  0.57340  1.0000 0.1366154408
H   H28       1.0  0.00950  0.17840  0.42660  1.0000 0.1366154408
H   H29       1.0  0.95310  0.85380  0.33350  1.0000 0.1304087305
H   H30       1.0  0.04690  0.35380  0.66650  1.0000 0.1304087305
H   H31       1.0  0.74260  0.79630  0.14740  1.0000 0.1006367767
H   H32       1.0  0.25740  0.29630  0.85260  1.0000 0.1006367767
H   H33       1.0  0.34870  0.82470  0.63710  1.0000 0.1006367767
H   H34       1.0  0.65130  0.32470  0.36290  1.0000 0.1006367767
H   H35       1.0  0.63000  0.87510  0.44470  1.0000 0.1006367767
H   H36       1.0  0.37000  0.37510  0.55530  1.0000 0.1006367767
H   H37       1.0  0.51990  0.66210  0.69590  1.0000 0.1006367767
H   H38       1.0  0.48010  0.16210  0.30410  1.0000 0.1006367767
H   H39       1.0  0.16530  0.72210  0.58640  1.0000 0.1304087305
H   H40       1.0  0.83470  0.22210  0.41360  1.0000 0.1304087305
H   H41       1.0  0.97970  0.84340  0.82500  1.0000 0.1304087305
H   H42       1.0  0.02030  0.34340  0.17500  1.0000 0.1304087305
H   H43       1.0  0.78710  0.68360  0.57130  1.0000 0.1006367767
H   H44       1.0  0.21290  0.18360  0.42870  1.0000 0.1006367767
H   H45       1.0  0.98140  0.75180  0.39630  1.0000 0.1304087305
H   H46       1.0  0.01860  0.25180  0.60370  1.0000 0.1304087305
H   H47       1.0  0.36360  0.71400  0.39500  1.0000 0.1006367767
H   H48       1.0  0.63640  0.21400  0.60500  1.0000 0.1006367767
H   H49       1.0  0.64200  0.82200  0.02200  1.0000 0.3467266043
H   H50       1.0  0.35800  0.32200  0.97800  1.0000 0.3467266043
H   H51       1.0  0.47700  0.71000  0.27300  1.0000 0.3302162767
H   H52       1.0  0.52300  0.21000  0.72700  1.0000 0.3302162767
H   H53       1.0  0.40430  0.00170  0.72300  1.0000 0.1366154408
H   H54       1.0  0.59570  0.50170  0.27700  1.0000 0.1366154408
H   H55       1.0  0.63910  0.88040  0.61860  1.0000 0.1106199332
H   H56       1.0  0.36090  0.38040  0.38140  1.0000 0.1106199332
H   H57       1.0  0.15150  0.74910  0.08000  1.0000 0.1304087305
H   H58       1.0  0.84850  0.24910  0.92000  1.0000 0.1304087305
H   H59       1.0  0.11900  0.84150  0.14250  1.0000 0.1366154408
H   H60       1.0  0.88100  0.34150  0.85750  1.0000 0.1366154408
H   H61       1.0  0.35110  0.75500  0.07860  1.0000 0.1006367767
H   H62       1.0  0.64890  0.25500  0.92140  1.0000 0.1006367767
H   H63       1.0  0.49490  0.66630  0.19120  1.0000 0.1006367767
H   H64       1.0  0.50510  0.16630  0.80880  1.0000 0.1006367767
H   H65       1.0  0.34720  0.70550  0.89430  1.0000 0.1006367767
H   H66       1.0  0.65280  0.20550  0.10570  1.0000 0.1006367767
H   H67       1.0  0.73940  0.71510  0.28110  1.0000 0.1106199332
H   H68       1.0  0.26060  0.21510  0.71890  1.0000 0.1106199332
H   H69       1.0  0.51150  0.02730  0.51650  1.0000 0.1304087305
H   H70       1.0  0.48850  0.52730  0.48350  1.0000 0.1304087305
H   H71       1.0  0.56540  0.03700  0.03040  1.0000 0.1304087305
H   H72       1.0  0.43460  0.53700  0.96960  1.0000 0.1304087305
H   H73       1.0  0.92530  0.67760  0.28890  1.0000 0.1106199332
H   H74       1.0  0.07470  0.17760  0.71110  1.0000 0.1106199332
H   H75       1.0  0.47790  0.11180  0.47290  1.0000 0.1106199332
H   H76       1.0  0.52210  0.61180  0.52710  1.0000 0.1106199332
H   H77       1.0  0.49390  0.01990  0.23930  1.0000 0.1366154408
H   H78       1.0  0.50610  0.51990  0.76070  1.0000 0.1366154408
H   H79       1.0  0.39280  0.16930  0.64260  1.0000 0.1106199332
H   H80       1.0  0.60720  0.66930  0.35740  1.0000 0.1106199332
H   H81       1.0  0.52310  0.93410  0.28180  1.0000 0.1106199332
H   H82       1.0  0.47690  0.43410  0.71820  1.0000 0.1106199332
H   H83       1.0  0.53680  0.12140  0.98340  1.0000 0.1106199332
H   H84       1.0  0.46320  0.62140  0.01660  1.0000 0.1106199332
H   H85       1.0  0.38110  0.08660  0.18470  1.0000 0.1304087305
H   H86       1.0  0.61890  0.58660  0.81530  1.0000 0.1304087305
H   H87       1.0  0.42570  0.08600  0.69270  1.0000 0.1304087305
H   H88       1.0  0.57430  0.58600  0.30730  1.0000 0.1304087305
H   H89       1.0  0.36240  0.17060  0.13440  1.0000 0.1106199332
H   H90       1.0  0.63760  0.67060  0.86560  1.0000 0.1106199332
H   H91       1.0  0.78610  0.71270  0.76640  1.0000 0.1106199332
H   H92       1.0  0.21390  0.21270  0.23360  1.0000 0.1106199332
H   H93       1.0  0.96710  0.66970  0.76770  1.0000 0.119111388
H   H94       1.0  0.03290  0.16970  0.23230  1.0000 0.119111388
H   H95       1.0  0.32030  0.83450  0.14530  1.0000 0.1006367767
H   H96       1.0  0.67970  0.33450  0.85470  1.0000 0.1006367767
H   H97       1.0  0.97210  0.60490  0.22180  1.0000 0.119111388
H   H98       1.0  0.02790  0.10490  0.77820  1.0000 0.119111388
H   H99       1.0  0.83250  0.57220  0.14480  1.0000 0.1106199332
H   H100      1.0  0.16750  0.07220  0.85520  1.0000 0.1106199332
H   H101      1.0  0.14630  0.70030  0.88990  1.0000 0.1304087305
H   H102      1.0  0.85370  0.20030  0.11010  1.0000 0.1304087305
H   H103      1.0  0.15560  0.80110  0.82940  1.0000 0.1304087305
H   H104      1.0  0.84440  0.30110  0.17060  1.0000 0.1304087305
H   H105      1.0  0.13440  0.81670  0.33920  1.0000 0.1304087305
H   H106      1.0  0.86560  0.31670  0.66080  1.0000 0.1304087305
H   H107      1.0  0.51160  0.87090  0.10470  1.0000 0.1106199332
H   H108      1.0  0.48840  0.37090  0.89530  1.0000 0.1106199332
H   H109      1.0  0.35500  0.79530  0.82720  1.0000 0.1006367767
H   H110      1.0  0.64500  0.29530  0.17280  1.0000 0.1006367767
H   H111      1.0  0.44380  0.91680  0.76600  1.0000 0.1106199332
H   H112      1.0  0.55620  0.41680  0.23400  1.0000 0.1106199332
H   H113      1.0  0.64650  0.61050  0.13530  1.0000 0.1106199332
H   H114      1.0  0.35350  0.11050  0.86470  1.0000 0.1106199332
H   H115      1.0  0.33110  0.80720  0.33460  1.0000 0.1006367767
H   H116      1.0  0.66890  0.30720  0.66540  1.0000 0.1006367767
H   H117      1.0  0.16190  0.70890  0.38800  1.0000 0.1304087305
H   H118      1.0  0.83810  0.20890  0.61200  1.0000 0.1304087305
H   H119      1.0  0.37030  0.82560  0.50980  1.0000 0.1106199332
H   H120      1.0  0.62970  0.32560  0.49020  1.0000 0.1106199332
H   H121      1.0  0.60650  0.96470  0.57120  1.0000 0.1304087305
H   H122      1.0  0.39350  0.46470  0.42880  1.0000 0.1304087305
H   H123      1.0  0.48300  0.95500  0.05740  1.0000 0.1304087305
H   H124      1.0  0.51700  0.45500  0.94260  1.0000 0.1304087305
H   H125      1.0  0.65810  0.86890  0.94050  1.0000 0.1106199332
H   H126      1.0  0.34190  0.36890  0.05950  1.0000 0.1106199332
H   H127      1.0  0.82900  0.55110  0.65200  1.0000 0.1106199332
H   H128      1.0  0.17100  0.05110  0.34800  1.0000 0.1106199332
H   H129      1.0  0.35200  0.84990  0.96000  1.0000 0.1304087305
H   H130      1.0  0.64800  0.34990  0.04000  1.0000 0.1304087305
H   H131      1.0  0.64960  0.59560  0.64740  1.0000 0.1106199332
H   H132      1.0  0.35040  0.09560  0.35260  1.0000 0.1106199332
H   H133      1.0  0.99250  0.59210  0.70700  1.0000 0.119111388
H   H134      1.0  0.00750  0.09210  0.29300  1.0000 0.119111388
H   H135      1.0  0.16820  0.95490  0.46290  1.0000 0.119111388
H   H136      1.0  0.83180  0.45490  0.53710  1.0000 0.119111388
H   H137      1.0  0.50390  0.94630  0.40510  1.0000 0.119111388
H   H138      1.0  0.49610  0.44630  0.59490  1.0000 0.119111388
H   H139      1.0  0.32440  0.99180  0.40830  1.0000 0.1006367767
H   H140      1.0  0.67560  0.49180  0.59170  1.0000 0.1006367767
H   H141      1.0  0.59980  0.95390  0.90720  1.0000 0.1304087305
H   H142      1.0  0.40020  0.45390  0.09280  1.0000 0.1304087305
H   H143      1.0  0.27330  0.00660  0.91350  1.0000 0.1106199332
H   H144      1.0  0.72670  0.50660  0.08650  1.0000 0.1106199332
H   H145      1.0  0.20930  0.92030  0.94360  1.0000 0.119111388
H   H146      1.0  0.79070  0.42030  0.05640  1.0000 0.119111388
H   H147      1.0  0.46570  0.02400  0.89450  1.0000 0.1106199332
H   H148      1.0  0.53430  0.52400  0.10550  1.0000 0.1106199332
H   H149      1.0  0.19270  0.87200  0.51470  1.0000 0.1106199332
H   H150      1.0  0.80730  0.37200  0.48530  1.0000 0.1106199332
H   H151      1.0  0.65770  0.81400  0.52280  1.0000 0.3302162767
H   H152      1.0  0.34230  0.31400  0.47720  1.0000 0.3302162767
C   C1        1.0  0.32520  0.72420  0.54600  1.0000 0.0892210248
C   C2        1.0  0.67480  0.22420  0.45400  1.0000 0.0892210248
C   C3        1.0  0.92910  0.73800  0.92850  1.0000 -0.1701942156
C   C4        1.0  0.07090  0.23800  0.07150  1.0000 -0.1701942156
C   C5        1.0  0.80800  0.74060  0.93100  1.0000 0.0798898386
C   C6        1.0  0.19200  0.24060  0.06900  1.0000 0.0798898386
C   C7        1.0  0.80920  0.80330  0.67580  1.0000 0.0724742356
C   C8        1.0  0.19080  0.30330  0.32420  1.0000 0.0724742356
C   C9        1.0  0.92920  0.80370  0.67360  1.0000 -0.1800744359
C   C10       1.0  0.07080  0.30370  0.32640  1.0000 -0.1800744359
C   C11       1.0  0.90510  0.80920  0.18480  1.0000 -0.1800744359
C   C12       1.0  0.09490  0.30920  0.81520  1.0000 -0.1800744359
C   C13       1.0  0.81790  0.83160  0.78320  1.0000 0.0724742356
C   C14       1.0  0.18210  0.33160  0.21680  1.0000 0.0724742356
C   C15       1.0  0.93510  0.70830  0.03970  1.0000 -0.1800744359
C   C16       1.0  0.06490  0.20830  0.96030  1.0000 -0.1800744359
C   C17       1.0  0.81390  0.71150  0.03830  1.0000 0.0798898386
C   C18       1.0  0.18610  0.21150  0.96170  1.0000 0.0798898386
C   C19       1.0  0.99610  0.72270  0.98430  1.0000 0.119111388
C   C20       1.0  0.00390  0.22270  0.01570  1.0000 0.119111388
C   C21       1.0  0.79040  0.83910  0.29200  1.0000 0.0724742356
C   C22       1.0  0.20960  0.33910  0.70800  1.0000 0.0724742356
C   C23       1.0  0.57550  0.72430  0.63580  1.0000 0.5484959563
C   C24       1.0  0.42450  0.22430  0.36420  1.0000 0.5484959563
C   C25       1.0  0.18880  0.82290  0.67350  1.0000 -0.1800744359
C   C26       1.0  0.81120  0.32290  0.32650  1.0000 -0.1800744359
C   C27       1.0  0.13910  0.71610  0.48720  1.0000 0.1106199332
C   C28       1.0  0.86090  0.21610  0.51280  1.0000 0.1106199332
C   C29       1.0  0.82370  0.74050  0.43560  1.0000 0.0724742356
C   C30       1.0  0.17630  0.24050  0.56440  1.0000 0.0724742356
C   C31       1.0  0.94910  0.69510  0.53720  1.0000 -0.1800744359
C   C32       1.0  0.05090  0.19510  0.46280  1.0000 -0.1800744359
C   C33       1.0  0.91180  0.84130  0.29480  1.0000 -0.1800744359
C   C34       1.0  0.08820  0.34130  0.70520  1.0000 -0.1800744359
C   C35       1.0  0.78570  0.80750  0.18610  1.0000 0.0798898386
C   C36       1.0  0.21430  0.30750  0.81390  1.0000 0.0798898386
C   C37       1.0  0.30840  0.81950  0.67640  1.0000 0.0724742356
C   C38       1.0  0.69160  0.31950  0.32360  1.0000 0.0724742356
C   C39       1.0  0.55290  0.81330  0.38680  1.0000 0.5422978779
C   C40       1.0  0.44710  0.31330  0.61320  1.0000 0.5422978779
C   C41       1.0  0.97200  0.82510  0.24060  1.0000 0.1106199332
C   C42       1.0  0.02800  0.32510  0.75940  1.0000 0.1106199332
C   C43       1.0  0.56410  0.84900  0.44950  1.0000 0.0031141206
C   C44       1.0  0.43590  0.34900  0.55050  1.0000 0.0031141206
C   C45       1.0  0.99740  0.81700  0.72990  1.0000 0.1106199332
C   C46       1.0  0.00260  0.31700  0.27010  1.0000 0.1106199332
C   C47       1.0  0.58410  0.68970  0.69860  1.0000 -0.0110067776
C   C48       1.0  0.41590  0.18970  0.30140  1.0000 -0.0110067776
C   C49       1.0  0.20360  0.72100  0.54600  1.0000 -0.1800744359
C   C50       1.0  0.79640  0.22100  0.45400  1.0000 -0.1800744359
C   C51       1.0  0.12760  0.81510  0.73070  1.0000 0.119111388
C   C52       1.0  0.87240  0.31510  0.26930  1.0000 0.119111388
C   C53       1.0  0.93750  0.83250  0.78590  1.0000 -0.1800744359
C   C54       1.0  0.06250  0.33250  0.21410  1.0000 -0.1800744359
C   C55       1.0  0.00890  0.71620  0.48540  1.0000 0.1106199332
C   C56       1.0  0.99110  0.21620  0.51460  1.0000 0.1106199332
C   C57       1.0  0.82730  0.69870  0.53580  1.0000 0.0892210248
C   C58       1.0  0.17270  0.19870  0.46420  1.0000 0.0892210248
C   C59       1.0  0.94370  0.73810  0.43360  1.0000 -0.1800744359
C   C60       1.0  0.05630  0.23810  0.56640  1.0000 -0.1800744359
C   C61       1.0  0.32260  0.71650  0.43440  1.0000 0.0892210248
C   C62       1.0  0.67740  0.21650  0.56560  1.0000 0.0892210248
C   C63       1.0  0.56350  0.81400  0.88140  1.0000 0.5422978779
C   C64       1.0  0.43650  0.31400  0.11860  1.0000 0.5422978779
C   C65       1.0  0.70020  0.65980  0.70500  1.0000 0.0724742356
C   C66       1.0  0.29980  0.15980  0.29500  1.0000 0.0724742356
C   C67       1.0  0.49960  0.99290  0.64100  1.0000 0.1106199332
C   C68       1.0  0.50040  0.49290  0.35900  1.0000 0.1106199332
C   C69       1.0  0.45260  0.97740  0.70030  1.0000 -0.1975102531
C   C70       1.0  0.54740  0.47740  0.29970  1.0000 -0.1975102531
C   C71       1.0  0.59060  0.90550  0.63990  1.0000 0.0892210248
C   C72       1.0  0.40940  0.40550  0.36010  1.0000 0.0892210248
C   C73       1.0  0.18990  0.74020  0.04100  1.0000 -0.1605681161
C   C74       1.0  0.81010  0.24020  0.95900  1.0000 -0.1605681161
C   C75       1.0  0.10050  0.82460  0.24100  1.0000 0.1106199332
C   C76       1.0  0.89950  0.32460  0.75900  1.0000 0.1106199332
C   C77       1.0  0.16080  0.83310  0.18260  1.0000 -0.1800744359
C   C78       1.0  0.83920  0.33310  0.81740  1.0000 -0.1800744359
C   C79       1.0  0.30860  0.74390  0.03960  1.0000 0.0798898386
C   C80       1.0  0.69140  0.24390  0.96040  1.0000 0.0798898386
C   C81       1.0  0.55620  0.69500  0.19690  1.0000 -0.0151361129
C   C82       1.0  0.44380  0.19500  0.80310  1.0000 -0.0151361129
C   C83       1.0  0.30650  0.71530  0.93220  1.0000 0.0724742356
C   C84       1.0  0.69350  0.21530  0.06780  1.0000 0.0724742356
C   C85       1.0  0.67490  0.66780  0.20640  1.0000 0.0642502481
C   C86       1.0  0.32510  0.16780  0.79360  1.0000 0.0642502481
C   C87       1.0  0.75840  0.68630  0.25250  1.0000 -0.1402056733
C   C88       1.0  0.24160  0.18630  0.74750  1.0000 -0.1402056733
C   C89       1.0  0.49040  0.99740  0.14300  1.0000 0.1106199332
C   C90       1.0  0.50960  0.49740  0.85700  1.0000 0.1106199332
C   C91       1.0  0.48790  0.05600  0.54420  1.0000 -0.1975102531
C   C92       1.0  0.51210  0.55600  0.45580  1.0000 -0.1975102531
C   C93       1.0  0.52220  0.06370  0.05260  1.0000 -0.1909677158
C   C94       1.0  0.47780  0.56370  0.94740  1.0000 -0.1909677158
C   C95       1.0  0.86860  0.66360  0.25770  1.0000 -0.083074152
C   C96       1.0  0.13140  0.16360  0.74230  1.0000 -0.083074152
C   C97       1.0  0.46760  0.10650  0.51850  1.0000 0.0798898386
C   C98       1.0  0.53240  0.60650  0.48150  1.0000 0.0798898386
C   C99       1.0  0.49920  0.98980  0.21040  1.0000 -0.1909677158
C   C100      1.0  0.50080  0.48980  0.78960  1.0000 -0.1909677158
C   C101      1.0  0.41850  0.13990  0.61670  1.0000 0.1006367767
C   C102      1.0  0.58150  0.63990  0.38330  1.0000 0.1006367767
C   C103      1.0  0.51590  0.93840  0.23530  1.0000 0.0798898386
C   C104      1.0  0.48410  0.43840  0.76470  1.0000 0.0798898386
C   C105      1.0  0.50610  0.11440  0.02510  1.0000 0.0892210248
C   C106      1.0  0.49390  0.61440  0.97490  1.0000 0.0892210248
C   C107      1.0  0.41460  0.09270  0.14350  1.0000 -0.1800744359
C   C108      1.0  0.58540  0.59270  0.85650  1.0000 -0.1800744359
C   C109      1.0  0.43770  0.09000  0.64700  1.0000 -0.1800744359
C   C110      1.0  0.56230  0.59000  0.35300  1.0000 -0.1800744359
C   C111      1.0  0.40390  0.14280  0.11310  1.0000 0.1006367767
C   C112      1.0  0.59610  0.64280  0.88690  1.0000 0.1006367767
C   C113      1.0  0.79500  0.68050  0.74160  1.0000 -0.1313551435
C   C114      1.0  0.20500  0.18050  0.25840  1.0000 -0.1313551435
C   C115      1.0  0.45210  0.88100  0.45600  1.0000 0.0724742356
C   C116      1.0  0.54790  0.38100  0.54400  1.0000 0.0724742356
C   C117      1.0  0.12560  0.72360  0.98530  1.0000 0.1106199332
C   C118      1.0  0.87440  0.22360  0.01470  1.0000 0.1106199332
C   C119      1.0  0.90290  0.65470  0.74260  1.0000 -0.083074152
C   C120      1.0  0.09710  0.15470  0.25740  1.0000 -0.083074152
C   C121      1.0  0.55140  0.73090  0.13560  1.0000 0.5596565088
C   C122      1.0  0.44860  0.23090  0.86440  1.0000 0.5596565088
C   C123      1.0  0.28110  0.82900  0.18500  1.0000 0.0724742356
C   C124      1.0  0.71890  0.32900  0.81500  1.0000 0.0724742356
C   C125      1.0  0.89660  0.62090  0.21800  1.0000 -0.0917099485
C   C126      1.0  0.10340  0.12090  0.78200  1.0000 -0.0917099485
C   C127      1.0  0.81360  0.60160  0.17260  1.0000 -0.0989301572
C   C128      1.0  0.18640  0.10160  0.82740  1.0000 -0.0989301572
C   C129      1.0  0.18700  0.71130  0.92950  1.0000 -0.1800744359
C   C130      1.0  0.81300  0.21130  0.07050  1.0000 -0.1800744359
C   C131      1.0  0.47520  0.05150  0.11280  1.0000 0.119111388
C   C132      1.0  0.52480  0.55150  0.88720  1.0000 0.119111388
C   C133      1.0  0.19300  0.80550  0.78900  1.0000 -0.1800744359
C   C134      1.0  0.80700  0.30550  0.21100  1.0000 -0.1800744359
C   C135      1.0  0.16930  0.81810  0.29780  1.0000 -0.1909677158
C   C136      1.0  0.83070  0.31810  0.70220  1.0000 -0.1909677158
C   C137      1.0  0.50930  0.90180  0.13260  1.0000 0.0798898386
C   C138      1.0  0.49070  0.40180  0.86740  1.0000 0.0798898386
C   C139      1.0  0.31180  0.80250  0.78710  1.0000 0.0798898386
C   C140      1.0  0.68820  0.30250  0.21290  1.0000 0.0798898386
C   C141      1.0  0.47690  0.92670  0.72560  1.0000 0.0892210248
C   C142      1.0  0.52310  0.42670  0.27440  1.0000 0.0892210248
C   C143      1.0  0.70300  0.62450  0.16660  1.0000 -0.1605681161
C   C144      1.0  0.29700  0.12450  0.83340  1.0000 -0.1605681161
C   C145      1.0  0.28720  0.81370  0.29460  1.0000 0.0798898386
C   C146      1.0  0.71280  0.31370  0.70540  1.0000 0.0798898386
C   C147      1.0  0.20180  0.71320  0.42970  1.0000 -0.1909677158
C   C148      1.0  0.79820  0.21320  0.57030  1.0000 -0.1909677158
C   C149      1.0  0.47410  0.04640  0.61100  1.0000 0.1106199332
C   C150      1.0  0.52590  0.54640  0.38900  1.0000 0.1106199332
C   C151      1.0  0.36120  0.85980  0.48870  1.0000 -0.1313551435
C   C152      1.0  0.63880  0.35980  0.51130  1.0000 -0.1313551435
C   C153      1.0  0.57120  0.95570  0.61110  1.0000 -0.1800744359
C   C154      1.0  0.42880  0.45570  0.38890  1.0000 -0.1800744359
C   C155      1.0  0.49270  0.95190  0.10400  1.0000 -0.1909677158
C   C156      1.0  0.50730  0.45190  0.89600  1.0000 -0.1909677158
C   C157      1.0  0.57890  0.85180  0.94130  1.0000 -1.29402e-05
C   C158      1.0  0.42110  0.35180  0.05870  1.0000 -1.29402e-05
C   C159      1.0  0.48820  0.89640  0.93620  1.0000 0.0642502481
C   C160      1.0  0.51180  0.39640  0.06380  1.0000 0.0642502481
C   C161      1.0  0.82090  0.58490  0.67370  1.0000 -0.0989301572
C   C162      1.0  0.17910  0.08490  0.32630  1.0000 -0.0989301572
C   C163      1.0  0.37460  0.88520  0.94670  1.0000 -0.1313551435
C   C164      1.0  0.62540  0.38520  0.05330  1.0000 -0.1313551435
C   C165      1.0  0.71420  0.61100  0.67170  1.0000 -0.1605681161
C   C166      1.0  0.28580  0.11100  0.32830  1.0000 -0.1605681161
C   C167      1.0  0.91750  0.60850  0.70800  1.0000 -0.0989301572
C   C168      1.0  0.08250  0.10850  0.29200  1.0000 -0.0989301572
C   C169      1.0  0.24040  0.93600  0.46180  1.0000 -0.0989301572
C   C170      1.0  0.75960  0.43600  0.53820  1.0000 -0.0989301572
C   C171      1.0  0.44060  0.93050  0.42680  1.0000 -0.1605681161
C   C172      1.0  0.55940  0.43050  0.57320  1.0000 -0.1605681161
C   C173      1.0  0.33350  0.95760  0.42940  1.0000 -0.1072675301
C   C174      1.0  0.66650  0.45760  0.57060  1.0000 -0.1072675301
C   C175      1.0  0.52020  0.94740  0.91580  1.0000 -0.1605681161
C   C176      1.0  0.47980  0.44740  0.08420  1.0000 -0.1605681161
C   C177      1.0  0.32880  0.97810  0.91860  1.0000 -0.1181625495
C   C178      1.0  0.67120  0.47810  0.08140  1.0000 -0.1181625495
C   C179      1.0  0.28980  0.92700  0.93730  1.0000 -0.0710006947
C   C180      1.0  0.71020  0.42700  0.06270  1.0000 -0.0710006947
C   C181      1.0  0.44170  0.98890  0.90760  1.0000 -0.1072675301
C   C182      1.0  0.55830  0.48890  0.09240  1.0000 -0.1072675301
C   C183      1.0  0.25490  0.88740  0.49160  1.0000 -0.083074152
C   C184      1.0  0.74510  0.38740  0.50840  1.0000 -0.083074152
N   N1        1.0  0.37160  0.80900  0.73280  1.0000 -0.2639698605
N   N2        1.0  0.62840  0.30900  0.26720  1.0000 -0.2639698605
N   N3        1.0  0.75040  0.81620  0.73010  1.0000 -0.2639698605
N   N4        1.0  0.24960  0.31620  0.26990  1.0000 -0.2639698605
N   N5        1.0  0.36900  0.73260  0.98610  1.0000 -0.2525265752
N   N6        1.0  0.63100  0.23260  0.01390  1.0000 -0.2525265752
N   N7        1.0  0.76470  0.72250  0.48660  1.0000 -0.2525265752
N   N8        1.0  0.23530  0.22250  0.51340  1.0000 -0.2525265752
N   N9        1.0  0.75030  0.72850  0.98500  1.0000 -0.2674497882
N   N10       1.0  0.24970  0.22850  0.01500  1.0000 -0.2674497882
N   N11       1.0  0.72670  0.82070  0.23890  1.0000 -0.2525265752
N   N12       1.0  0.27330  0.32070  0.76110  1.0000 -0.2525265752
N   N13       1.0  0.38450  0.72300  0.49060  1.0000 -0.2525265752
N   N14       1.0  0.61550  0.22300  0.50940  1.0000 -0.2525265752
N   N15       1.0  0.54450  0.89050  0.69660  1.0000 -0.241965787
N   N16       1.0  0.45550  0.39050  0.30340  1.0000 -0.241965787
N   N17       1.0  0.44960  0.15400  0.05460  1.0000 -0.241965787
N   N18       1.0  0.55040  0.65400  0.94540  1.0000 -0.241965787
N   N19       1.0  0.52240  0.89420  0.19760  1.0000 -0.241965787
N   N20       1.0  0.47760  0.39420  0.80240  1.0000 -0.241965787
N   N21       1.0  0.43430  0.14840  0.55380  1.0000 -0.2278828541
N   N22       1.0  0.56570  0.64840  0.44620  1.0000 -0.2278828541
N   N23       1.0  0.34610  0.81780  0.24010  1.0000 -0.241965787
N   N24       1.0  0.65390  0.31780  0.75990  1.0000 -0.241965787
N   N25       1.0  0.12000  0.36620  0.49900  1.0000 0.6997970124
N   N26       1.0  0.88000  0.86620  0.50100  1.0000 0.6997970124
N   N27       1.0  0.02710  0.35770  0.03350  1.0000 0.6997970124
N   N28       1.0  0.97290  0.85770  0.96650  1.0000 0.6997970124
N   N29       1.0  0.71280  0.17410  0.24800  1.0000 0.6997970124
N   N30       1.0  0.28720  0.67410  0.75200  1.0000 0.6997970124
N   N31       1.0  0.74920  0.18680  0.75460  1.0000 0.7073308905
N   N32       1.0  0.25080  0.68680  0.24540  1.0000 0.7073308905
O   O1        1.0  0.56780  0.83767  0.82680  1.0000 -0.5274215261
O   O2        1.0  0.43220  0.33767  0.17320  1.0000 -0.5274215261
O   O3        1.0  0.55760  0.77425  0.64100  1.0000 -0.5274215261
O   O4        1.0  0.44240  0.27425  0.35900  1.0000 -0.5274215261
O   O5        1.0  0.54250  0.83851  0.33360  1.0000 -0.5394891719
O   O6        1.0  0.45750  0.33851  0.66640  1.0000 -0.5394891719
O   O7        1.0  0.54810  0.76472  0.89040  1.0000 -0.5138915101
O   O8        1.0  0.45190  0.26472  0.10960  1.0000 -0.5138915101
O   O9        1.0  0.58540  0.69938  0.58230  1.0000 -0.5509478966
O   O10       1.0  0.41460  0.19938  0.41770  1.0000 -0.5509478966
O   O11       1.0  0.55850  0.76315  0.39340  1.0000 -0.5232477704
O   O12       1.0  0.44150  0.26315  0.60660  1.0000 -0.5232477704
O   O13       1.0  0.56700  0.72368  0.75420  1.0000 -0.4681162059
O   O14       1.0  0.43300  0.22368  0.24580  1.0000 -0.4681162059
O   O15       1.0  0.59080  0.81540  0.50500  1.0000 -0.4591819565
O   O16       1.0  0.40920  0.31540  0.49500  1.0000 -0.4591819565
O   O17       1.0  0.57410  0.82057  0.99990  1.0000 -0.4591819565
O   O18       1.0  0.42590  0.32057  0.00010  1.0000 -0.4591819565
O   O19       1.0  0.53100  0.72723  0.25280  1.0000 -0.4874212364
O   O20       1.0  0.46900  0.22723  0.74720  1.0000 -0.4874212364
O   O21       1.0  0.53370  0.78134  0.14240  1.0000 -0.5509478966
O   O22       1.0  0.46630  0.28134  0.85760  1.0000 -0.5509478966
O   O23       1.0  0.56410  0.70785  0.08140  1.0000 -0.5509478966
O   O24       1.0  0.43590  0.20785  0.91860  1.0000 -0.5509478966
O   O25       1.0  0.19880  0.35430  0.45890  1.0000 -0.4681162059
O   O26       1.0  0.01850  0.35370  0.48420  1.0000 -0.4231709162
O   O27       1.0  0.14880  0.38780  0.55180  1.0000 -0.4384122709
O   O28       1.0  0.80120  0.85430  0.54110  1.0000 -0.4681162059
O   O29       1.0  0.98150  0.85370  0.51580  1.0000 -0.4231709162
O   O30       1.0  0.85120  0.88780  0.44820  1.0000 -0.4384122709
O   O31       1.0  0.02850  0.34890  0.97390  1.0000 -0.4384122709
O   O32       1.0  0.12020  0.37290  0.06470  1.0000 -0.4874212364
O   O33       1.0  0.93190  0.35040  0.06160  1.0000 -0.4771118978
O   O34       1.0  0.97150  0.84890  0.02610  1.0000 -0.4384122709
O   O35       1.0  0.87980  0.87290  0.93530  1.0000 -0.4874212364
O   O36       1.0  0.06810  0.85040  0.93840  1.0000 -0.4771118978
O   O37       1.0  0.70160  0.18660  0.30670  1.0000 -0.4384122709
O   O38       1.0  0.80910  0.16190  0.22780  1.0000 -0.4323746184
O   O39       1.0  0.62290  0.17370  0.20830  1.0000 -0.4681162059
O   O40       1.0  0.29840  0.68660  0.69330  1.0000 -0.4384122709
O   O41       1.0  0.19090  0.66190  0.77220  1.0000 -0.4323746184
O   O42       1.0  0.37710  0.67370  0.79170  1.0000 -0.4681162059
O   O43       1.0  0.72690  0.19730  0.81300  1.0000 -0.4505695919
O   O44       1.0  0.66180  0.18300  0.71170  1.0000 -0.4991408805
O   O45       1.0  0.84930  0.17860  0.73720  1.0000 -0.4384122709
O   O46       1.0  0.27310  0.69730  0.18700  1.0000 -0.4505695919
O   O47       1.0  0.33820  0.68300  0.28830  1.0000 -0.4991408805
O   O48       1.0  0.15070  0.67860  0.26280  1.0000 -0.4384122709
