# DDEC6 charges by PACMAN v1.1 (https://github.com/mtap-research/PACMAN-charge/)
data_2015[La][sev]3[ION]1
_chemical_formula_sum              "La4 H128 C160 N32 Cl8 O64"
_cell_length_a       13.2242
_cell_length_b       38.366
_cell_length_c       17.0621
_cell_angle_alpha    90
_cell_angle_beta     130.054
_cell_angle_gamma    90

_symmetry_space_group_name_H-M    "P 1"
_symmetry_Int_Tables_number       1

loop_
  _symmetry_equiv_pos_as_xyz
  'x, y, z'

loop_
  _atom_site_type_symbol
  _atom_site_label
  _atom_site_symmetry_multiplicity
  _atom_site_fract_x
  _atom_site_fract_y
  _atom_site_fract_z
  _atom_site_occupancy
  _atom_site_charge
La  La1       1.0  0.51228  0.37495  0.27141  1.0000 1.7833563078
La  La2       1.0  0.48772  0.87495  0.22859  1.0000 1.7833563078
La  La3       1.0  0.48772  0.62505  0.72859  1.0000 1.7833563078
La  La4       1.0  0.51228  0.12505  0.77141  1.0000 1.7833563078
H   H1        1.0  0.34640  0.47260  0.14670  1.0000 0.1327000175
H   H2        1.0  0.65360  0.97260  0.35330  1.0000 0.1327000175
H   H3        1.0  0.65360  0.52740  0.85330  1.0000 0.1327000175
H   H4        1.0  0.34640  0.02740  0.64670  1.0000 0.1327000175
H   H5        1.0  0.31070  0.51730  0.21620  1.0000 0.1410221086
H   H6        1.0  0.68930  0.01730  0.28380  1.0000 0.1410221086
H   H7        1.0  0.68930  0.48270  0.78380  1.0000 0.1410221086
H   H8        1.0  0.31070  0.98270  0.71620  1.0000 0.1410221086
H   H9        1.0  0.68800  0.50970  0.47440  1.0000 0.1410221086
H   H10       1.0  0.31200  0.00970  0.02560  1.0000 0.1410221086
H   H11       1.0  0.31200  0.49030  0.52560  1.0000 0.1410221086
H   H12       1.0  0.68800  0.99030  0.97440  1.0000 0.1410221086
H   H13       1.0  0.72120  0.46560  0.39880  1.0000 0.1410221086
H   H14       1.0  0.27880  0.96560  0.10120  1.0000 0.1410221086
H   H15       1.0  0.27880  0.53440  0.60120  1.0000 0.1410221086
H   H16       1.0  0.72120  0.03440  0.89880  1.0000 0.1410221086
H   H17       1.0  0.35690  0.27140  0.21250  1.0000 0.1327000175
H   H18       1.0  0.64310  0.77140  0.28750  1.0000 0.1327000175
H   H19       1.0  0.64310  0.72860  0.78750  1.0000 0.1327000175
H   H20       1.0  0.35690  0.22860  0.71250  1.0000 0.1327000175
H   H21       1.0  0.31960  0.22890  0.09910  1.0000 0.1410221086
H   H22       1.0  0.68040  0.72890  0.40090  1.0000 0.1410221086
H   H23       1.0  0.68040  0.77110  0.90090  1.0000 0.1410221086
H   H24       1.0  0.31960  0.27110  0.59910  1.0000 0.1410221086
H   H25       1.0  0.67090  0.25330  0.17680  1.0000 0.1410221086
H   H26       1.0  0.32910  0.75330  0.32320  1.0000 0.1410221086
H   H27       1.0  0.32910  0.74670  0.82320  1.0000 0.1410221086
H   H28       1.0  0.67090  0.24670  0.67680  1.0000 0.1410221086
H   H29       1.0  0.69950  0.29630  0.28430  1.0000 0.1410221086
H   H30       1.0  0.30050  0.79630  0.21570  1.0000 0.1410221086
H   H31       1.0  0.30050  0.70370  0.71570  1.0000 0.1410221086
H   H32       1.0  0.69950  0.20370  0.78430  1.0000 0.1410221086
H   H33       1.0  0.58410  0.56640  0.63670  1.0000 0.1060186744
H   H34       1.0  0.41590  0.06640  0.86330  1.0000 0.1060186744
H   H35       1.0  0.41590  0.43360  0.36330  1.0000 0.1060186744
H   H36       1.0  0.58410  0.93360  0.13670  1.0000 0.1060186744
H   H37       1.0  0.63950  0.53460  0.55500  1.0000 0.1327000175
H   H38       1.0  0.36050  0.03460  0.94500  1.0000 0.1327000175
H   H39       1.0  0.36050  0.46540  0.44500  1.0000 0.1327000175
H   H40       1.0  0.63950  0.96540  0.05500  1.0000 0.1327000175
H   H41       1.0  0.28500  0.55770  0.28420  1.0000 0.1327000175
H   H42       1.0  0.71500  0.05770  0.21580  1.0000 0.1327000175
H   H43       1.0  0.71500  0.44230  0.71580  1.0000 0.1327000175
H   H44       1.0  0.28500  0.94230  0.78420  1.0000 0.1327000175
H   H45       1.0  0.23480  0.58900  0.37110  1.0000 0.1327000175
H   H46       1.0  0.76520  0.08900  0.12890  1.0000 0.1327000175
H   H47       1.0  0.76520  0.41100  0.62890  1.0000 0.1327000175
H   H48       1.0  0.23480  0.91100  0.87110  1.0000 0.1327000175
H   H49       1.0  0.62050  0.15720  0.00760  1.0000 0.1176133145
H   H50       1.0  0.37950  0.65720  0.49240  1.0000 0.1176133145
H   H51       1.0  0.37950  0.84280  0.99240  1.0000 0.1176133145
H   H52       1.0  0.62050  0.34280  0.50760  1.0000 0.1176133145
H   H53       1.0  0.66250  0.19680  0.12750  1.0000 0.1453838039
H   H54       1.0  0.33750  0.69680  0.37250  1.0000 0.1453838039
H   H55       1.0  0.33750  0.80320  0.87250  1.0000 0.1453838039
H   H56       1.0  0.66250  0.30320  0.62750  1.0000 0.1453838039
H   H57       1.0  0.26980  0.21400  0.94970  1.0000 0.1410221086
H   H58       1.0  0.73020  0.71400  0.55030  1.0000 0.1410221086
H   H59       1.0  0.73020  0.78600  0.05030  1.0000 0.1410221086
H   H60       1.0  0.26980  0.28600  0.44970  1.0000 0.1410221086
H   H61       1.0  0.23620  0.17520  0.83120  1.0000 0.1327000175
H   H62       1.0  0.76380  0.67520  0.66880  1.0000 0.1327000175
H   H63       1.0  0.76380  0.82480  0.16880  1.0000 0.1327000175
H   H64       1.0  0.23620  0.32480  0.33120  1.0000 0.1327000175
H   H65       1.0  0.79790  0.31520  0.47900  1.0000 0.1327000175
H   H66       1.0  0.20210  0.81520  0.02100  1.0000 0.1327000175
H   H67       1.0  0.20210  0.68480  0.52100  1.0000 0.1327000175
H   H68       1.0  0.79790  0.18480  0.97900  1.0000 0.1327000175
H   H69       1.0  0.94200  0.30930  0.65630  1.0000 0.1410221086
H   H70       1.0  0.05800  0.80930  0.84370  1.0000 0.1410221086
H   H71       1.0  0.05800  0.69070  0.34370  1.0000 0.1410221086
H   H72       1.0  0.94200  0.19070  0.15630  1.0000 0.1410221086
H   H73       1.0  0.05880  0.40830  0.68210  1.0000 0.1327000175
H   H74       1.0  0.94120  0.90830  0.81790  1.0000 0.1327000175
H   H75       1.0  0.94120  0.59170  0.31790  1.0000 0.1327000175
H   H76       1.0  0.05880  0.09170  0.18210  1.0000 0.1327000175
H   H77       1.0  0.91350  0.41280  0.50540  1.0000 0.1410221086
H   H78       1.0  0.08650  0.91280  0.99460  1.0000 0.1410221086
H   H79       1.0  0.08650  0.58720  0.49460  1.0000 0.1410221086
H   H80       1.0  0.91350  0.08720  0.00540  1.0000 0.1410221086
H   H81       1.0  0.64300  0.32700  0.09010  1.0000 0.1327000175
H   H82       1.0  0.35700  0.82700  0.40990  1.0000 0.1327000175
H   H83       1.0  0.35700  0.67300  0.90990  1.0000 0.1327000175
H   H84       1.0  0.64300  0.17300  0.59010  1.0000 0.1327000175
H   H85       1.0  0.81490  0.33750  0.08830  1.0000 0.1327000175
H   H86       1.0  0.18510  0.83750  0.41170  1.0000 0.1327000175
H   H87       1.0  0.18510  0.66250  0.91170  1.0000 0.1327000175
H   H88       1.0  0.81490  0.16250  0.58830  1.0000 0.1327000175
H   H89       1.0  0.88900  0.42790  0.23680  1.0000 0.1410221086
H   H90       1.0  0.11100  0.92790  0.26320  1.0000 0.1453838039
H   H91       1.0  0.11100  0.57210  0.76320  1.0000 0.1410221086
H   H92       1.0  0.88900  0.07210  0.73680  1.0000 0.1410221086
H   H93       1.0  0.71890  0.41610  0.23780  1.0000 0.1327000175
H   H94       1.0  0.28110  0.91610  0.26220  1.0000 0.1327000175
H   H95       1.0  0.28110  0.58390  0.76220  1.0000 0.1327000175
H   H96       1.0  0.71890  0.08390  0.73780  1.0000 0.1327000175
H   H97       1.0  0.32930  0.39490  0.01690  1.0000 0.1327000175
H   H98       1.0  0.67070  0.89490  0.48310  1.0000 0.1327000175
H   H99       1.0  0.67070  0.60510  0.98310  1.0000 0.1327000175
H   H100      1.0  0.32930  0.10510  0.51690  1.0000 0.1327000175
H   H101      1.0  0.19870  0.40150  0.84190  1.0000 0.1410221086
H   H102      1.0  0.80130  0.90150  0.65810  1.0000 0.1410221086
H   H103      1.0  0.80130  0.59850  0.15810  1.0000 0.1410221086
H   H104      1.0  0.19870  0.09850  0.34190  1.0000 0.1410221086
H   H105      1.0  0.03670  0.30750  0.80500  1.0000 0.1410221086
H   H106      1.0  0.96330  0.80750  0.69500  1.0000 0.1410221086
H   H107      1.0  0.96330  0.69250  0.19500  1.0000 0.1410221086
H   H108      1.0  0.03670  0.19250  0.30500  1.0000 0.1410221086
H   H109      1.0  0.16840  0.30250  0.98020  1.0000 0.1327000175
H   H110      1.0  0.83160  0.80250  0.51980  1.0000 0.1327000175
H   H111      1.0  0.83160  0.69750  0.01980  1.0000 0.1327000175
H   H112      1.0  0.16840  0.19750  0.48020  1.0000 0.1327000175
H   H113      1.0  0.17420  0.35510  0.12830  1.0000 0.1176133145
H   H114      1.0  0.82580  0.85510  0.37170  1.0000 0.1176133145
H   H115      1.0  0.82580  0.64490  0.87170  1.0000 0.1176133145
H   H116      1.0  0.17420  0.14490  0.62830  1.0000 0.1176133145
H   H117      1.0  0.99240  0.34330  0.11880  1.0000 0.1410221086
H   H118      1.0  0.00760  0.84330  0.38120  1.0000 0.1410221086
H   H119      1.0  0.00760  0.65670  0.88120  1.0000 0.1410221086
H   H120      1.0  0.99240  0.15670  0.61880  1.0000 0.1410221086
H   H121      1.0  0.00940  0.44200  0.20500  1.0000 0.1410221086
H   H122      1.0  0.99060  0.94200  0.29500  1.0000 0.1410221086
H   H123      1.0  0.99060  0.55800  0.79500  1.0000 0.1410221086
H   H124      1.0  0.00940  0.05800  0.70500  1.0000 0.1410221086
H   H125      1.0  0.19130  0.45180  0.21810  1.0000 0.1327000175
H   H126      1.0  0.80870  0.95180  0.28190  1.0000 0.1327000175
H   H127      1.0  0.80870  0.54820  0.78190  1.0000 0.1327000175
H   H128      1.0  0.19130  0.04820  0.71810  1.0000 0.1327000175
C   C1        1.0  0.41590  0.47970  0.21520  1.0000 -0.0396424208
C   C2        1.0  0.58410  0.97970  0.28480  1.0000 -0.0396424208
C   C3        1.0  0.58410  0.52030  0.78480  1.0000 -0.0396424208
C   C4        1.0  0.41590  0.02030  0.71520  1.0000 -0.0396424208
C   C5        1.0  0.39460  0.50622  0.25660  1.0000 -0.1825183716
C   C6        1.0  0.60540  0.00622  0.24340  1.0000 -0.1825183716
C   C7        1.0  0.60540  0.49378  0.74340  1.0000 -0.1825183716
C   C8        1.0  0.39460  0.99378  0.75660  1.0000 -0.1825183716
C   C9        1.0  0.49270  0.51704  0.35600  1.0000 0.0979409117
C   C10       1.0  0.50730  0.01704  0.14400  1.0000 0.0979409117
C   C11       1.0  0.50730  0.48296  0.64400  1.0000 0.0979409117
C   C12       1.0  0.49270  0.98296  0.85600  1.0000 0.0979409117
C   C13       1.0  0.61590  0.50184  0.40750  1.0000 -0.1600690063
C   C14       1.0  0.38410  0.00184  0.09250  1.0000 -0.1600690063
C   C15       1.0  0.38410  0.49816  0.59250  1.0000 -0.1600690063
C   C16       1.0  0.61590  0.99816  0.90750  1.0000 -0.1600690063
C   C17       1.0  0.63590  0.47539  0.36340  1.0000 -0.0396424208
C   C18       1.0  0.36410  0.97539  0.13660  1.0000 -0.0396424208
C   C19       1.0  0.36410  0.52461  0.63660  1.0000 -0.0396424208
C   C20       1.0  0.63590  0.02461  0.86340  1.0000 -0.0396424208
C   C21       1.0  0.42000  0.26774  0.20360  1.0000 -0.0488479757
C   C22       1.0  0.58000  0.76774  0.29640  1.0000 -0.0488479757
C   C23       1.0  0.58000  0.73226  0.79640  1.0000 -0.0488479757
C   C24       1.0  0.42000  0.23226  0.70360  1.0000 -0.0488479757
C   C25       1.0  0.39840  0.24236  0.13720  1.0000 -0.1684189897
C   C26       1.0  0.60160  0.74236  0.36280  1.0000 -0.1684189897
C   C27       1.0  0.60160  0.75764  0.86280  1.0000 -0.1684189897
C   C28       1.0  0.39840  0.25764  0.63720  1.0000 -0.1684189897
C   C29       1.0  0.49340  0.23653  0.12620  1.0000 0.0935265734
C   C30       1.0  0.50660  0.73653  0.37380  1.0000 0.0935265734
C   C31       1.0  0.50660  0.76347  0.87380  1.0000 0.0935265734
C   C32       1.0  0.49340  0.26347  0.62620  1.0000 0.0935265734
C   C33       1.0  0.60470  0.25686  0.18240  1.0000 -0.151808032
C   C34       1.0  0.39530  0.75686  0.31760  1.0000 -0.151808032
C   C35       1.0  0.39530  0.74314  0.81760  1.0000 -0.151808032
C   C36       1.0  0.60470  0.24314  0.68240  1.0000 -0.151808032
C   C37       1.0  0.62230  0.28229  0.24660  1.0000 -0.0396424208
C   C38       1.0  0.37770  0.78229  0.25340  1.0000 -0.0396424208
C   C39       1.0  0.37770  0.71771  0.75340  1.0000 -0.0396424208
C   C40       1.0  0.62230  0.21771  0.74660  1.0000 -0.0396424208
C   C41       1.0  0.52210  0.56407  0.56430  1.0000 -0.0576167639
C   C42       1.0  0.47790  0.06407  0.93570  1.0000 -0.0576167639
C   C43       1.0  0.47790  0.43593  0.43570  1.0000 -0.0576167639
C   C44       1.0  0.52210  0.93593  0.06430  1.0000 -0.0576167639
C   C45       1.0  0.55470  0.54507  0.51570  1.0000 -0.1684189897
C   C46       1.0  0.44530  0.04507  0.98430  1.0000 -0.1684189897
C   C47       1.0  0.44530  0.45493  0.48430  1.0000 -0.1684189897
C   C48       1.0  0.55470  0.95493  0.01570  1.0000 -0.1684189897
C   C49       1.0  0.46670  0.54075  0.41010  1.0000 0.0979409117
C   C50       1.0  0.53330  0.04075  0.08990  1.0000 0.0979409117
C   C51       1.0  0.53330  0.45925  0.58990  1.0000 0.0979409117
C   C52       1.0  0.46670  0.95925  0.91010  1.0000 0.0979409117
C   C53       1.0  0.34690  0.55859  0.35690  1.0000 -0.1600690063
C   C54       1.0  0.65310  0.05859  0.14310  1.0000 -0.1600690063
C   C55       1.0  0.65310  0.44141  0.64310  1.0000 -0.1600690063
C   C56       1.0  0.34690  0.94141  0.85690  1.0000 -0.1600690063
C   C57       1.0  0.31740  0.57736  0.40850  1.0000 -0.0396424208
C   C58       1.0  0.68260  0.07736  0.09150  1.0000 -0.0396424208
C   C59       1.0  0.68260  0.42264  0.59150  1.0000 -0.0396424208
C   C60       1.0  0.31740  0.92264  0.90850  1.0000 -0.0396424208
C   C61       1.0  0.54920  0.16918  0.99630  1.0000 -0.0488479757
C   C62       1.0  0.45080  0.66918  0.50370  1.0000 -0.0488479757
C   C63       1.0  0.45080  0.83082  0.00370  1.0000 -0.0488479757
C   C64       1.0  0.54920  0.33082  0.49630  1.0000 -0.0488479757
C   C65       1.0  0.57410  0.19265  0.06720  1.0000 -0.1684189897
C   C66       1.0  0.42590  0.69265  0.43280  1.0000 -0.1684189897
C   C67       1.0  0.42590  0.80735  0.93280  1.0000 -0.1684189897
C   C68       1.0  0.57410  0.30735  0.56720  1.0000 -0.1684189897
C   C69       1.0  0.47110  0.21042  0.05160  1.0000 0.0979409117
C   C70       1.0  0.52890  0.71042  0.44840  1.0000 0.0979409117
C   C71       1.0  0.52890  0.78958  0.94840  1.0000 0.0979409117
C   C72       1.0  0.47110  0.28958  0.55160  1.0000 0.0979409117
C   C73       1.0  0.34320  0.20290  0.96230  1.0000 -0.1600690063
C   C74       1.0  0.65680  0.70290  0.53770  1.0000 -0.1600690063
C   C75       1.0  0.65680  0.79710  0.03770  1.0000 -0.1600690063
C   C76       1.0  0.34320  0.29710  0.46230  1.0000 -0.1600690063
C   C77       1.0  0.32330  0.17956  0.89290  1.0000 -0.0331398287
C   C78       1.0  0.67670  0.67956  0.60710  1.0000 -0.0331398287
C   C79       1.0  0.67670  0.82044  0.10710  1.0000 -0.0331398287
C   C80       1.0  0.32330  0.32044  0.39290  1.0000 -0.0331398287
C   C81       1.0  0.85100  0.33443  0.52110  1.0000 -0.0488479757
C   C82       1.0  0.14900  0.83443  0.97890  1.0000 -0.0488479757
C   C83       1.0  0.14900  0.66557  0.47890  1.0000 -0.0488479757
C   C84       1.0  0.85100  0.16557  0.02110  1.0000 -0.0488479757
C   C85       1.0  0.93670  0.33095  0.62670  1.0000 -0.1684189897
C   C86       1.0  0.06330  0.83095  0.87330  1.0000 -0.1684189897
C   C87       1.0  0.06330  0.66905  0.37330  1.0000 -0.1684189897
C   C88       1.0  0.93670  0.16905  0.12670  1.0000 -0.1684189897
C   C89       1.0  0.01470  0.35858  0.68960  1.0000 0.0935265734
C   C90       1.0  0.98530  0.85858  0.81040  1.0000 0.0935265734
C   C91       1.0  0.98530  0.64142  0.31040  1.0000 0.0935265734
C   C92       1.0  0.01470  0.14142  0.18960  1.0000 0.0935265734
C   C93       1.0  0.00520  0.38893  0.64190  1.0000 -0.1600690063
C   C94       1.0  0.99480  0.88893  0.85810  1.0000 -0.1600690063
C   C95       1.0  0.99480  0.61107  0.35810  1.0000 -0.1600690063
C   C96       1.0  0.00520  0.11107  0.14190  1.0000 -0.1600690063
C   C97       1.0  0.91880  0.39158  0.53660  1.0000 -0.0209015255
C   C98       1.0  0.08120  0.89158  0.96340  1.0000 -0.0209015255
C   C99       1.0  0.08120  0.60842  0.46340  1.0000 -0.0209015255
C   C100      1.0  0.91880  0.10842  0.03660  1.0000 -0.0209015255
C   C101      1.0  0.69360  0.34779  0.11970  1.0000 -0.0396424208
C   C102      1.0  0.30640  0.84779  0.38030  1.0000 -0.0396424208
C   C103      1.0  0.30640  0.65221  0.88030  1.0000 -0.0396424208
C   C104      1.0  0.69360  0.15221  0.61970  1.0000 -0.0396424208
C   C105      1.0  0.79600  0.35402  0.11880  1.0000 -0.151808032
C   C106      1.0  0.20400  0.85402  0.38120  1.0000 -0.151808032
C   C107      1.0  0.20400  0.64598  0.88120  1.0000 -0.151808032
C   C108      1.0  0.79600  0.14598  0.61880  1.0000 -0.151808032
C   C109      1.0  0.87060  0.38392  0.16150  1.0000 0.0935265734
C   C110      1.0  0.12940  0.88392  0.33850  1.0000 0.0935265734
C   C111      1.0  0.12940  0.61608  0.83850  1.0000 0.0935265734
C   C112      1.0  0.87060  0.11608  0.66150  1.0000 0.0935265734
C   C113      1.0  0.83930  0.40704  0.20610  1.0000 -0.151808032
C   C114      1.0  0.16070  0.90704  0.29390  1.0000 -0.151808032
C   C115      1.0  0.16070  0.59296  0.79390  1.0000 -0.151808032
C   C116      1.0  0.83930  0.09296  0.70610  1.0000 -0.151808032
C   C117      1.0  0.73820  0.40017  0.20640  1.0000 -0.0396424208
C   C118      1.0  0.26180  0.90017  0.29360  1.0000 -0.0396424208
C   C119      1.0  0.26180  0.59983  0.79360  1.0000 -0.0396424208
C   C120      1.0  0.73820  0.09983  0.70640  1.0000 -0.0396424208
C   C121      1.0  0.26860  0.37703  0.97260  1.0000 -0.0576167639
C   C122      1.0  0.73140  0.87703  0.52740  1.0000 -0.0576167639
C   C123      1.0  0.73140  0.62297  0.02740  1.0000 -0.0576167639
C   C124      1.0  0.26860  0.12297  0.47260  1.0000 -0.0576167639
C   C125      1.0  0.19140  0.38092  0.86900  1.0000 -0.143271939
C   C126      1.0  0.80860  0.88092  0.63100  1.0000 -0.143271939
C   C127      1.0  0.80860  0.61908  0.13100  1.0000 -0.143271939
C   C128      1.0  0.19140  0.11908  0.36900  1.0000 -0.143271939
C   C129      1.0  0.10220  0.35513  0.80270  1.0000 0.0979409117
C   C130      1.0  0.89780  0.85513  0.69730  1.0000 0.0979409117
C   C131      1.0  0.89780  0.64487  0.19730  1.0000 0.0979409117
C   C132      1.0  0.10220  0.14487  0.30270  1.0000 0.0979409117
C   C133      1.0  0.09620  0.32575  0.84740  1.0000 -0.1600690063
C   C134      1.0  0.90380  0.82575  0.65260  1.0000 -0.1600690063
C   C135      1.0  0.90380  0.67425  0.15260  1.0000 -0.1600690063
C   C136      1.0  0.09620  0.17425  0.34740  1.0000 -0.1600690063
C   C137      1.0  0.17460  0.32276  0.95140  1.0000 -0.0396424208
C   C138      1.0  0.82540  0.82276  0.54860  1.0000 -0.0396424208
C   C139      1.0  0.82540  0.67724  0.04860  1.0000 -0.0396424208
C   C140      1.0  0.17460  0.17724  0.45140  1.0000 -0.0396424208
C   C141      1.0  0.14120  0.37266  0.14590  1.0000 -0.0396424208
C   C142      1.0  0.85880  0.87266  0.35410  1.0000 -0.0396424208
C   C143      1.0  0.85880  0.62734  0.85410  1.0000 -0.0396424208
C   C144      1.0  0.14120  0.12734  0.64590  1.0000 -0.0396424208
C   C145      1.0  0.03220  0.36575  0.13970  1.0000 -0.1684189897
C   C146      1.0  0.96780  0.86575  0.36030  1.0000 -0.1684189897
C   C147      1.0  0.96780  0.63425  0.86030  1.0000 -0.1684189897
C   C148      1.0  0.03220  0.13425  0.63970  1.0000 -0.1684189897
C   C149      1.0  0.98210  0.39117  0.16370  1.0000 0.0979409117
C   C150      1.0  0.01790  0.89117  0.33630  1.0000 0.0979409117
C   C151      1.0  0.01790  0.60883  0.83630  1.0000 0.0979409117
C   C152      1.0  0.98210  0.10883  0.66370  1.0000 0.0979409117
C   C153      1.0  0.04330  0.42343  0.19090  1.0000 -0.151808032
C   C154      1.0  0.95670  0.92343  0.30910  1.0000 -0.151808032
C   C155      1.0  0.95670  0.57657  0.80910  1.0000 -0.151808032
C   C156      1.0  0.04330  0.07657  0.69090  1.0000 -0.151808032
C   C157      1.0  0.15060  0.42943  0.19800  1.0000 -0.0396424208
C   C158      1.0  0.84940  0.92943  0.30200  1.0000 -0.0396424208
C   C159      1.0  0.84940  0.57057  0.80200  1.0000 -0.0396424208
C   C160      1.0  0.15060  0.07057  0.69800  1.0000 -0.0396424208
N   N1        1.0  0.53200  0.46377  0.26900  1.0000 0.3129290431
N   N2        1.0  0.46800  0.96377  0.23100  1.0000 0.3129290431
N   N3        1.0  0.46800  0.53623  0.73100  1.0000 0.3129290431
N   N4        1.0  0.53200  0.03623  0.76900  1.0000 0.3129290431
N   N5        1.0  0.53020  0.28729  0.25610  1.0000 0.3129290431
N   N6        1.0  0.46980  0.78729  0.24390  1.0000 0.3129290431
N   N7        1.0  0.46980  0.71271  0.74390  1.0000 0.3129290431
N   N8        1.0  0.53020  0.21271  0.75610  1.0000 0.3129290431
N   N9        1.0  0.40360  0.57953  0.51120  1.0000 0.3196819134
N   N10       1.0  0.59640  0.07953  0.98880  1.0000 0.3196819134
N   N11       1.0  0.59640  0.42047  0.48880  1.0000 0.3196819134
N   N12       1.0  0.40360  0.92047  0.01120  1.0000 0.3196819134
N   N13       1.0  0.42520  0.16290  0.91120  1.0000 0.3196819134
N   N14       1.0  0.57480  0.66290  0.58880  1.0000 0.3196819134
N   N15       1.0  0.57480  0.83710  0.08880  1.0000 0.3196819134
N   N16       1.0  0.42520  0.33710  0.41120  1.0000 0.3196819134
N   N17       1.0  0.84280  0.36470  0.47830  1.0000 0.3129290431
N   N18       1.0  0.15720  0.86470  0.02170  1.0000 0.3129290431
N   N19       1.0  0.15720  0.63530  0.52170  1.0000 0.3129290431
N   N20       1.0  0.84280  0.13530  0.97830  1.0000 0.3129290431
N   N21       1.0  0.66570  0.37098  0.16250  1.0000 0.3322991271
N   N22       1.0  0.33430  0.87098  0.33750  1.0000 0.3322991271
N   N23       1.0  0.33430  0.62902  0.83750  1.0000 0.3322991271
N   N24       1.0  0.66570  0.12902  0.66250  1.0000 0.3322991271
N   N25       1.0  0.25940  0.34782  0.01290  1.0000 0.3196819134
N   N26       1.0  0.74060  0.84782  0.48710  1.0000 0.3196819134
N   N27       1.0  0.74060  0.65218  0.98710  1.0000 0.3196819134
N   N28       1.0  0.25940  0.15218  0.51290  1.0000 0.3196819134
N   N29       1.0  0.19870  0.40401  0.17670  1.0000 0.3196819134
N   N30       1.0  0.80130  0.90401  0.32330  1.0000 0.3196819134
N   N31       1.0  0.80130  0.59599  0.82330  1.0000 0.3196819134
N   N32       1.0  0.19870  0.09599  0.67670  1.0000 0.3196819134
Cl  Cl1       1.0  0.96661  0.27011  0.27924  1.0000 1.2713333059
Cl  Cl2       1.0  0.03339  0.77011  0.22076  1.0000 1.2713333059
Cl  Cl3       1.0  0.03339  0.72989  0.72076  1.0000 1.2713333059
Cl  Cl4       1.0  0.96661  0.22989  0.77924  1.0000 1.2713333059
Cl  Cl5       1.0  0.04963  0.98360  0.79939  1.0000 1.2713333059
Cl  Cl6       1.0  0.95037  0.48360  0.70061  1.0000 1.2713333059
Cl  Cl7       1.0  0.95037  0.01640  0.20061  1.0000 1.2713333059
Cl  Cl8       1.0  0.04963  0.51640  0.29939  1.0000 1.2713333059
O   O1        1.0  0.54720  0.43533  0.23230  1.0000 -0.5578528058
O   O2        1.0  0.45280  0.93533  0.26770  1.0000 -0.5578528058
O   O3        1.0  0.45280  0.56467  0.76770  1.0000 -0.5578528058
O   O4        1.0  0.54720  0.06467  0.73230  1.0000 -0.5578528058
O   O5        1.0  0.54630  0.31230  0.31810  1.0000 -0.5795984279
O   O6        1.0  0.45370  0.81230  0.18190  1.0000 -0.5795984279
O   O7        1.0  0.45370  0.68770  0.68190  1.0000 -0.5795984279
O   O8        1.0  0.54630  0.18770  0.81810  1.0000 -0.5795984279
O   O9        1.0  0.36850  0.59557  0.55910  1.0000 -0.5709572371
O   O10       1.0  0.63150  0.09557  0.94090  1.0000 -0.5709572371
O   O11       1.0  0.63150  0.40443  0.44090  1.0000 -0.5709572371
O   O12       1.0  0.36850  0.90443  0.05910  1.0000 -0.5709572371
O   O13       1.0  0.40130  0.13942  0.84350  1.0000 -0.5709572371
O   O14       1.0  0.59870  0.63942  0.65650  1.0000 -0.5709572371
O   O15       1.0  0.59870  0.86058  0.15650  1.0000 -0.5709572371
O   O16       1.0  0.40130  0.36058  0.34350  1.0000 -0.5709572371
O   O17       1.0  0.75630  0.36782  0.37710  1.0000 -0.5530715894
O   O18       1.0  0.24370  0.86782  0.12290  1.0000 -0.5530715894
O   O19       1.0  0.24370  0.63218  0.62290  1.0000 -0.5530715894
O   O20       1.0  0.75630  0.13218  0.87710  1.0000 -0.5530715894
O   O21       1.0  0.56440  0.36464  0.15980  1.0000 -0.5709572371
O   O22       1.0  0.43560  0.86464  0.34020  1.0000 -0.5709572371
O   O23       1.0  0.43560  0.63536  0.84020  1.0000 -0.5709572371
O   O24       1.0  0.56440  0.13536  0.65980  1.0000 -0.5709572371
O   O25       1.0  0.33300  0.34339  0.11370  1.0000 -0.5709572371
O   O26       1.0  0.66700  0.84339  0.38630  1.0000 -0.5709572371
O   O27       1.0  0.66700  0.65661  0.88630  1.0000 -0.5709572371
O   O28       1.0  0.33300  0.15661  0.61370  1.0000 -0.5709572371
O   O29       1.0  0.30800  0.41062  0.18920  1.0000 -0.5889405321
O   O30       1.0  0.69200  0.91062  0.31080  1.0000 -0.5889405321
O   O31       1.0  0.69200  0.58938  0.81080  1.0000 -0.5889405321
O   O32       1.0  0.30800  0.08938  0.68920  1.0000 -0.5889405321
O   O33       1.0  0.88950  0.29142  0.29270  1.0000 -0.5186734509
O   O34       1.0  0.07440  0.25403  0.37540  1.0000 -0.5186734509
O   O35       1.0  0.02010  0.29188  0.24420  1.0000 -0.5186734509
O   O36       1.0  0.88290  0.24307  0.20470  1.0000 -0.5274724971
O   O37       1.0  0.11050  0.79142  0.20730  1.0000 -0.5186734509
O   O38       1.0  0.92560  0.75403  0.12460  1.0000 -0.5186734509
O   O39       1.0  0.97990  0.79188  0.25580  1.0000 -0.5186734509
O   O40       1.0  0.11710  0.74307  0.29530  1.0000 -0.5274724971
O   O41       1.0  0.11050  0.70858  0.70730  1.0000 -0.5186734509
O   O42       1.0  0.92560  0.74597  0.62460  1.0000 -0.5186734509
O   O43       1.0  0.97990  0.70812  0.75580  1.0000 -0.5186734509
O   O44       1.0  0.11710  0.75693  0.79530  1.0000 -0.5274724971
O   O45       1.0  0.88950  0.20858  0.79270  1.0000 -0.5186734509
O   O46       1.0  0.07440  0.24597  0.87540  1.0000 -0.5186734509
O   O47       1.0  0.02010  0.20812  0.74420  1.0000 -0.5186734509
O   O48       1.0  0.88290  0.25693  0.70470  1.0000 -0.5274724971
O   O49       1.0  0.94040  0.00761  0.75720  1.0000 -0.5120333444
O   O50       1.0  0.09550  0.97025  0.89590  1.0000 -0.5186734509
O   O51       1.0  0.00700  0.95479  0.73100  1.0000 -0.5012811433
O   O52       1.0  0.15420  0.00223  0.81180  1.0000 -0.5391142975
O   O53       1.0  0.05960  0.50761  0.74280  1.0000 -0.5120333444
O   O54       1.0  0.90450  0.47025  0.60410  1.0000 -0.5186734509
O   O55       1.0  0.99300  0.45479  0.76900  1.0000 -0.5012811433
O   O56       1.0  0.84580  0.50223  0.68820  1.0000 -0.5391142975
O   O57       1.0  0.05960  0.99239  0.24280  1.0000 -0.5120333444
O   O58       1.0  0.90450  0.02975  0.10410  1.0000 -0.5186734509
O   O59       1.0  0.99300  0.04521  0.26900  1.0000 -0.5012811433
O   O60       1.0  0.84580  0.99777  0.18820  1.0000 -0.5391142975
O   O61       1.0  0.94040  0.49239  0.25720  1.0000 -0.5120333444
O   O62       1.0  0.09550  0.52975  0.39590  1.0000 -0.5186734509
O   O63       1.0  0.00700  0.54521  0.23100  1.0000 -0.5012811433
O   O64       1.0  0.15420  0.49777  0.31180  1.0000 -0.5391142975
