# DDEC6 charges by PACMAN v1.1 (https://github.com/mtap-research/PACMAN-charge/)
data_2016[Zn][rtl]3[ION]1
_chemical_formula_sum              "Zn4 H28 C36 N4 O24"
_cell_length_a       9.47
_cell_length_b       12.351
_cell_length_c       15.955
_cell_angle_alpha    90
_cell_angle_beta     121.962
_cell_angle_gamma    90

_symmetry_space_group_name_H-M    "P 1"
_symmetry_Int_Tables_number       1

loop_
  _symmetry_equiv_pos_as_xyz
  'x, y, z'

loop_
  _atom_site_type_symbol
  _atom_site_label
  _atom_site_symmetry_multiplicity
  _atom_site_fract_x
  _atom_site_fract_y
  _atom_site_fract_z
  _atom_site_occupancy
  _atom_site_charge
Zn  Zn1       1.0  0.16764  0.67955  0.05911  1.0000 0.9608852455
Zn  Zn2       1.0  0.16764  0.32045  0.55911  1.0000 0.9608852455
Zn  Zn3       1.0  0.55549  0.81579  0.17921  1.0000 0.9608852455
Zn  Zn4       1.0  0.55549  0.18421  0.67921  1.0000 0.9608852455
H   H1        1.0  0.01210  0.83070  0.21320  1.0000 0.1423474097
H   H2        1.0  0.01210  0.16930  0.71320  1.0000 0.1423474097
H   H3        1.0  0.13150  0.01860  0.44920  1.0000 0.1423474097
H   H4        1.0  0.13150  0.98140  0.94920  1.0000 0.1423474097
H   H5        1.0  0.47640  0.95440  0.37950  1.0000 0.1423474097
H   H6        1.0  0.47640  0.04560  0.87950  1.0000 0.1423474097
H   H7        1.0  0.57420  0.48990  0.27100  1.0000 0.1423474097
H   H8        1.0  0.57420  0.51010  0.77100  1.0000 0.1423474097
H   H9        1.0  0.25260  0.45290  0.36280  1.0000 0.1423474097
H   H10       1.0  0.25260  0.54710  0.86280  1.0000 0.1423474097
H   H11       1.0  0.71720  0.32800  0.52510  1.0000 0.1510126778
H   H12       1.0  0.71720  0.67200  0.02510  1.0000 0.1510126778
H   H13       1.0  0.05300  0.37600  0.80200  1.0000 0.2104640666
H   H14       1.0  0.92700  0.31700  0.79600  1.0000 0.1510126778
H   H15       1.0  0.93500  0.42000  0.82800  1.0000 0.2104640666
H   H16       1.0  0.06600  0.34000  0.89200  1.0000 0.1951832362
H   H17       1.0  0.05300  0.62400  0.30200  1.0000 0.2104640666
H   H18       1.0  0.92700  0.68300  0.29600  1.0000 0.1510126778
H   H19       1.0  0.93500  0.58000  0.32800  1.0000 0.2104640666
H   H20       1.0  0.06600  0.66000  0.39200  1.0000 0.1951832362
H   H21       1.0  0.81000  0.93800  0.93800  1.0000 0.2104640666
H   H22       1.0  0.73400  0.89500  0.98300  1.0000 0.1510126778
H   H23       1.0  0.89500  0.85500  0.01500  1.0000 0.2340527066
H   H24       1.0  0.85200  0.96400  0.03900  1.0000 0.1666732022
H   H25       1.0  0.81000  0.06200  0.43800  1.0000 0.2104640666
H   H26       1.0  0.73400  0.10500  0.48300  1.0000 0.1510126778
H   H27       1.0  0.89500  0.14500  0.51500  1.0000 0.2340527066
H   H28       1.0  0.85200  0.03600  0.53900  1.0000 0.1666732022
C   C1        1.0  0.29730  0.83270  0.22080  1.0000 0.5961606094
C   C2        1.0  0.29730  0.16730  0.72080  1.0000 0.5961606094
C   C3        1.0  0.25120  0.88430  0.28780  1.0000 -0.0215231775
C   C4        1.0  0.25120  0.11570  0.78780  1.0000 -0.0215231775
C   C5        1.0  0.09120  0.87230  0.26830  1.0000 -0.0640727895
C   C6        1.0  0.09120  0.12770  0.76830  1.0000 -0.0640727895
C   C7        1.0  0.04610  0.92130  0.32970  1.0000 -0.0215231775
C   C8        1.0  0.04610  0.07870  0.82970  1.0000 -0.0215231775
C   C9        1.0  0.16190  0.98360  0.40800  1.0000 -0.0760247967
C   C10       1.0  0.16190  0.01640  0.90800  1.0000 -0.0760247967
C   C11       1.0  0.32120  0.99590  0.42710  1.0000 -0.0042603304
C   C12       1.0  0.32120  0.00410  0.92710  1.0000 -0.0042603304
C   C13       1.0  0.36690  0.94600  0.36660  1.0000 -0.0896157249
C   C14       1.0  0.36690  0.05400  0.86660  1.0000 -0.0896157249
C   C15       1.0  0.26830  0.55240  0.22130  1.0000 0.5585497705
C   C16       1.0  0.26830  0.44760  0.72130  1.0000 0.5585497705
C   C17       1.0  0.39280  0.48370  0.30480  1.0000 -0.0088023424
C   C18       1.0  0.39280  0.51630  0.80480  1.0000 -0.0088023424
C   C19       1.0  0.54950  0.46370  0.31790  1.0000 -0.0707221589
C   C20       1.0  0.54950  0.53630  0.81790  1.0000 -0.0707221589
C   C21       1.0  0.35930  0.44150  0.37230  1.0000 -0.0896157249
C   C22       1.0  0.35930  0.55850  0.87230  1.0000 -0.0896157249
C   C23       1.0  0.43270  0.33630  0.52310  1.0000 0.5961606094
C   C24       1.0  0.43270  0.66370  0.02310  1.0000 0.5961606094
C   C25       1.0  0.47650  0.38300  0.45350  1.0000 -0.0088023424
C   C26       1.0  0.47650  0.61700  0.95350  1.0000 -0.0088023424
C   C27       1.0  0.63430  0.36600  0.46840  1.0000 -0.0640727895
C   C28       1.0  0.63430  0.63400  0.96840  1.0000 -0.0640727895
C   C29       1.0  0.66830  0.40510  0.40000  1.0000 -0.0088023424
C   C30       1.0  0.66830  0.59490  0.90000  1.0000 -0.0088023424
C   C31       1.0  0.44560  0.06580  0.51060  1.0000 0.5585497705
C   C32       1.0  0.44560  0.93420  0.01060  1.0000 0.5585497705
C   C33       1.0  0.87110  0.91000  0.30650  1.0000 0.5585497705
C   C34       1.0  0.87110  0.09000  0.80650  1.0000 0.5585497705
C   C35       1.0  0.84080  0.38910  0.41690  1.0000 0.5545902142
C   C36       1.0  0.84080  0.61090  0.91690  1.0000 0.5545902142
N   N1        1.0  0.99960  0.36690  0.83160  1.0000 -0.6422904691
N   N2        1.0  0.99960  0.63310  0.33160  1.0000 -0.6422904691
N   N3        1.0  0.83340  0.91380  0.99620  1.0000 -0.6422904691
N   N4        1.0  0.83340  0.08620  0.49620  1.0000 -0.6422904691
O   O1        1.0  0.18220  0.81180  0.13360  1.0000 -0.5014093331
O   O2        1.0  0.18220  0.18820  0.63360  1.0000 -0.5014093331
O   O3        1.0  0.44970  0.81390  0.25670  1.0000 -0.5014093331
O   O4        1.0  0.44970  0.18610  0.75670  1.0000 -0.5014093331
O   O5        1.0  0.28900  0.56250  0.14960  1.0000 -0.5149688235
O   O6        1.0  0.28900  0.43750  0.64960  1.0000 -0.5149688235
O   O7        1.0  0.15350  0.59420  0.22540  1.0000 -0.4694887138
O   O8        1.0  0.15350  0.40580  0.72540  1.0000 -0.4694887138
O   O9        1.0  0.27910  0.31610  0.48600  1.0000 -0.5149688235
O   O10       1.0  0.27910  0.68390  0.98600  1.0000 -0.5149688235
O   O11       1.0  0.54800  0.31920  0.61130  1.0000 -0.5014093331
O   O12       1.0  0.54800  0.68080  0.11130  1.0000 -0.5014093331
O   O13       1.0  0.42270  0.07460  0.58350  1.0000 -0.529747676
O   O14       1.0  0.42270  0.92540  0.08350  1.0000 -0.529747676
O   O15       1.0  0.55550  0.11400  0.50570  1.0000 -0.4766926876
O   O16       1.0  0.55550  0.88600  0.00570  1.0000 -0.4766926876
O   O17       1.0  0.79600  0.82330  0.25830  1.0000 -0.4929823986
O   O18       1.0  0.79600  0.17670  0.75830  1.0000 -0.4929823986
O   O19       1.0  0.80820  0.97920  0.33230  1.0000 -0.4694887138
O   O20       1.0  0.80820  0.02080  0.83230  1.0000 -0.4694887138
O   O21       1.0  0.92800  0.31600  0.48090  1.0000 -0.4929823986
O   O22       1.0  0.92800  0.68400  0.98090  1.0000 -0.4929823986
O   O23       1.0  0.88590  0.44360  0.37140  1.0000 -0.4584407917
O   O24       1.0  0.88590  0.55640  0.87140  1.0000 -0.4584407917
