# DDEC6 charges by PACMAN v1.1 (https://github.com/mtap-research/PACMAN-charge/)
data_2016[Ag][dia]3[ION]2
_chemical_formula_sum              "Ag8 B8 H144 C112 N24 F32"
_cell_length_a       12.975
_cell_length_b       23.05
_cell_length_c       13.155
_cell_angle_alpha    90
_cell_angle_beta     91.819
_cell_angle_gamma    90

_symmetry_space_group_name_H-M    "P 1"
_symmetry_Int_Tables_number       1

loop_
  _symmetry_equiv_pos_as_xyz
  'x, y, z'

loop_
  _atom_site_type_symbol
  _atom_site_label
  _atom_site_symmetry_multiplicity
  _atom_site_fract_x
  _atom_site_fract_y
  _atom_site_fract_z
  _atom_site_occupancy
  _atom_site_charge
Ag  Ag1       1.0  0.75000  0.25000  0.50000  1.0000 0.347045089
Ag  Ag2       1.0  0.25000  0.25000  0.00000  1.0000 0.347045089
Ag  Ag3       1.0  0.25000  0.75000  0.50000  1.0000 0.347045089
Ag  Ag4       1.0  0.75000  0.75000  0.00000  1.0000 0.347045089
Ag  Ag5       1.0  0.00000  0.44510  0.25000  1.0000 0.3211943609
Ag  Ag6       1.0  0.00000  0.55490  0.75000  1.0000 0.3211943609
Ag  Ag7       1.0  0.50000  0.94510  0.25000  1.0000 0.3211943609
Ag  Ag8       1.0  0.50000  0.05490  0.75000  1.0000 0.3211943609
B   B1        1.0  0.25873  0.14256  0.20992  1.0000 1.0434906227
B   B2        1.0  0.74127  0.14256  0.29008  1.0000 1.0434906227
B   B3        1.0  0.74127  0.85744  0.79008  1.0000 1.0454898578
B   B4        1.0  0.25873  0.85744  0.70992  1.0000 1.0454898578
B   B5        1.0  0.75873  0.64256  0.20992  1.0000 1.0434906227
B   B6        1.0  0.24127  0.64256  0.29008  1.0000 1.0434906227
B   B7        1.0  0.24127  0.35744  0.79008  1.0000 1.0454898578
B   B8        1.0  0.75873  0.35744  0.70992  1.0000 1.0434906227
H   H1        1.0  0.92305  0.32570  0.59825  1.0000 0.0928405577
H   H2        1.0  0.07695  0.32570  0.90175  1.0000 0.0928405577
H   H3        1.0  0.07695  0.67430  0.40175  1.0000 0.0928405577
H   H4        1.0  0.92305  0.67430  0.09825  1.0000 0.0928405577
H   H5        1.0  0.42305  0.82570  0.59825  1.0000 0.0928405577
H   H6        1.0  0.57695  0.82570  0.90175  1.0000 0.0989017544
H   H7        1.0  0.57695  0.17430  0.40175  1.0000 0.0928405577
H   H8        1.0  0.42305  0.17430  0.09825  1.0000 0.0928405577
H   H9        1.0  0.10468  0.34903  0.56884  1.0000 0.1286301665
H   H10       1.0  0.89532  0.34903  0.93116  1.0000 0.1286301665
H   H11       1.0  0.89532  0.65097  0.43116  1.0000 0.1286301665
H   H12       1.0  0.10468  0.65097  0.06884  1.0000 0.1286301665
H   H13       1.0  0.60468  0.84903  0.56884  1.0000 0.1286301665
H   H14       1.0  0.39532  0.84903  0.93116  1.0000 0.1286301665
H   H15       1.0  0.39532  0.15097  0.43116  1.0000 0.1286301665
H   H16       1.0  0.60468  0.15097  0.06884  1.0000 0.1286301665
H   H17       1.0  0.10007  0.21897  0.33081  1.0000 0.1286301665
H   H18       1.0  0.89993  0.21897  0.16919  1.0000 0.1286301665
H   H19       1.0  0.89993  0.78103  0.66919  1.0000 0.1286301665
H   H20       1.0  0.10007  0.78103  0.83081  1.0000 0.1286301665
H   H21       1.0  0.60007  0.71897  0.33081  1.0000 0.1286301665
H   H22       1.0  0.39993  0.71897  0.16919  1.0000 0.1286301665
H   H23       1.0  0.39993  0.28103  0.66919  1.0000 0.1286301665
H   H24       1.0  0.60007  0.28103  0.83081  1.0000 0.1286301665
H   H25       1.0  0.91630  0.20064  0.36777  1.0000 0.0928405577
H   H26       1.0  0.08370  0.20064  0.13223  1.0000 0.0928405577
H   H27       1.0  0.08370  0.79936  0.63223  1.0000 0.0928405577
H   H28       1.0  0.91630  0.79936  0.86777  1.0000 0.0928405577
H   H29       1.0  0.41630  0.70064  0.36777  1.0000 0.0928405577
H   H30       1.0  0.58370  0.70064  0.13223  1.0000 0.0928405577
H   H31       1.0  0.58370  0.29936  0.63223  1.0000 0.0928405577
H   H32       1.0  0.41630  0.29936  0.86777  1.0000 0.0928405577
H   H33       1.0  0.26976  0.31719  0.48557  1.0000 0.0989017544
H   H34       1.0  0.73024  0.31719  0.01443  1.0000 0.0989017544
H   H35       1.0  0.73024  0.68281  0.51443  1.0000 0.0989017544
H   H36       1.0  0.26976  0.68281  0.98557  1.0000 0.0989017544
H   H37       1.0  0.76976  0.81719  0.48557  1.0000 0.0989017544
H   H38       1.0  0.23024  0.81719  0.01443  1.0000 0.0989017544
H   H39       1.0  0.23024  0.18281  0.51443  1.0000 0.0989017544
H   H40       1.0  0.76976  0.18281  0.98557  1.0000 0.0989017544
H   H41       1.0  0.26317  0.26620  0.38219  1.0000 0.110124017
H   H42       1.0  0.73683  0.26620  0.11781  1.0000 0.110124017
H   H43       1.0  0.73683  0.73380  0.61781  1.0000 0.110124017
H   H44       1.0  0.26317  0.73380  0.88219  1.0000 0.110124017
H   H45       1.0  0.76317  0.76620  0.38219  1.0000 0.110124017
H   H46       1.0  0.23683  0.76620  0.11781  1.0000 0.110124017
H   H47       1.0  0.23683  0.23380  0.61781  1.0000 0.110124017
H   H48       1.0  0.76317  0.23380  0.88219  1.0000 0.110124017
H   H49       1.0  0.09125  0.33646  0.26064  1.0000 0.0404788285
H   H50       1.0  0.90875  0.33646  0.23936  1.0000 0.0404788285
H   H51       1.0  0.90875  0.66354  0.73936  1.0000 0.0404788285
H   H52       1.0  0.09125  0.66354  0.76064  1.0000 0.0404788285
H   H53       1.0  0.59125  0.83646  0.26064  1.0000 0.0404788285
H   H54       1.0  0.40875  0.83646  0.23936  1.0000 0.0404788285
H   H55       1.0  0.40875  0.16354  0.73936  1.0000 0.0404788285
H   H56       1.0  0.59125  0.16354  0.76064  1.0000 0.0404788285
H   H57       1.0  0.19991  0.29806  0.21673  1.0000 0.0928405577
H   H58       1.0  0.80009  0.29806  0.28327  1.0000 0.0928405577
H   H59       1.0  0.80009  0.70194  0.78327  1.0000 0.0928405577
H   H60       1.0  0.19991  0.70194  0.71673  1.0000 0.0928405577
H   H61       1.0  0.69991  0.79806  0.21673  1.0000 0.0928405577
H   H62       1.0  0.30009  0.79806  0.28327  1.0000 0.0928405577
H   H63       1.0  0.30009  0.20194  0.78327  1.0000 0.0928405577
H   H64       1.0  0.69991  0.20194  0.71673  1.0000 0.0928405577
H   H65       1.0  0.27486  0.38818  0.14807  1.0000 0.0928405577
H   H66       1.0  0.72514  0.38818  0.35193  1.0000 0.0928405577
H   H67       1.0  0.72514  0.61182  0.85193  1.0000 0.0928405577
H   H68       1.0  0.27486  0.61182  0.64807  1.0000 0.0928405577
H   H69       1.0  0.77486  0.88818  0.14807  1.0000 0.0928405577
H   H70       1.0  0.22514  0.88818  0.35193  1.0000 0.0928405577
H   H71       1.0  0.22514  0.11182  0.85193  1.0000 0.0928405577
H   H72       1.0  0.77486  0.11182  0.64807  1.0000 0.0928405577
H   H73       1.0  0.14604  0.37876  0.10159  1.0000 0.0814043286
H   H74       1.0  0.85396  0.37876  0.39841  1.0000 0.0814043286
H   H75       1.0  0.85396  0.62124  0.89841  1.0000 0.0814043286
H   H76       1.0  0.14604  0.62124  0.60159  1.0000 0.0814043286
H   H77       1.0  0.64604  0.87876  0.10159  1.0000 0.0814043286
H   H78       1.0  0.35396  0.87876  0.39841  1.0000 0.0814043286
H   H79       1.0  0.35396  0.12124  0.89841  1.0000 0.0814043286
H   H80       1.0  0.64604  0.12124  0.60159  1.0000 0.0814043286
H   H81       1.0  0.21194  0.49802  0.33677  1.0000 0.0989017544
H   H82       1.0  0.78806  0.49802  0.16323  1.0000 0.0989017544
H   H83       1.0  0.78806  0.50198  0.66323  1.0000 0.0989017544
H   H84       1.0  0.21194  0.50198  0.83677  1.0000 0.0989017544
H   H85       1.0  0.71194  0.99802  0.33677  1.0000 0.0989017544
H   H86       1.0  0.28806  0.99802  0.16323  1.0000 0.0989017544
H   H87       1.0  0.28806  0.00198  0.66323  1.0000 0.0989017544
H   H88       1.0  0.71194  0.00198  0.83677  1.0000 0.0989017544
H   H89       1.0  0.31249  0.45619  0.28493  1.0000 0.0928405577
H   H90       1.0  0.68751  0.45619  0.21507  1.0000 0.0928405577
H   H91       1.0  0.68751  0.54381  0.71507  1.0000 0.0928405577
H   H92       1.0  0.31249  0.54381  0.78493  1.0000 0.0928405577
H   H93       1.0  0.81249  0.95619  0.28493  1.0000 0.0928405577
H   H94       1.0  0.18751  0.95619  0.21507  1.0000 0.0928405577
H   H95       1.0  0.18751  0.04381  0.71507  1.0000 0.0928405577
H   H96       1.0  0.81249  0.04381  0.78493  1.0000 0.0928405577
H   H97       1.0  0.25623  0.41647  0.45273  1.0000 0.0989017544
H   H98       1.0  0.74377  0.41647  0.04727  1.0000 0.0989017544
H   H99       1.0  0.74377  0.58353  0.54727  1.0000 0.0989017544
H   H100      1.0  0.25623  0.58353  0.95273  1.0000 0.0989017544
H   H101      1.0  0.75623  0.91647  0.45273  1.0000 0.0989017544
H   H102      1.0  0.24377  0.91647  0.04727  1.0000 0.0989017544
H   H103      1.0  0.24377  0.08353  0.54727  1.0000 0.0989017544
H   H104      1.0  0.75623  0.08353  0.95273  1.0000 0.0989017544
H   H105      1.0  0.12702  0.41072  0.40540  1.0000 0.0404788285
H   H106      1.0  0.87298  0.41072  0.09460  1.0000 0.0404788285
H   H107      1.0  0.87298  0.58928  0.59460  1.0000 0.0404788285
H   H108      1.0  0.12702  0.58928  0.90540  1.0000 0.0404788285
H   H109      1.0  0.62702  0.91072  0.40540  1.0000 0.0404788285
H   H110      1.0  0.37298  0.91072  0.09460  1.0000 0.0404788285
H   H111      1.0  0.37298  0.08928  0.59460  1.0000 0.0404788285
H   H112      1.0  0.62702  0.08928  0.90540  1.0000 0.0404788285
H   H113      1.0  0.25222  0.48192  0.09368  1.0000 0.0989017544
H   H114      1.0  0.74778  0.48192  0.40632  1.0000 0.0989017544
H   H115      1.0  0.74778  0.51808  0.90632  1.0000 0.0989017544
H   H116      1.0  0.25222  0.51808  0.59368  1.0000 0.0989017544
H   H117      1.0  0.75222  0.98192  0.09368  1.0000 0.0989017544
H   H118      1.0  0.24778  0.98192  0.40632  1.0000 0.0989017544
H   H119      1.0  0.24778  0.01808  0.90632  1.0000 0.0989017544
H   H120      1.0  0.75222  0.01808  0.59368  1.0000 0.0989017544
H   H121      1.0  0.19281  0.53303  0.17647  1.0000 0.110124017
H   H122      1.0  0.80719  0.53303  0.32353  1.0000 0.110124017
H   H123      1.0  0.80719  0.46697  0.82353  1.0000 0.110124017
H   H124      1.0  0.19281  0.46697  0.67647  1.0000 0.110124017
H   H125      1.0  0.69281  0.03303  0.17647  1.0000 0.110124017
H   H126      1.0  0.30719  0.03303  0.32353  1.0000 0.110124017
H   H127      1.0  0.30719  0.96697  0.82353  1.0000 0.110124017
H   H128      1.0  0.69281  0.96697  0.67647  1.0000 0.110124017
H   H129      1.0  0.01394  0.56068  0.15636  1.0000 0.1152064604
H   H130      1.0  0.98606  0.56068  0.34364  1.0000 0.1152064604
H   H131      1.0  0.98606  0.43932  0.84364  1.0000 0.1152064604
H   H132      1.0  0.01394  0.43932  0.65636  1.0000 0.1152064604
H   H133      1.0  0.51394  0.06068  0.15636  1.0000 0.1152064604
H   H134      1.0  0.48606  0.06068  0.34364  1.0000 0.1152064604
H   H135      1.0  0.48606  0.93932  0.84364  1.0000 0.1152064604
H   H136      1.0  0.51394  0.93932  0.65636  1.0000 0.1152064604
H   H137      1.0  0.85637  0.56615  0.04612  1.0000 0.110124017
H   H138      1.0  0.14363  0.56615  0.45388  1.0000 0.110124017
H   H139      1.0  0.14363  0.43385  0.95388  1.0000 0.110124017
H   H140      1.0  0.85637  0.43385  0.54612  1.0000 0.110124017
H   H141      1.0  0.35637  0.06615  0.04612  1.0000 0.110124017
H   H142      1.0  0.64363  0.06615  0.45388  1.0000 0.110124017
H   H143      1.0  0.64363  0.93385  0.95388  1.0000 0.110124017
H   H144      1.0  0.35637  0.93385  0.54612  1.0000 0.110124017
C   C1        1.0  0.96321  0.30369  0.53790  1.0000 0.0989017544
C   C2        1.0  0.03679  0.30369  0.96210  1.0000 0.0989017544
C   C3        1.0  0.03679  0.69631  0.46210  1.0000 0.0989017544
C   C4        1.0  0.96321  0.69631  0.03790  1.0000 0.0989017544
C   C5        1.0  0.46321  0.80369  0.53790  1.0000 0.0989017544
C   C6        1.0  0.53679  0.80369  0.96210  1.0000 0.0989017544
C   C7        1.0  0.53679  0.19631  0.46210  1.0000 0.0989017544
C   C8        1.0  0.46321  0.19631  0.03790  1.0000 0.0989017544
C   C9        1.0  0.06553  0.31722  0.51956  1.0000 -0.1743465337
C   C10       1.0  0.93447  0.31722  0.98044  1.0000 -0.1743465337
C   C11       1.0  0.93447  0.68278  0.48044  1.0000 -0.1743465337
C   C12       1.0  0.06553  0.68278  0.01956  1.0000 -0.1743465337
C   C13       1.0  0.56553  0.81722  0.51956  1.0000 -0.1743465337
C   C14       1.0  0.43447  0.81722  0.98044  1.0000 -0.1743465337
C   C15       1.0  0.43447  0.18278  0.48044  1.0000 -0.1743465337
C   C16       1.0  0.56553  0.18278  0.01956  1.0000 -0.1743465337
C   C17       1.0  0.11610  0.28852  0.44216  1.0000 0.1286301665
C   C18       1.0  0.88390  0.28852  0.05784  1.0000 0.1286301665
C   C19       1.0  0.88390  0.71148  0.55784  1.0000 0.1286301665
C   C20       1.0  0.11610  0.71148  0.94216  1.0000 0.1286301665
C   C21       1.0  0.61610  0.78852  0.44216  1.0000 0.1286301665
C   C22       1.0  0.38390  0.78852  0.05784  1.0000 0.1286301665
C   C23       1.0  0.38390  0.21148  0.55784  1.0000 0.1286301665
C   C24       1.0  0.61610  0.21148  0.94216  1.0000 0.1286301665
C   C25       1.0  0.06251  0.24513  0.38826  1.0000 -0.1795010614
C   C26       1.0  0.93749  0.24513  0.11174  1.0000 -0.1795010614
C   C27       1.0  0.93749  0.75487  0.61174  1.0000 -0.1795010614
C   C28       1.0  0.06251  0.75487  0.88826  1.0000 -0.1795010614
C   C29       1.0  0.56251  0.74513  0.38826  1.0000 -0.1795010614
C   C30       1.0  0.43749  0.74513  0.11174  1.0000 -0.1795010614
C   C31       1.0  0.43749  0.25487  0.61174  1.0000 -0.1795010614
C   C32       1.0  0.56251  0.25487  0.88826  1.0000 -0.1795010614
C   C33       1.0  0.96020  0.23380  0.40948  1.0000 0.0814043286
C   C34       1.0  0.03980  0.23380  0.09052  1.0000 0.0814043286
C   C35       1.0  0.03980  0.76620  0.59052  1.0000 0.0814043286
C   C36       1.0  0.96020  0.76620  0.90948  1.0000 0.0814043286
C   C37       1.0  0.46020  0.73380  0.40948  1.0000 0.0814043286
C   C38       1.0  0.53980  0.73380  0.09052  1.0000 0.0814043286
C   C39       1.0  0.53980  0.26620  0.59052  1.0000 0.0814043286
C   C40       1.0  0.46020  0.26620  0.90948  1.0000 0.0814043286
C   C41       1.0  0.22613  0.30400  0.41650  1.0000 -0.1249939847
C   C42       1.0  0.77387  0.30400  0.08350  1.0000 -0.1249939847
C   C43       1.0  0.77387  0.69600  0.58350  1.0000 -0.1249939847
C   C44       1.0  0.22613  0.69600  0.91650  1.0000 -0.1249939847
C   C45       1.0  0.72613  0.80400  0.41650  1.0000 -0.1249939847
C   C46       1.0  0.27387  0.80400  0.08350  1.0000 -0.1249939847
C   C47       1.0  0.27387  0.19600  0.58350  1.0000 -0.1249939847
C   C48       1.0  0.72613  0.19600  0.91650  1.0000 -0.1249939847
C   C49       1.0  0.17564  0.33979  0.24825  1.0000 -0.079005371
C   C50       1.0  0.82436  0.33979  0.25175  1.0000 -0.079005371
C   C51       1.0  0.82436  0.66021  0.75175  1.0000 -0.079005371
C   C52       1.0  0.17564  0.66021  0.74825  1.0000 -0.079005371
C   C53       1.0  0.67564  0.83979  0.24825  1.0000 -0.079005371
C   C54       1.0  0.32436  0.83979  0.25175  1.0000 -0.079005371
C   C55       1.0  0.32436  0.16021  0.75175  1.0000 -0.079005371
C   C56       1.0  0.67564  0.16021  0.74825  1.0000 -0.079005371
C   C57       1.0  0.19334  0.38750  0.17035  1.0000 -0.091942358
C   C58       1.0  0.80666  0.38750  0.32965  1.0000 -0.091942358
C   C59       1.0  0.80666  0.61250  0.82965  1.0000 -0.091942358
C   C60       1.0  0.19334  0.61250  0.67035  1.0000 -0.091942358
C   C61       1.0  0.69334  0.88750  0.17035  1.0000 -0.091942358
C   C62       1.0  0.30666  0.88750  0.32965  1.0000 -0.091942358
C   C63       1.0  0.30666  0.11250  0.82965  1.0000 -0.091942358
C   C64       1.0  0.69334  0.11250  0.67035  1.0000 -0.091942358
C   C65       1.0  0.23044  0.45536  0.30522  1.0000 -0.091942358
C   C66       1.0  0.76956  0.45536  0.19478  1.0000 -0.091942358
C   C67       1.0  0.76956  0.54464  0.69478  1.0000 -0.091942358
C   C68       1.0  0.23044  0.54464  0.80522  1.0000 -0.091942358
C   C69       1.0  0.73044  0.95536  0.30522  1.0000 -0.091942358
C   C70       1.0  0.26956  0.95536  0.19478  1.0000 -0.091942358
C   C71       1.0  0.26956  0.04464  0.69478  1.0000 -0.091942358
C   C72       1.0  0.73044  0.04464  0.80522  1.0000 -0.091942358
C   C73       1.0  0.20928  0.40820  0.38328  1.0000 -0.079005371
C   C74       1.0  0.79072  0.40820  0.11672  1.0000 -0.079005371
C   C75       1.0  0.79072  0.59180  0.61672  1.0000 -0.079005371
C   C76       1.0  0.20928  0.59180  0.88328  1.0000 -0.079005371
C   C77       1.0  0.70928  0.90820  0.38328  1.0000 -0.079005371
C   C78       1.0  0.29072  0.90820  0.11672  1.0000 -0.079005371
C   C79       1.0  0.29072  0.09180  0.61672  1.0000 -0.079005371
C   C80       1.0  0.70928  0.09180  0.88328  1.0000 -0.079005371
C   C81       1.0  0.18189  0.49209  0.13496  1.0000 -0.1361842501
C   C82       1.0  0.81811  0.49209  0.36504  1.0000 -0.1361842501
C   C83       1.0  0.81811  0.50791  0.86504  1.0000 -0.1361842501
C   C84       1.0  0.18189  0.50791  0.63496  1.0000 -0.1361842501
C   C85       1.0  0.68189  0.99209  0.13496  1.0000 -0.1361842501
C   C86       1.0  0.31811  0.99209  0.36504  1.0000 -0.1361842501
C   C87       1.0  0.31811  0.00791  0.86504  1.0000 -0.1361842501
C   C88       1.0  0.68189  0.00791  0.63496  1.0000 -0.1361842501
C   C89       1.0  0.08995  0.49725  0.06230  1.0000 0.0814043286
C   C90       1.0  0.91005  0.49725  0.43770  1.0000 0.0814043286
C   C91       1.0  0.91005  0.50275  0.93770  1.0000 0.0814043286
C   C92       1.0  0.08995  0.50275  0.56230  1.0000 0.0814043286
C   C93       1.0  0.58995  0.99725  0.06230  1.0000 0.0814043286
C   C94       1.0  0.41005  0.99725  0.43770  1.0000 0.0814043286
C   C95       1.0  0.41005  0.00275  0.93770  1.0000 0.0814043286
C   C96       1.0  0.58995  0.00275  0.56230  1.0000 0.0814043286
C   C97       1.0  0.00794  0.53388  0.08774  1.0000 -0.1542468156
C   C98       1.0  0.99206  0.53388  0.41226  1.0000 -0.1542468156
C   C99       1.0  0.99206  0.46612  0.91226  1.0000 -0.1542468156
C   C100      1.0  0.00794  0.46612  0.58774  1.0000 -0.1542468156
C   C101      1.0  0.50794  0.03388  0.08774  1.0000 -0.1542468156
C   C102      1.0  0.49206  0.03388  0.41226  1.0000 -0.1542468156
C   C103      1.0  0.49206  0.96612  0.91226  1.0000 -0.1542468156
C   C104      1.0  0.50794  0.96612  0.58774  1.0000 -0.1542468156
C   C105      1.0  0.91947  0.53728  0.02499  1.0000 -0.1361842501
C   C106      1.0  0.08053  0.53728  0.47501  1.0000 -0.1361842501
C   C107      1.0  0.08053  0.46272  0.97501  1.0000 -0.1361842501
C   C108      1.0  0.91947  0.46272  0.52499  1.0000 -0.1361842501
C   C109      1.0  0.41947  0.03728  0.02499  1.0000 -0.1361842501
C   C110      1.0  0.58053  0.03728  0.47501  1.0000 -0.1361842501
C   C111      1.0  0.58053  0.96272  0.97501  1.0000 -0.1361842501
C   C112      1.0  0.41947  0.96272  0.52499  1.0000 -0.1361842501
N   N1        1.0  0.91034  0.26391  0.48167  1.0000 -0.1867830503
N   N2        1.0  0.08966  0.26391  0.01833  1.0000 -0.1867830503
N   N3        1.0  0.08966  0.73609  0.51833  1.0000 -0.1867830503
N   N4        1.0  0.91034  0.73609  0.98167  1.0000 -0.1867830503
N   N5        1.0  0.41034  0.76391  0.48167  1.0000 -0.1867830503
N   N6        1.0  0.58966  0.76391  0.01833  1.0000 -0.1867830503
N   N7        1.0  0.58966  0.23609  0.51833  1.0000 -0.1867830503
N   N8        1.0  0.41034  0.23609  0.98167  1.0000 -0.1867830503
N   N9        1.0  0.23415  0.35121  0.34288  1.0000 -0.107773901
N   N10       1.0  0.76585  0.35121  0.15712  1.0000 -0.107773901
N   N11       1.0  0.76585  0.64879  0.65712  1.0000 -0.107773901
N   N12       1.0  0.23415  0.64879  0.84288  1.0000 -0.107773901
N   N13       1.0  0.73415  0.85121  0.34288  1.0000 -0.107773901
N   N14       1.0  0.26585  0.85121  0.15712  1.0000 -0.107773901
N   N15       1.0  0.26585  0.14879  0.65712  1.0000 -0.107773901
N   N16       1.0  0.73415  0.14879  0.84288  1.0000 -0.107773901
N   N17       1.0  0.16597  0.44526  0.21190  1.0000 -0.079005371
N   N18       1.0  0.83403  0.44526  0.28810  1.0000 -0.079005371
N   N19       1.0  0.83403  0.55474  0.78810  1.0000 -0.079005371
N   N20       1.0  0.16597  0.55474  0.71190  1.0000 -0.079005371
N   N21       1.0  0.66597  0.94526  0.21190  1.0000 -0.079005371
N   N22       1.0  0.33403  0.94526  0.28810  1.0000 -0.079005371
N   N23       1.0  0.33403  0.05474  0.78810  1.0000 -0.079005371
N   N24       1.0  0.66597  0.05474  0.71190  1.0000 -0.079005371
F   F1        1.0  0.26472  0.20383  0.22569  1.0000 -0.4763811576
F   F2        1.0  0.73528  0.20383  0.27431  1.0000 -0.4763811576
F   F3        1.0  0.73528  0.79617  0.77431  1.0000 -0.4763811576
F   F4        1.0  0.26472  0.79617  0.72569  1.0000 -0.4763811576
F   F5        1.0  0.76472  0.70383  0.22569  1.0000 -0.4763811576
F   F6        1.0  0.23528  0.70383  0.27431  1.0000 -0.4763811576
F   F7        1.0  0.23528  0.29617  0.77431  1.0000 -0.4763811576
F   F8        1.0  0.76472  0.29617  0.72569  1.0000 -0.4763811576
F   F9        1.0  0.23991  0.13205  0.10364  1.0000 -0.4763811576
F   F10       1.0  0.76009  0.13205  0.39636  1.0000 -0.4763811576
F   F11       1.0  0.76009  0.86795  0.89636  1.0000 -0.4763811576
F   F12       1.0  0.23991  0.86795  0.60364  1.0000 -0.4763811576
F   F13       1.0  0.73991  0.63205  0.10364  1.0000 -0.4763811576
F   F14       1.0  0.26009  0.63205  0.39636  1.0000 -0.4763811576
F   F15       1.0  0.26009  0.36795  0.89636  1.0000 -0.4763811576
F   F16       1.0  0.73991  0.36795  0.60364  1.0000 -0.4763811576
F   F17       1.0  0.35571  0.11681  0.23881  1.0000 -0.4603959667
F   F18       1.0  0.64429  0.11681  0.26119  1.0000 -0.4603959667
F   F19       1.0  0.64429  0.88319  0.76119  1.0000 -0.4603959667
F   F20       1.0  0.35571  0.88319  0.73881  1.0000 -0.4603959667
F   F21       1.0  0.85571  0.61681  0.23881  1.0000 -0.4603959667
F   F22       1.0  0.14429  0.61681  0.26119  1.0000 -0.4603959667
F   F23       1.0  0.14429  0.38319  0.76119  1.0000 -0.4603959667
F   F24       1.0  0.85571  0.38319  0.73881  1.0000 -0.4603959667
F   F25       1.0  0.18007  0.11922  0.26758  1.0000 -0.4603959667
F   F26       1.0  0.81993  0.11922  0.23242  1.0000 -0.4603959667
F   F27       1.0  0.81993  0.88078  0.73242  1.0000 -0.4603959667
F   F28       1.0  0.18007  0.88078  0.76758  1.0000 -0.4603959667
F   F29       1.0  0.68007  0.61922  0.26758  1.0000 -0.4603959667
F   F30       1.0  0.31993  0.61922  0.23242  1.0000 -0.4603959667
F   F31       1.0  0.31993  0.38078  0.73242  1.0000 -0.4603959667
F   F32       1.0  0.68007  0.38078  0.76758  1.0000 -0.4603959667
