# DDEC6 charges by PACMAN v1.1 (https://github.com/mtap-research/PACMAN-charge/)
data_2016[SbAg][lvt]3[ION]1
_chemical_formula_sum              "Ag4 Sb4 H144 C120 S16 N16 F24"
_cell_length_a       18.9579
_cell_length_b       18.9579
_cell_length_c       18.9579
_cell_angle_alpha    97.6675
_cell_angle_beta     97.6675
_cell_angle_gamma    137.151

_symmetry_space_group_name_H-M    "P 1"
_symmetry_Int_Tables_number       1

loop_
  _symmetry_equiv_pos_as_xyz
  'x, y, z'

loop_
  _atom_site_type_symbol
  _atom_site_label
  _atom_site_symmetry_multiplicity
  _atom_site_fract_x
  _atom_site_fract_y
  _atom_site_fract_z
  _atom_site_occupancy
  _atom_site_charge
Ag  Ag1       1.0  0.11377  0.87500  0.73877  1.0000 0.2322794433
Ag  Ag2       1.0  0.13623  0.37500  0.26123  1.0000 0.2322794433
Ag  Ag3       1.0  0.62500  0.88623  0.76123  1.0000 0.2322794433
Ag  Ag4       1.0  0.12500  0.86377  0.23877  1.0000 0.2322794433
Sb  Sb1       1.0  0.62500  0.49087  0.36587  1.0000 1.9137933264
Sb  Sb2       1.0  0.12500  0.25913  0.63413  1.0000 1.9137933264
Sb  Sb3       1.0  0.50913  0.87500  0.13413  1.0000 1.9137933264
Sb  Sb4       1.0  0.74087  0.37500  0.86587  1.0000 1.9137933264
H   H1        1.0  0.81740  0.66130  0.82010  1.0000 0.1282750977
H   H2        1.0  0.84120  0.99730  0.17990  1.0000 0.1282750977
H   H3        1.0  0.00270  0.18260  0.84390  1.0000 0.1282750977
H   H4        1.0  0.33870  0.15880  0.15610  1.0000 0.1282750977
H   H5        1.0  0.43260  0.75270  0.34390  1.0000 0.1282750977
H   H6        1.0  0.40880  0.08870  0.65610  1.0000 0.1282750977
H   H7        1.0  0.24730  0.59120  0.67990  1.0000 0.1282750977
H   H8        1.0  0.91130  0.56740  0.32010  1.0000 0.1282750977
H   H9        1.0  0.67260  0.74240  0.77960  1.0000 0.1282750977
H   H10       1.0  0.96280  0.89300  0.22040  1.0000 0.1282750977
H   H11       1.0  0.10700  0.32740  0.06980  1.0000 0.1282750977
H   H12       1.0  0.25760  0.03720  0.93020  1.0000 0.1282750977
H   H13       1.0  0.57740  0.85700  0.56980  1.0000 0.1282750977
H   H14       1.0  0.28720  0.00760  0.43020  1.0000 0.1282750977
H   H15       1.0  0.14300  0.71280  0.72040  1.0000 0.1282750977
H   H16       1.0  0.99240  0.42260  0.27960  1.0000 0.1282750977
H   H17       1.0  0.13430  0.16480  0.80550  1.0000 0.1400643076
H   H18       1.0  0.35930  0.32880  0.19450  1.0000 0.1400643076
H   H19       1.0  0.67120  0.86570  0.03050  1.0000 0.1400643076
H   H20       1.0  0.83520  0.64070  0.96950  1.0000 0.1400643076
H   H21       1.0  0.11570  0.42120  0.53050  1.0000 0.1400643076
H   H22       1.0  0.89070  0.58520  0.46950  1.0000 0.1400643076
H   H23       1.0  0.57880  0.10930  0.69450  1.0000 0.1400643076
H   H24       1.0  0.41480  0.88430  0.30550  1.0000 0.1400643076
H   H25       1.0  0.00570  0.04880  0.76410  1.0000 0.1282750977
H   H26       1.0  0.28470  0.24160  0.23590  1.0000 0.1282750977
H   H27       1.0  0.75840  0.99430  0.04310  1.0000 0.1400643076
H   H28       1.0  0.95120  0.71530  0.95690  1.0000 0.1282750977
H   H29       1.0  0.24430  0.50840  0.54310  1.0000 0.1282750977
H   H30       1.0  0.96530  0.70120  0.45690  1.0000 0.1282750977
H   H31       1.0  0.49160  0.03470  0.73590  1.0000 0.1282750977
H   H32       1.0  0.29880  0.75570  0.26410  1.0000 0.1400643076
H   H33       1.0  0.09420  0.05680  0.69160  1.0000 0.1400643076
H   H34       1.0  0.36520  0.40260  0.30840  1.0000 0.1400643076
H   H35       1.0  0.59740  0.90580  0.96260  1.0000 0.1400643076
H   H36       1.0  0.94320  0.63480  0.03740  1.0000 0.1400643076
H   H37       1.0  0.15580  0.34740  0.46260  1.0000 0.1400643076
H   H38       1.0  0.88480  0.69320  0.53740  1.0000 0.1400643076
H   H39       1.0  0.65260  0.11520  0.80840  1.0000 0.1400643076
H   H40       1.0  0.30680  0.84420  0.19160  1.0000 0.1400643076
H   H41       1.0  0.05260  0.96740  0.73000  1.0000 0.1068888615
H   H42       1.0  0.23740  0.32260  0.27000  1.0000 0.1068888615
H   H43       1.0  0.67740  0.94740  0.91480  1.0000 0.1068888615
H   H44       1.0  0.03260  0.76260  0.08520  1.0000 0.1068888615
H   H45       1.0  0.19740  0.42740  0.41480  1.0000 0.1068888615
H   H46       1.0  0.01260  0.78260  0.58520  1.0000 0.1068888615
H   H47       1.0  0.57260  0.98740  0.77000  1.0000 0.1068888615
H   H48       1.0  0.21740  0.80260  0.23000  1.0000 0.1068888615
H   H49       1.0  0.38490  0.11240  0.79890  1.0000 0.1282750977
H   H50       1.0  0.31350  0.58600  0.20110  1.0000 0.1282750977
H   H51       1.0  0.41400  0.61510  0.72750  1.0000 0.1282750977
H   H52       1.0  0.88760  0.68650  0.27250  1.0000 0.1282750977
H   H53       1.0  0.86510  0.16400  0.22750  1.0000 0.1282750977
H   H54       1.0  0.93650  0.63760  0.77250  1.0000 0.1282750977
H   H55       1.0  0.83600  0.06350  0.70110  1.0000 0.1282750977
H   H56       1.0  0.36240  0.13490  0.29890  1.0000 0.1282750977
H   H57       1.0  0.47010  0.29910  0.81980  1.0000 0.1591615054
H   H58       1.0  0.47930  0.65030  0.18020  1.0000 0.1591615054
H   H59       1.0  0.34970  0.52990  0.82900  1.0000 0.1591615054
H   H60       1.0  0.70090  0.52070  0.17100  1.0000 0.1591615054
H   H61       1.0  0.77990  0.09970  0.32900  1.0000 0.1591615054
H   H62       1.0  0.77070  0.45090  0.67100  1.0000 0.1591615054
H   H63       1.0  0.90030  0.22930  0.68020  1.0000 0.1591615054
H   H64       1.0  0.54910  0.22010  0.31980  1.0000 0.1591615054
H   H65       1.0  0.31060  0.26180  0.78640  1.0000 0.1484668768
H   H66       1.0  0.47540  0.52420  0.21360  1.0000 0.1484668768
H   H67       1.0  0.47580  0.68940  0.95120  1.0000 0.1484668768
H   H68       1.0  0.73820  0.52460  0.04880  1.0000 0.1484668768
H   H69       1.0  0.93940  0.22580  0.45120  1.0000 0.1484668768
H   H70       1.0  0.77460  0.48820  0.54880  1.0000 0.1484668768
H   H71       1.0  0.77420  0.22540  0.71360  1.0000 0.1484668768
H   H72       1.0  0.51180  0.06060  0.28640  1.0000 0.1484668768
H   H73       1.0  0.54690  0.49200  0.85670  1.0000 0.1282750977
H   H74       1.0  0.63530  0.69020  0.14330  1.0000 0.1282750977
H   H75       1.0  0.30980  0.45310  0.94510  1.0000 0.1282750977
H   H76       1.0  0.50800  0.36470  0.05490  1.0000 0.1282750977
H   H77       1.0  0.70310  0.05980  0.44510  1.0000 0.1282750977
H   H78       1.0  0.61470  0.25800  0.55490  1.0000 0.1282750977
H   H79       1.0  0.94020  0.38530  0.64330  1.0000 0.1282750977
H   H80       1.0  0.74200  0.29690  0.35670  1.0000 0.1282750977
H   H81       1.0  0.62570  0.62060  0.88330  1.0000 0.1282750977
H   H82       1.0  0.73730  0.74240  0.11670  1.0000 0.1282750977
H   H83       1.0  0.25760  0.37430  0.99490  1.0000 0.1282750977
H   H84       1.0  0.37940  0.26270  0.00510  1.0000 0.1282750977
H   H85       1.0  0.62430  0.00760  0.49490  1.0000 0.1282750977
H   H86       1.0  0.51270  0.12940  0.50510  1.0000 0.1282750977
H   H87       1.0  0.99240  0.48730  0.61670  1.0000 0.1282750977
H   H88       1.0  0.87060  0.37570  0.38330  1.0000 0.1282750977
H   H89       1.0  0.50340  0.53200  0.82340  1.0000 0.1282750977
H   H90       1.0  0.70860  0.68000  0.17660  1.0000 0.1282750977
H   H91       1.0  0.32000  0.49660  0.02860  1.0000 0.1282750977
H   H92       1.0  0.46800  0.29140  0.97140  1.0000 0.1282750977
H   H93       1.0  0.74660  0.07000  0.52860  1.0000 0.1282750977
H   H94       1.0  0.54140  0.21800  0.47140  1.0000 0.1282750977
H   H95       1.0  0.93000  0.45860  0.67660  1.0000 0.1282750977
H   H96       1.0  0.78200  0.25340  0.32340  1.0000 0.1282750977
H   H97       1.0  0.48530  0.45230  0.66960  1.0000 0.1400643076
H   H98       1.0  0.78270  0.81570  0.33040  1.0000 0.1400643076
H   H99       1.0  0.18430  0.51470  0.96700  1.0000 0.1400643076
H   H100      1.0  0.54770  0.21730  0.03300  1.0000 0.1400643076
H   H101      1.0  0.76470  0.93430  0.46700  1.0000 0.1400643076
H   H102      1.0  0.46730  0.29770  0.53300  1.0000 0.1400643076
H   H103      1.0  0.06570  0.53270  0.83040  1.0000 0.1400643076
H   H104      1.0  0.70230  0.23530  0.16960  1.0000 0.1400643076
H   H105      1.0  0.48730  0.53250  0.71300  1.0000 0.1282750977
H   H106      1.0  0.81950  0.77430  0.28700  1.0000 0.1282750977
H   H107      1.0  0.22570  0.51270  0.04520  1.0000 0.1282750977
H   H108      1.0  0.46750  0.18050  0.95480  1.0000 0.1282750977
H   H109      1.0  0.76270  0.97570  0.54520  1.0000 0.1282750977
H   H110      1.0  0.43050  0.21750  0.45480  1.0000 0.1282750977
H   H111      1.0  0.02430  0.56950  0.78700  1.0000 0.1282750977
H   H112      1.0  0.78250  0.23730  0.21300  1.0000 0.1282750977
H   H113      1.0  0.57740  0.57840  0.67380  1.0000 0.1282750977
H   H114      1.0  0.90460  0.90360  0.32620  1.0000 0.1282750977
H   H115      1.0  0.09640  0.42260  0.00100  1.0000 0.1282750977
H   H116      1.0  0.42160  0.09540  0.99900  1.0000 0.1282750977
H   H117      1.0  0.67260  0.84640  0.50100  1.0000 0.1282750977
H   H118      1.0  0.34540  0.17160  0.49900  1.0000 0.1282750977
H   H119      1.0  0.15360  0.65460  0.82620  1.0000 0.1282750977
H   H120      1.0  0.82840  0.32740  0.17380  1.0000 0.1282750977
H   H121      1.0  0.65270  0.49650  0.72740  1.0000 0.1282750977
H   H122      1.0  0.76910  0.92530  0.27260  1.0000 0.1282750977
H   H123      1.0  0.07470  0.34730  0.84380  1.0000 0.1282750977
H   H124      1.0  0.50350  0.23090  0.15620  1.0000 0.1282750977
H   H125      1.0  0.59730  0.82470  0.34380  1.0000 0.1282750977
H   H126      1.0  0.48090  0.25350  0.65620  1.0000 0.1282750977
H   H127      1.0  0.17530  0.51910  0.77260  1.0000 0.1282750977
H   H128      1.0  0.74650  0.40270  0.22740  1.0000 0.1282750977
H   H129      1.0  0.64930  0.49010  0.81040  1.0000 0.1282750977
H   H130      1.0  0.67970  0.83890  0.18960  1.0000 0.1282750977
H   H131      1.0  0.16110  0.35070  0.84080  1.0000 0.1282750977
H   H132      1.0  0.50990  0.32030  0.15920  1.0000 0.1282750977
H   H133      1.0  0.60070  0.91110  0.34080  1.0000 0.1282750977
H   H134      1.0  0.57030  0.25990  0.65920  1.0000 0.1282750977
H   H135      1.0  0.08890  0.42970  0.68960  1.0000 0.1282750977
H   H136      1.0  0.74010  0.39930  0.31040  1.0000 0.1282750977
H   H137      1.0  0.53660  0.40510  0.73990  1.0000 0.1282750977
H   H138      1.0  0.66520  0.79670  0.26010  1.0000 0.1282750977
H   H139      1.0  0.20330  0.46340  0.86850  1.0000 0.1282750977
H   H140      1.0  0.59490  0.33480  0.13150  1.0000 0.1282750977
H   H141      1.0  0.71340  0.95330  0.36850  1.0000 0.1282750977
H   H142      1.0  0.58480  0.34490  0.63150  1.0000 0.1282750977
H   H143      1.0  0.04670  0.41520  0.76010  1.0000 0.1282750977
H   H144      1.0  0.65510  0.28660  0.23990  1.0000 0.1282750977
C   C1        1.0  0.84090  0.87480  0.82130  1.0000 0.0315766866
C   C2        1.0  0.05350  0.01960  0.17870  1.0000 0.0315766866
C   C3        1.0  0.98040  0.15910  0.03390  1.0000 0.0315766866
C   C4        1.0  0.12520  0.94650  0.96610  1.0000 0.0315766866
C   C5        1.0  0.40910  0.73040  0.53390  1.0000 0.0315766866
C   C6        1.0  0.19650  0.87520  0.46610  1.0000 0.0315766866
C   C7        1.0  0.26960  0.80350  0.67870  1.0000 0.0315766866
C   C8        1.0  0.12480  0.59090  0.32130  1.0000 0.0315766866
C   C9        1.0  0.93560  0.90620  0.84580  1.0000 -0.0296798226
C   C10       1.0  0.06040  0.08980  0.15420  1.0000 -0.0296798226
C   C11       1.0  0.91020  0.06440  0.97060  1.0000 -0.0296798226
C   C12       1.0  0.09380  0.93960  0.02940  1.0000 -0.0296798226
C   C13       1.0  0.31440  0.66020  0.47060  1.0000 -0.0296798226
C   C14       1.0  0.18960  0.84380  0.52940  1.0000 -0.0296798226
C   C15       1.0  0.33980  0.81040  0.65420  1.0000 -0.0296798226
C   C16       1.0  0.15620  0.68560  0.34580  1.0000 -0.0296798226
C   C17       1.0  0.92680  0.82650  0.84530  1.0000 0.0214840682
C   C18       1.0  0.98120  0.08150  0.15470  1.0000 0.0214840682
C   C19       1.0  0.91850  0.07320  0.89970  1.0000 0.0214840682
C   C20       1.0  0.17350  0.01880  0.10030  1.0000 0.0214840682
C   C21       1.0  0.32320  0.66850  0.39970  1.0000 0.0214840682
C   C22       1.0  0.26880  0.92350  0.60030  1.0000 0.0214840682
C   C23       1.0  0.33150  0.73120  0.65470  1.0000 0.0214840682
C   C24       1.0  0.07650  0.67680  0.34530  1.0000 0.0214840682
C   C25       1.0  0.82340  0.71560  0.82040  1.0000 -0.1816916158
C   C26       1.0  0.89520  0.00300  0.17960  1.0000 -0.1816916158
C   C27       1.0  0.99700  0.17660  0.89220  1.0000 -0.1816916158
C   C28       1.0  0.28440  0.10480  0.10780  1.0000 -0.1816916158
C   C29       1.0  0.42660  0.74700  0.39220  1.0000 -0.1816916158
C   C30       1.0  0.35480  0.03440  0.60780  1.0000 -0.1816916158
C   C31       1.0  0.25300  0.64520  0.67960  1.0000 -0.1816916158
C   C32       1.0  0.96560  0.57340  0.32040  1.0000 -0.1816916158
C   C33       1.0  0.72860  0.68430  0.79590  1.0000 0.0958438675
C   C34       1.0  0.88840  0.93270  0.20410  1.0000 0.0958438675
C   C35       1.0  0.06730  0.27140  0.95570  1.0000 0.0958438675
C   C36       1.0  0.31570  0.11160  0.04430  1.0000 0.0958438675
C   C37       1.0  0.52140  0.81730  0.45570  1.0000 0.0958438675
C   C38       1.0  0.36160  0.06570  0.54430  1.0000 0.0958438675
C   C39       1.0  0.18270  0.63840  0.70410  1.0000 0.0958438675
C   C40       1.0  0.93430  0.47860  0.29590  1.0000 0.0958438675
C   C41       1.0  0.73740  0.76390  0.79630  1.0000 -0.1999232778
C   C42       1.0  0.96760  0.94110  0.20370  1.0000 -0.1999232778
C   C43       1.0  0.05890  0.26260  0.02650  1.0000 -0.1999232778
C   C44       1.0  0.23610  0.03240  0.97350  1.0000 -0.1999232778
C   C45       1.0  0.51260  0.80890  0.52650  1.0000 -0.1999232778
C   C46       1.0  0.28240  0.98610  0.47350  1.0000 -0.1999232778
C   C47       1.0  0.19110  0.71760  0.70370  1.0000 -0.1999232778
C   C48       1.0  0.01390  0.48740  0.29630  1.0000 -0.1999232778
C   C49       1.0  0.07820  0.08380  0.79120  1.0000 -0.2346146544
C   C50       1.0  0.29260  0.28700  0.20880  1.0000 -0.2346146544
C   C51       1.0  0.71300  0.92180  0.00560  1.0000 -0.2350622107
C   C52       1.0  0.91620  0.70740  0.99440  1.0000 -0.2350622107
C   C53       1.0  0.17180  0.46300  0.50560  1.0000 -0.2350622107
C   C54       1.0  0.95740  0.66620  0.49440  1.0000 -0.2350622107
C   C55       1.0  0.53700  0.04260  0.70880  1.0000 -0.2346146544
C   C56       1.0  0.33380  0.82820  0.29120  1.0000 -0.2350622107
C   C57       1.0  0.10550  0.04740  0.74030  1.0000 -0.1417296444
C   C58       1.0  0.30710  0.36520  0.25970  1.0000 -0.1417296444
C   C59       1.0  0.63480  0.89450  0.94190  1.0000 -0.1417296444
C   C60       1.0  0.95260  0.69290  0.05810  1.0000 -0.1417296444
C   C61       1.0  0.14450  0.38480  0.44190  1.0000 -0.1417296444
C   C62       1.0  0.94290  0.70260  0.55810  1.0000 -0.1417296444
C   C63       1.0  0.61520  0.05710  0.75970  1.0000 -0.1417296444
C   C64       1.0  0.29740  0.85550  0.24030  1.0000 -0.1417296444
C   C65       1.0  0.34590  0.12620  0.79110  1.0000 0.0099871798
C   C66       1.0  0.33510  0.55480  0.20890  1.0000 0.0099871798
C   C67       1.0  0.44520  0.65410  0.78030  1.0000 0.0099871798
C   C68       1.0  0.87380  0.66490  0.21970  1.0000 0.0099871798
C   C69       1.0  0.90410  0.19520  0.28030  1.0000 0.0099871798
C   C70       1.0  0.91490  0.62380  0.71970  1.0000 0.0099871798
C   C71       1.0  0.80480  0.08510  0.70890  1.0000 0.0099871798
C   C72       1.0  0.37620  0.09590  0.29110  1.0000 0.0099871798
C   C73       1.0  0.39370  0.22940  0.80310  1.0000 -0.1874403497
C   C74       1.0  0.42630  0.59060  0.19690  1.0000 -0.1874403497
C   C75       1.0  0.40940  0.60630  0.83570  1.0000 -0.1874403497
C   C76       1.0  0.77060  0.57370  0.16430  1.0000 -0.1874403497
C   C77       1.0  0.85630  0.15940  0.33570  1.0000 -0.1874403497
C   C78       1.0  0.82370  0.52060  0.66430  1.0000 -0.1874403497
C   C79       1.0  0.84060  0.17630  0.69690  1.0000 -0.1874403497
C   C80       1.0  0.47940  0.14370  0.30310  1.0000 -0.1874403497
C   C81       1.0  0.30610  0.20840  0.78550  1.0000 -0.0296798226
C   C82       1.0  0.42290  0.52060  0.21450  1.0000 -0.0296798226
C   C83       1.0  0.47940  0.69390  0.90230  1.0000 -0.0296798226
C   C84       1.0  0.79160  0.57710  0.09770  1.0000 -0.0296798226
C   C85       1.0  0.94390  0.22940  0.40230  1.0000 -0.0296798226
C   C86       1.0  0.82710  0.54160  0.59770  1.0000 -0.0296798226
C   C87       1.0  0.77060  0.17290  0.71450  1.0000 -0.0296798226
C   C88       1.0  0.45840  0.05610  0.28550  1.0000 -0.0296798226
C   C89       1.0  0.61120  0.56170  0.77650  1.0000 0.2755197893
C   C90       1.0  0.78520  0.83470  0.22350  1.0000 0.2755197893
C   C91       1.0  0.16530  0.38880  0.95050  1.0000 0.2755197893
C   C92       1.0  0.43830  0.21480  0.04950  1.0000 0.2755197893
C   C93       1.0  0.63880  0.91530  0.45050  1.0000 0.2755197893
C   C94       1.0  0.46480  0.18830  0.54950  1.0000 0.2755197893
C   C95       1.0  0.08470  0.53520  0.72350  1.0000 0.2755197893
C   C96       1.0  0.81170  0.36120  0.27650  1.0000 0.2755197893
C   C97       1.0  0.56800  0.55060  0.84060  1.0000 -0.470081686
C   C98       1.0  0.71000  0.72740  0.15940  1.0000 -0.470081686
C   C99       1.0  0.27260  0.43200  0.98260  1.0000 -0.470081686
C   C100      1.0  0.44940  0.29000  0.01740  1.0000 -0.470081686
C   C101      1.0  0.68200  0.02260  0.48260  1.0000 -0.470081686
C   C102      1.0  0.54000  0.19940  0.51740  1.0000 -0.470081686
C   C103      1.0  0.97740  0.46000  0.65940  1.0000 -0.470081686
C   C104      1.0  0.80060  0.31800  0.34060  1.0000 -0.470081686
C   C105      1.0  0.53290  0.52800  0.70110  1.0000 -0.4580885162
C   C106      1.0  0.82690  0.83180  0.29890  1.0000 -0.4580885162
C   C107      1.0  0.16820  0.46710  0.99510  1.0000 -0.4580885162
C   C108      1.0  0.47200  0.17310  0.00490  1.0000 -0.4580885162
C   C109      1.0  0.71710  0.91820  0.49510  1.0000 -0.4580885162
C   C110      1.0  0.42310  0.22200  0.50490  1.0000 -0.4580885162
C   C111      1.0  0.08180  0.57690  0.79890  1.0000 -0.4580885162
C   C112      1.0  0.77800  0.28290  0.20110  1.0000 -0.4580885162
C   C113      1.0  0.61260  0.48110  0.76230  1.0000 -0.4793077995
C   C114      1.0  0.71880  0.85030  0.23770  1.0000 -0.4793077995
C   C115      1.0  0.14970  0.38740  0.86850  1.0000 -0.4793077995
C   C116      1.0  0.51890  0.28120  0.13150  1.0000 -0.4793077995
C   C117      1.0  0.63740  0.89970  0.36850  1.0000 -0.4793077995
C   C118      1.0  0.53120  0.26890  0.63150  1.0000 -0.4793077995
C   C119      1.0  0.10030  0.46880  0.73770  1.0000 -0.4793077995
C   C120      1.0  0.73110  0.36260  0.26230  1.0000 -0.4793077995
S   S1        1.0  0.83540  0.96235  0.81235  1.0000 0.0024664977
S   S2        1.0  0.15000  0.02305  0.18765  1.0000 0.0024664977
S   S3        1.0  0.97695  0.16460  0.12695  1.0000 0.0024664977
S   S4        1.0  0.03765  0.85000  0.87305  1.0000 0.0024664977
S   S5        1.0  0.41460  0.72695  0.62695  1.0000 0.0024664977
S   S6        1.0  0.10000  0.78765  0.37305  1.0000 0.0024664977
S   S7        1.0  0.27305  0.90000  0.68765  1.0000 0.0024664977
S   S8        1.0  0.21235  0.58540  0.31235  1.0000 0.0024664977
S   S9        1.0  0.07334  0.04911  0.87645  1.0000 0.0099871798
S   S10       1.0  0.17266  0.19689  0.12355  1.0000 0.0099871798
S   S11       1.0  0.80311  0.92666  0.97577  1.0000 0.0099871798
S   S12       1.0  0.95089  0.82734  0.02423  1.0000 0.0099871798
S   S13       1.0  0.17666  0.55311  0.47577  1.0000 0.0099871798
S   S14       1.0  0.07734  0.70089  0.52423  1.0000 0.0099871798
S   S15       1.0  0.44689  0.92266  0.62355  1.0000 0.0099871798
S   S16       1.0  0.29911  0.82334  0.37645  1.0000 0.0099871798
N   N1        1.0  0.21610  0.10340  0.76730  1.0000 0.1813091814
N   N2        1.0  0.33610  0.44880  0.23270  1.0000 0.1813091814
N   N3        1.0  0.55120  0.78390  0.88730  1.0000 0.1813091814
N   N4        1.0  0.89660  0.66390  0.11270  1.0000 0.1813091814
N   N5        1.0  0.03390  0.30120  0.38730  1.0000 0.1813091814
N   N6        1.0  0.91390  0.64660  0.61270  1.0000 0.1813091814
N   N7        1.0  0.69880  0.08610  0.73270  1.0000 0.1813091814
N   N8        1.0  0.35340  0.96610  0.26730  1.0000 0.1813091814
N   N9        1.0  0.23970  0.05210  0.76780  1.0000 -0.1874403497
N   N10       1.0  0.28430  0.47190  0.23220  1.0000 -0.1874403497
N   N11       1.0  0.52810  0.76030  0.81240  1.0000 -0.1874403497
N   N12       1.0  0.94790  0.71570  0.18760  1.0000 -0.1874403497
N   N13       1.0  0.01030  0.27810  0.31240  1.0000 -0.1874403497
N   N14       1.0  0.96570  0.69790  0.68760  1.0000 -0.1874403497
N   N15       1.0  0.72190  0.03430  0.73220  1.0000 -0.1874403497
N   N16       1.0  0.30210  0.98970  0.26780  1.0000 -0.1874403497
F   F1        1.0  0.67730  0.46440  0.43530  1.0000 -0.4886672785
F   F2        1.0  0.57270  0.50800  0.28710  1.0000 -0.4886672785
F   F3        1.0  0.73660  0.54000  0.32660  1.0000 -0.4886672785
F   F4        1.0  0.51340  0.34000  0.30340  1.0000 -0.4886672785
F   F5        1.0  0.74600  0.64100  0.43700  1.0000 -0.5008776587
F   F6        1.0  0.50400  0.44100  0.39500  1.0000 -0.5008776587
F   F7        1.0  0.02910  0.24200  0.56470  1.0000 -0.4886672785
F   F8        1.0  0.22090  0.28560  0.71290  1.0000 -0.4886672785
F   F9        1.0  0.21340  0.41000  0.67340  1.0000 -0.4886672785
F   F10       1.0  0.03660  0.21000  0.69660  1.0000 -0.4886672785
F   F11       1.0  0.20400  0.30900  0.56300  1.0000 -0.5008776587
F   F12       1.0  0.04600  0.10900  0.60500  1.0000 -0.5008776587
F   F13       1.0  0.53560  0.97090  0.21290  1.0000 -0.4886672785
F   F14       1.0  0.49200  0.77910  0.06470  1.0000 -0.4886672785
F   F15       1.0  0.46000  0.78660  0.19660  1.0000 -0.4886672785
F   F16       1.0  0.66000  0.96340  0.17340  1.0000 -0.4886672785
F   F17       1.0  0.35900  0.79600  0.10500  1.0000 -0.5008776587
F   F18       1.0  0.55900  0.95400  0.06300  1.0000 -0.5008776587
F   F19       1.0  0.75800  0.32270  0.78710  1.0000 -0.4886672785
F   F20       1.0  0.71440  0.42730  0.93530  1.0000 -0.4886672785
F   F21       1.0  0.59000  0.26340  0.80340  1.0000 -0.4886672785
F   F22       1.0  0.79000  0.48660  0.82660  1.0000 -0.4886672785
F   F23       1.0  0.69100  0.25400  0.89500  1.0000 -0.5008776587
F   F24       1.0  0.89100  0.49600  0.93700  1.0000 -0.5008776587
