# DDEC6 charges by PACMAN v1.1 (https://github.com/mtap-research/PACMAN-charge/)
data_2016[Zn][dia]3[ION]1
_chemical_formula_sum              "Zn8 H72 C72 N32 Cl8 O56"
_cell_length_a       18.1111
_cell_length_b       18.1111
_cell_length_c       11.2507
_cell_angle_alpha    90
_cell_angle_beta     90
_cell_angle_gamma    90

_symmetry_space_group_name_H-M    "P 1"
_symmetry_Int_Tables_number       1

loop_
  _symmetry_equiv_pos_as_xyz
  'x, y, z'

loop_
  _atom_site_type_symbol
  _atom_site_label
  _atom_site_symmetry_multiplicity
  _atom_site_fract_x
  _atom_site_fract_y
  _atom_site_fract_z
  _atom_site_occupancy
  _atom_site_charge
Zn  Zn1       1.0  0.17349  0.96145  0.91977  1.0000 0.7836253491
Zn  Zn2       1.0  0.46145  0.32651  0.41977  1.0000 0.7836253491
Zn  Zn3       1.0  0.82651  0.03855  0.91977  1.0000 0.7836253491
Zn  Zn4       1.0  0.53855  0.67349  0.41977  1.0000 0.7836253491
Zn  Zn5       1.0  0.32651  0.53855  0.58023  1.0000 0.7836253491
Zn  Zn6       1.0  0.03855  0.17349  0.08023  1.0000 0.7836253491
Zn  Zn7       1.0  0.67349  0.46145  0.58023  1.0000 0.7836253491
Zn  Zn8       1.0  0.96145  0.82651  0.08023  1.0000 0.7836253491
H   H1        1.0  0.07170  0.93710  0.20950  1.0000 0.1720427942
H   H2        1.0  0.43710  0.42830  0.70950  1.0000 0.1720427942
H   H3        1.0  0.92830  0.06290  0.20950  1.0000 0.1720427942
H   H4        1.0  0.56290  0.57170  0.70950  1.0000 0.1720427942
H   H5        1.0  0.42830  0.56290  0.29050  1.0000 0.1720427942
H   H6        1.0  0.06290  0.07170  0.79050  1.0000 0.1720427942
H   H7        1.0  0.57170  0.43710  0.29050  1.0000 0.1720427942
H   H8        1.0  0.93710  0.92830  0.79050  1.0000 0.1720427942
H   H9        1.0  0.11930  0.98760  0.29210  1.0000 0.1720427942
H   H10       1.0  0.48760  0.38070  0.79210  1.0000 0.1720427942
H   H11       1.0  0.88070  0.01240  0.29210  1.0000 0.1720427942
H   H12       1.0  0.51240  0.61930  0.79210  1.0000 0.1720427942
H   H13       1.0  0.38070  0.51240  0.20790  1.0000 0.1720427942
H   H14       1.0  0.01240  0.11930  0.70790  1.0000 0.1720427942
H   H15       1.0  0.61930  0.48760  0.20790  1.0000 0.1720427942
H   H16       1.0  0.98760  0.88070  0.70790  1.0000 0.1720427942
H   H17       1.0  0.29880  0.80790  0.41650  1.0000 0.1415733543
H   H18       1.0  0.30790  0.20120  0.91650  1.0000 0.1415733543
H   H19       1.0  0.70120  0.19210  0.41650  1.0000 0.1415733543
H   H20       1.0  0.69210  0.79880  0.91650  1.0000 0.1415733543
H   H21       1.0  0.20120  0.69210  0.08350  1.0000 0.1415733543
H   H22       1.0  0.19210  0.29880  0.58350  1.0000 0.1415733543
H   H23       1.0  0.79880  0.30790  0.08350  1.0000 0.1415733543
H   H24       1.0  0.80790  0.70120  0.58350  1.0000 0.1415733543
H   H25       1.0  0.39640  0.74130  0.49180  1.0000 0.1222144883
H   H26       1.0  0.24130  0.10360  0.99180  1.0000 0.1222144883
H   H27       1.0  0.60360  0.25870  0.49180  1.0000 0.1222144883
H   H28       1.0  0.75870  0.89640  0.99180  1.0000 0.1222144883
H   H29       1.0  0.10360  0.75870  0.00820  1.0000 0.1222144883
H   H30       1.0  0.25870  0.39640  0.50820  1.0000 0.1222144883
H   H31       1.0  0.89640  0.24130  0.00820  1.0000 0.1222144883
H   H32       1.0  0.74130  0.60360  0.50820  1.0000 0.1222144883
H   H33       1.0  0.48820  0.73130  0.18090  1.0000 0.109326298
H   H34       1.0  0.23130  0.01180  0.68090  1.0000 0.109326298
H   H35       1.0  0.51180  0.26870  0.18090  1.0000 0.109326298
H   H36       1.0  0.76870  0.98820  0.68090  1.0000 0.109326298
H   H37       1.0  0.01180  0.76870  0.31910  1.0000 0.109326298
H   H38       1.0  0.26870  0.48820  0.81910  1.0000 0.109326298
H   H39       1.0  0.98820  0.23130  0.31910  1.0000 0.109326298
H   H40       1.0  0.73130  0.51180  0.81910  1.0000 0.109326298
H   H41       1.0  0.39520  0.79890  0.09700  1.0000 0.148350462
H   H42       1.0  0.29890  0.10480  0.59700  1.0000 0.148350462
H   H43       1.0  0.60480  0.20110  0.09700  1.0000 0.148350462
H   H44       1.0  0.70110  0.89520  0.59700  1.0000 0.148350462
H   H45       1.0  0.10480  0.70110  0.40300  1.0000 0.148350462
H   H46       1.0  0.20110  0.39520  0.90300  1.0000 0.148350462
H   H47       1.0  0.89520  0.29890  0.40300  1.0000 0.148350462
H   H48       1.0  0.79890  0.60480  0.90300  1.0000 0.148350462
H   H49       1.0  0.21500  0.88720  0.33200  1.0000 0.3226375129
H   H50       1.0  0.38720  0.28500  0.83200  1.0000 0.3226375129
H   H51       1.0  0.78500  0.11280  0.33200  1.0000 0.3226375129
H   H52       1.0  0.61280  0.71500  0.83200  1.0000 0.3226375129
H   H53       1.0  0.28500  0.61280  0.16800  1.0000 0.3226375129
H   H54       1.0  0.11280  0.21500  0.66800  1.0000 0.3226375129
H   H55       1.0  0.71500  0.38720  0.16800  1.0000 0.3226375129
H   H56       1.0  0.88720  0.78500  0.66800  1.0000 0.3226375129
H   H57       1.0  0.20960  0.87490  0.75330  1.0000 0.3526902978
H   H58       1.0  0.37490  0.29040  0.25330  1.0000 0.3526902978
H   H59       1.0  0.79040  0.12510  0.75330  1.0000 0.3526902978
H   H60       1.0  0.62510  0.70960  0.25330  1.0000 0.3526902978
H   H61       1.0  0.29040  0.62510  0.74670  1.0000 0.3526902978
H   H62       1.0  0.12510  0.20960  0.24670  1.0000 0.3526902978
H   H63       1.0  0.70960  0.37490  0.74670  1.0000 0.3526902978
H   H64       1.0  0.87490  0.79040  0.24670  1.0000 0.3526902978
H   H65       1.0  0.27450  0.89330  0.80970  1.0000 0.3526902978
H   H66       1.0  0.39330  0.22550  0.30970  1.0000 0.3526902978
H   H67       1.0  0.72550  0.10670  0.80970  1.0000 0.3526902978
H   H68       1.0  0.60670  0.77450  0.30970  1.0000 0.3526902978
H   H69       1.0  0.22550  0.60670  0.69030  1.0000 0.3526902978
H   H70       1.0  0.10670  0.27450  0.19030  1.0000 0.3526902978
H   H71       1.0  0.77450  0.39330  0.69030  1.0000 0.3526902978
H   H72       1.0  0.89330  0.72550  0.19030  1.0000 0.3526902978
C   C1        1.0  0.09670  0.03580  0.13340  1.0000 0.667774066
C   C2        1.0  0.53580  0.40330  0.63340  1.0000 0.667774066
C   C3        1.0  0.90330  0.96420  0.13340  1.0000 0.667774066
C   C4        1.0  0.46420  0.59670  0.63340  1.0000 0.667774066
C   C5        1.0  0.40330  0.46420  0.36660  1.0000 0.667774066
C   C6        1.0  0.96420  0.09670  0.86660  1.0000 0.667774066
C   C7        1.0  0.59670  0.53580  0.36660  1.0000 0.667774066
C   C8        1.0  0.03580  0.90330  0.86660  1.0000 0.667774066
C   C9        1.0  0.11380  0.97020  0.21100  1.0000 -0.4735483456
C   C10       1.0  0.47020  0.38620  0.71100  1.0000 -0.4735483456
C   C11       1.0  0.88620  0.02980  0.21100  1.0000 -0.4735483456
C   C12       1.0  0.52980  0.61380  0.71100  1.0000 -0.4735483456
C   C13       1.0  0.38620  0.52980  0.28900  1.0000 -0.4735483456
C   C14       1.0  0.02980  0.11380  0.78900  1.0000 -0.4735483456
C   C15       1.0  0.61380  0.47020  0.28900  1.0000 -0.4735483456
C   C16       1.0  0.97020  0.88620  0.78900  1.0000 -0.4735483456
C   C17       1.0  0.18120  0.92680  0.17950  1.0000 0.3729212132
C   C18       1.0  0.42680  0.31880  0.67950  1.0000 0.3729212132
C   C19       1.0  0.81880  0.07320  0.17950  1.0000 0.3729212132
C   C20       1.0  0.57320  0.68120  0.67950  1.0000 0.3729212132
C   C21       1.0  0.31880  0.57320  0.32050  1.0000 0.3729212132
C   C22       1.0  0.07320  0.18120  0.82050  1.0000 0.3729212132
C   C23       1.0  0.68120  0.42680  0.32050  1.0000 0.3729212132
C   C24       1.0  0.92680  0.81880  0.82050  1.0000 0.3729212132
C   C25       1.0  0.27760  0.85820  0.19580  1.0000 0.2559827414
C   C26       1.0  0.35820  0.22240  0.69580  1.0000 0.2559827414
C   C27       1.0  0.72240  0.14180  0.19580  1.0000 0.2559827414
C   C28       1.0  0.64180  0.77760  0.69580  1.0000 0.2559827414
C   C29       1.0  0.22240  0.64180  0.30420  1.0000 0.2559827414
C   C30       1.0  0.14180  0.27760  0.80420  1.0000 0.2559827414
C   C31       1.0  0.77760  0.35820  0.30420  1.0000 0.2559827414
C   C32       1.0  0.85820  0.72240  0.80420  1.0000 0.2559827414
C   C33       1.0  0.33680  0.81340  0.24780  1.0000 0.0518749614
C   C34       1.0  0.31340  0.16320  0.74780  1.0000 0.0518749614
C   C35       1.0  0.66320  0.18660  0.24780  1.0000 0.0518749614
C   C36       1.0  0.68660  0.83680  0.74780  1.0000 0.0518749614
C   C37       1.0  0.16320  0.68660  0.25220  1.0000 0.0518749614
C   C38       1.0  0.18660  0.33680  0.75220  1.0000 0.0518749614
C   C39       1.0  0.83680  0.31340  0.25220  1.0000 0.0518749614
C   C40       1.0  0.81340  0.66320  0.75220  1.0000 0.0518749614
C   C41       1.0  0.33740  0.79390  0.36690  1.0000 -0.1867546591
C   C42       1.0  0.29390  0.16260  0.86690  1.0000 -0.1867546591
C   C43       1.0  0.66260  0.20610  0.36690  1.0000 -0.1867546591
C   C44       1.0  0.70610  0.83740  0.86690  1.0000 -0.1867546591
C   C45       1.0  0.16260  0.70610  0.13310  1.0000 -0.1867546591
C   C46       1.0  0.20610  0.33740  0.63310  1.0000 -0.1867546591
C   C47       1.0  0.83740  0.29390  0.13310  1.0000 -0.1867546591
C   C48       1.0  0.79390  0.66260  0.63310  1.0000 -0.1867546591
C   C49       1.0  0.39610  0.75330  0.41140  1.0000 0.1026452776
C   C50       1.0  0.25330  0.10390  0.91140  1.0000 0.1026452776
C   C51       1.0  0.60390  0.24670  0.41140  1.0000 0.1026452776
C   C52       1.0  0.74670  0.89610  0.91140  1.0000 0.1026452776
C   C53       1.0  0.10390  0.74670  0.08860  1.0000 0.1026452776
C   C54       1.0  0.24670  0.39610  0.58860  1.0000 0.1026452776
C   C55       1.0  0.89610  0.25330  0.08860  1.0000 0.1026452776
C   C56       1.0  0.75330  0.60390  0.58860  1.0000 0.1026452776
C   C57       1.0  0.45000  0.74780  0.22940  1.0000 0.0608442832
C   C58       1.0  0.24780  0.05000  0.72940  1.0000 0.0608442832
C   C59       1.0  0.55000  0.25220  0.22940  1.0000 0.0608442832
C   C60       1.0  0.75220  0.95000  0.72940  1.0000 0.0608442832
C   C61       1.0  0.05000  0.75220  0.27060  1.0000 0.0608442832
C   C62       1.0  0.25220  0.45000  0.77060  1.0000 0.0608442832
C   C63       1.0  0.95000  0.24780  0.27060  1.0000 0.0608442832
C   C64       1.0  0.74780  0.55000  0.77060  1.0000 0.0608442832
C   C65       1.0  0.39420  0.78850  0.17790  1.0000 -0.1532041881
C   C66       1.0  0.28850  0.10580  0.67790  1.0000 -0.1532041881
C   C67       1.0  0.60580  0.21150  0.17790  1.0000 -0.1532041881
C   C68       1.0  0.71150  0.89420  0.67790  1.0000 -0.1532041881
C   C69       1.0  0.10580  0.71150  0.32210  1.0000 -0.1532041881
C   C70       1.0  0.21150  0.39420  0.82210  1.0000 -0.1532041881
C   C71       1.0  0.89420  0.28850  0.32210  1.0000 -0.1532041881
C   C72       1.0  0.78850  0.60580  0.82210  1.0000 -0.1532041881
N   N1        1.0  0.20990  0.91770  0.07360  1.0000 -0.2385311242
N   N2        1.0  0.41770  0.29010  0.57360  1.0000 -0.2385311242
N   N3        1.0  0.79010  0.08230  0.07360  1.0000 -0.2385311242
N   N4        1.0  0.58230  0.70990  0.57360  1.0000 -0.2385311242
N   N5        1.0  0.29010  0.58230  0.42640  1.0000 -0.2385311242
N   N6        1.0  0.08230  0.20990  0.92640  1.0000 -0.2385311242
N   N7        1.0  0.70990  0.41770  0.42640  1.0000 -0.2385311242
N   N8        1.0  0.91770  0.79010  0.92640  1.0000 -0.2385311242
N   N9        1.0  0.27220  0.87400  0.08320  1.0000 -0.2206790451
N   N10       1.0  0.37400  0.22780  0.58320  1.0000 -0.2206790451
N   N11       1.0  0.72780  0.12600  0.08320  1.0000 -0.2206790451
N   N12       1.0  0.62600  0.77220  0.58320  1.0000 -0.2206790451
N   N13       1.0  0.22780  0.62600  0.41680  1.0000 -0.2206790451
N   N14       1.0  0.12600  0.27220  0.91680  1.0000 -0.2206790451
N   N15       1.0  0.77220  0.37400  0.41680  1.0000 -0.2206790451
N   N16       1.0  0.87400  0.72780  0.91680  1.0000 -0.2206790451
N   N17       1.0  0.22220  0.88990  0.25660  1.0000 -0.276042797
N   N18       1.0  0.38990  0.27780  0.75660  1.0000 -0.276042797
N   N19       1.0  0.77780  0.11010  0.25660  1.0000 -0.276042797
N   N20       1.0  0.61010  0.72220  0.75660  1.0000 -0.276042797
N   N21       1.0  0.27780  0.61010  0.24340  1.0000 -0.276042797
N   N22       1.0  0.11010  0.22220  0.74340  1.0000 -0.276042797
N   N23       1.0  0.72220  0.38990  0.24340  1.0000 -0.276042797
N   N24       1.0  0.88990  0.77780  0.74340  1.0000 -0.276042797
N   N25       1.0  0.45230  0.73130  0.34420  1.0000 -0.2385311242
N   N26       1.0  0.23130  0.04770  0.84420  1.0000 -0.2385311242
N   N27       1.0  0.54770  0.26870  0.34420  1.0000 -0.2385311242
N   N28       1.0  0.76870  0.95230  0.84420  1.0000 -0.2385311242
N   N29       1.0  0.04770  0.76870  0.15580  1.0000 -0.2385311242
N   N30       1.0  0.26870  0.45230  0.65580  1.0000 -0.2385311242
N   N31       1.0  0.95230  0.23130  0.15580  1.0000 -0.2385311242
N   N32       1.0  0.73130  0.54770  0.65580  1.0000 -0.2385311242
Cl  Cl1       1.0  0.76582  0.60306  0.18198  1.0000 1.2478798625
Cl  Cl2       1.0  0.89694  0.26582  0.68198  1.0000 1.2478798625
Cl  Cl3       1.0  0.23418  0.39694  0.18198  1.0000 1.2478798625
Cl  Cl4       1.0  0.10306  0.73418  0.68198  1.0000 1.2478798625
Cl  Cl5       1.0  0.73418  0.89694  0.31802  1.0000 1.2478798625
Cl  Cl6       1.0  0.60306  0.23418  0.81802  1.0000 1.2478798625
Cl  Cl7       1.0  0.26582  0.10306  0.31802  1.0000 1.2478798625
Cl  Cl8       1.0  0.39694  0.76582  0.81802  1.0000 1.2478798625
O   O1        1.0  0.11657  0.03962  0.02810  1.0000 -0.5515227433
O   O2        1.0  0.53962  0.38343  0.52810  1.0000 -0.5515227433
O   O3        1.0  0.88343  0.96038  0.02810  1.0000 -0.5515227433
O   O4        1.0  0.46038  0.61657  0.52810  1.0000 -0.5515227433
O   O5        1.0  0.38343  0.46038  0.47190  1.0000 -0.5515227433
O   O6        1.0  0.96038  0.11657  0.97190  1.0000 -0.5515227433
O   O7        1.0  0.61657  0.53962  0.47190  1.0000 -0.5515227433
O   O8        1.0  0.03962  0.88343  0.97190  1.0000 -0.5515227433
O   O9        1.0  0.05831  0.08578  0.18240  1.0000 -0.5515227433
O   O10       1.0  0.58578  0.44169  0.68240  1.0000 -0.5515227433
O   O11       1.0  0.94169  0.91422  0.18240  1.0000 -0.5515227433
O   O12       1.0  0.41422  0.55831  0.68240  1.0000 -0.5515227433
O   O13       1.0  0.44169  0.41422  0.31760  1.0000 -0.5515227433
O   O14       1.0  0.91422  0.05831  0.81760  1.0000 -0.5515227433
O   O15       1.0  0.55831  0.58578  0.31760  1.0000 -0.5515227433
O   O16       1.0  0.08578  0.94169  0.81760  1.0000 -0.5515227433
O   O17       1.0  0.23010  0.87970  0.82070  1.0000 -0.6407445672
O   O18       1.0  0.37970  0.26990  0.32070  1.0000 -0.6407445672
O   O19       1.0  0.76990  0.12030  0.82070  1.0000 -0.6407445672
O   O20       1.0  0.62030  0.73010  0.32070  1.0000 -0.6407445672
O   O21       1.0  0.26990  0.62030  0.67930  1.0000 -0.6407445672
O   O22       1.0  0.12030  0.23010  0.17930  1.0000 -0.6407445672
O   O23       1.0  0.73010  0.37970  0.67930  1.0000 -0.6407445672
O   O24       1.0  0.87970  0.76990  0.17930  1.0000 -0.6407445672
O   O25       1.0  0.84050  0.61180  0.16010  1.0000 -0.4602302652
O   O26       1.0  0.73240  0.55270  0.10120  1.0000 -0.5103554878
O   O27       1.0  0.73530  0.67350  0.15220  1.0000 -0.4752186987
O   O28       1.0  0.74830  0.58280  0.29360  1.0000 -0.4602302652
O   O29       1.0  0.88820  0.34050  0.66010  1.0000 -0.4602302652
O   O30       1.0  0.94730  0.23240  0.60120  1.0000 -0.5103554878
O   O31       1.0  0.82650  0.23530  0.65220  1.0000 -0.4752186987
O   O32       1.0  0.91720  0.24830  0.79360  1.0000 -0.4602302652
O   O33       1.0  0.15950  0.38820  0.16010  1.0000 -0.4602302652
O   O34       1.0  0.26760  0.44730  0.10120  1.0000 -0.5103554878
O   O35       1.0  0.26470  0.32650  0.15220  1.0000 -0.4752186987
O   O36       1.0  0.25170  0.41720  0.29360  1.0000 -0.4602302652
O   O37       1.0  0.11180  0.65950  0.66010  1.0000 -0.4602302652
O   O38       1.0  0.05270  0.76760  0.60120  1.0000 -0.5103554878
O   O39       1.0  0.17350  0.76470  0.65220  1.0000 -0.4752186987
O   O40       1.0  0.08280  0.75170  0.79360  1.0000 -0.4602302652
O   O41       1.0  0.65950  0.88820  0.33990  1.0000 -0.4602302652
O   O42       1.0  0.76760  0.94730  0.39880  1.0000 -0.5103554878
O   O43       1.0  0.76470  0.82650  0.34780  1.0000 -0.4752186987
O   O44       1.0  0.75170  0.91720  0.20640  1.0000 -0.4602302652
O   O45       1.0  0.61180  0.15950  0.83990  1.0000 -0.4602302652
O   O46       1.0  0.55270  0.26760  0.89880  1.0000 -0.5103554878
O   O47       1.0  0.67350  0.26470  0.84780  1.0000 -0.4752186987
O   O48       1.0  0.58280  0.25170  0.70640  1.0000 -0.4602302652
O   O49       1.0  0.34050  0.11180  0.33990  1.0000 -0.4602302652
O   O50       1.0  0.23240  0.05270  0.39880  1.0000 -0.5103554878
O   O51       1.0  0.23530  0.17350  0.34780  1.0000 -0.4752186987
O   O52       1.0  0.24830  0.08280  0.20640  1.0000 -0.4602302652
O   O53       1.0  0.38820  0.84050  0.83990  1.0000 -0.4602302652
O   O54       1.0  0.44730  0.73240  0.89880  1.0000 -0.5103554878
O   O55       1.0  0.32650  0.73530  0.84780  1.0000 -0.4752186987
O   O56       1.0  0.41720  0.74830  0.70640  1.0000 -0.4602302652
