# DDEC6 charges by PACMAN v1.1 (https://github.com/mtap-research/PACMAN-charge/)
data_2016[Ag][dia]3[ION]1
_chemical_formula_sum              "Ag8 B8 H144 C112 N24 F32"
_cell_length_a       12.282
_cell_length_b       22.79
_cell_length_c       13.58
_cell_angle_alpha    90
_cell_angle_beta     91.87
_cell_angle_gamma    90

_symmetry_space_group_name_H-M    "P 1"
_symmetry_Int_Tables_number       1

loop_
  _symmetry_equiv_pos_as_xyz
  'x, y, z'

loop_
  _atom_site_type_symbol
  _atom_site_label
  _atom_site_symmetry_multiplicity
  _atom_site_fract_x
  _atom_site_fract_y
  _atom_site_fract_z
  _atom_site_occupancy
  _atom_site_charge
Ag  Ag1       1.0  0.25000  0.25000  0.50000  1.0000 0.3423277544
Ag  Ag2       1.0  0.75000  0.25000  1.00000  1.0000 0.3423277544
Ag  Ag3       1.0  0.75000  0.75000  0.50000  1.0000 0.3423277544
Ag  Ag4       1.0  0.25000  0.75000  1.00000  1.0000 0.3423277544
Ag  Ag5       1.0  0.50000  0.44892  0.25000  1.0000 0.3346342625
Ag  Ag6       1.0  0.50000  0.55108  0.75000  1.0000 0.3346342625
Ag  Ag7       1.0  1.00000  0.94892  0.25000  1.0000 0.3346342625
Ag  Ag8       1.0  1.00000  0.05108  0.75000  1.0000 0.3346342625
B   B1        1.0  0.77453  0.14626  0.21707  1.0000 1.0301307025
B   B2        1.0  0.22547  0.14626  0.28293  1.0000 1.0301307025
B   B3        1.0  0.22547  0.85374  0.78293  1.0000 1.0301307025
B   B4        1.0  0.77453  0.85374  0.71707  1.0000 1.0301307025
B   B5        1.0  0.27453  0.64626  0.21707  1.0000 1.0301307025
B   B6        1.0  0.72547  0.64626  0.28293  1.0000 1.0301307025
B   B7        1.0  0.72547  0.35374  0.78293  1.0000 1.0301307025
B   B8        1.0  0.27453  0.35374  0.71707  1.0000 1.0301307025
H   H1        1.0  0.41820  0.19846  0.37518  1.0000 0.0974947165
H   H2        1.0  0.58180  0.19846  0.12482  1.0000 0.0974947165
H   H3        1.0  0.58180  0.80154  0.62482  1.0000 0.0974947165
H   H4        1.0  0.41820  0.80154  0.87518  1.0000 0.0974947165
H   H5        1.0  0.91820  0.69846  0.37518  1.0000 0.0974947165
H   H6        1.0  0.08180  0.69846  0.12482  1.0000 0.0974947165
H   H7        1.0  0.08180  0.30154  0.62482  1.0000 0.0974947165
H   H8        1.0  0.91820  0.30154  0.87518  1.0000 0.0974947165
H   H9        1.0  0.61024  0.21736  0.32943  1.0000 0.130202833
H   H10       1.0  0.38976  0.21736  0.17057  1.0000 0.130202833
H   H11       1.0  0.38976  0.78264  0.67057  1.0000 0.130202833
H   H12       1.0  0.61024  0.78264  0.82943  1.0000 0.130202833
H   H13       1.0  0.11024  0.71736  0.32943  1.0000 0.130202833
H   H14       1.0  0.88976  0.71736  0.17057  1.0000 0.130202833
H   H15       1.0  0.88976  0.28264  0.67057  1.0000 0.130202833
H   H16       1.0  0.11024  0.28264  0.82943  1.0000 0.130202833
H   H17       1.0  0.62582  0.35050  0.55707  1.0000 0.130202833
H   H18       1.0  0.37418  0.35050  0.94293  1.0000 0.130202833
H   H19       1.0  0.37418  0.64950  0.44293  1.0000 0.130202833
H   H20       1.0  0.62582  0.64950  0.05707  1.0000 0.130202833
H   H21       1.0  0.12582  0.85050  0.55707  1.0000 0.130202833
H   H22       1.0  0.87418  0.85050  0.94293  1.0000 0.130202833
H   H23       1.0  0.87418  0.14950  0.44293  1.0000 0.130202833
H   H24       1.0  0.12582  0.14950  0.05707  1.0000 0.130202833
H   H25       1.0  0.43657  0.32515  0.59587  1.0000 0.0974947165
H   H26       1.0  0.56343  0.32515  0.90413  1.0000 0.0974947165
H   H27       1.0  0.56343  0.67485  0.40413  1.0000 0.0974947165
H   H28       1.0  0.43657  0.67485  0.09587  1.0000 0.0974947165
H   H29       1.0  0.93657  0.82515  0.59587  1.0000 0.0974947165
H   H30       1.0  0.06343  0.82515  0.90413  1.0000 0.0974947165
H   H31       1.0  0.06343  0.17485  0.40413  1.0000 0.0974947165
H   H32       1.0  0.93657  0.17485  0.09587  1.0000 0.0974947165
H   H33       1.0  0.79654  0.31831  0.46809  1.0000 0.0974947165
H   H34       1.0  0.20346  0.31831  0.03191  1.0000 0.0974947165
H   H35       1.0  0.20346  0.68169  0.53191  1.0000 0.0974947165
H   H36       1.0  0.79654  0.68169  0.96809  1.0000 0.0974947165
H   H37       1.0  0.29654  0.81831  0.46809  1.0000 0.0974947165
H   H38       1.0  0.70346  0.81831  0.03191  1.0000 0.0974947165
H   H39       1.0  0.70346  0.18169  0.53191  1.0000 0.0974947165
H   H40       1.0  0.29654  0.18169  0.96809  1.0000 0.0974947165
H   H41       1.0  0.78357  0.26794  0.36756  1.0000 0.1184512856
H   H42       1.0  0.21643  0.26794  0.13244  1.0000 0.1184512856
H   H43       1.0  0.21643  0.73206  0.63244  1.0000 0.1184512856
H   H44       1.0  0.78357  0.73206  0.86756  1.0000 0.1184512856
H   H45       1.0  0.28357  0.76794  0.36756  1.0000 0.1184512856
H   H46       1.0  0.71643  0.76794  0.13244  1.0000 0.1184512856
H   H47       1.0  0.71643  0.23206  0.63244  1.0000 0.1184512856
H   H48       1.0  0.28357  0.23206  0.86756  1.0000 0.1184512856
H   H49       1.0  0.78961  0.41918  0.43495  1.0000 0.0906084535
H   H50       1.0  0.21039  0.41918  0.06505  1.0000 0.0906084535
H   H51       1.0  0.21039  0.58082  0.56505  1.0000 0.0906084535
H   H52       1.0  0.78961  0.58082  0.93495  1.0000 0.0906084535
H   H53       1.0  0.28961  0.91918  0.43495  1.0000 0.0906084535
H   H54       1.0  0.71039  0.91918  0.06505  1.0000 0.0906084535
H   H55       1.0  0.71039  0.08082  0.56505  1.0000 0.0906084535
H   H56       1.0  0.28961  0.08082  0.93495  1.0000 0.0906084535
H   H57       1.0  0.64867  0.41738  0.40345  1.0000 0.0480524259
H   H58       1.0  0.35133  0.41738  0.09655  1.0000 0.0480524259
H   H59       1.0  0.35133  0.58262  0.59655  1.0000 0.0480524259
H   H60       1.0  0.64867  0.58262  0.90345  1.0000 0.0480524259
H   H61       1.0  0.14867  0.91738  0.40345  1.0000 0.0480524259
H   H62       1.0  0.85133  0.91738  0.09655  1.0000 0.0480524259
H   H63       1.0  0.85133  0.08262  0.59655  1.0000 0.0480524259
H   H64       1.0  0.14867  0.08262  0.90345  1.0000 0.0480524259
H   H65       1.0  0.73042  0.50215  0.32612  1.0000 0.0974947165
H   H66       1.0  0.26958  0.50215  0.17388  1.0000 0.0974947165
H   H67       1.0  0.26958  0.49785  0.67388  1.0000 0.0974947165
H   H68       1.0  0.73042  0.49785  0.82612  1.0000 0.0974947165
H   H69       1.0  0.23042  0.00215  0.32612  1.0000 0.0974947165
H   H70       1.0  0.76958  0.00215  0.17388  1.0000 0.0974947165
H   H71       1.0  0.76958  0.99785  0.67388  1.0000 0.0974947165
H   H72       1.0  0.23042  0.99785  0.82612  1.0000 0.0974947165
H   H73       1.0  0.83438  0.46047  0.27192  1.0000 0.0906084535
H   H74       1.0  0.16562  0.46047  0.22808  1.0000 0.0906084535
H   H75       1.0  0.16562  0.53953  0.72808  1.0000 0.0906084535
H   H76       1.0  0.83438  0.53953  0.77192  1.0000 0.0906084535
H   H77       1.0  0.33438  0.96047  0.27192  1.0000 0.0906084535
H   H78       1.0  0.66562  0.96047  0.22808  1.0000 0.0906084535
H   H79       1.0  0.66562  0.03953  0.72808  1.0000 0.0906084535
H   H80       1.0  0.33438  0.03953  0.77192  1.0000 0.0906084535
H   H81       1.0  0.77965  0.38777  0.13654  1.0000 0.080535545
H   H82       1.0  0.22035  0.38777  0.36346  1.0000 0.080535545
H   H83       1.0  0.22035  0.61223  0.86346  1.0000 0.080535545
H   H84       1.0  0.77965  0.61223  0.63654  1.0000 0.080535545
H   H85       1.0  0.27965  0.88777  0.13654  1.0000 0.080535545
H   H86       1.0  0.72035  0.88777  0.36346  1.0000 0.080535545
H   H87       1.0  0.72035  0.11223  0.86346  1.0000 0.080535545
H   H88       1.0  0.27965  0.11223  0.63654  1.0000 0.080535545
H   H89       1.0  0.63876  0.38115  0.10477  1.0000 0.080535545
H   H90       1.0  0.36124  0.38115  0.39523  1.0000 0.080535545
H   H91       1.0  0.36124  0.61885  0.89523  1.0000 0.080535545
H   H92       1.0  0.63876  0.61885  0.60477  1.0000 0.080535545
H   H93       1.0  0.13876  0.88115  0.10477  1.0000 0.080535545
H   H94       1.0  0.86124  0.88115  0.39523  1.0000 0.080535545
H   H95       1.0  0.86124  0.11885  0.89523  1.0000 0.080535545
H   H96       1.0  0.13876  0.11885  0.60477  1.0000 0.080535545
H   H97       1.0  0.59435  0.33671  0.25815  1.0000 0.0421028765
H   H98       1.0  0.40565  0.33671  0.24185  1.0000 0.0421028765
H   H99       1.0  0.40565  0.66329  0.74185  1.0000 0.0421028765
H   H100      1.0  0.59435  0.66329  0.75815  1.0000 0.0421028765
H   H101      1.0  0.09435  0.83671  0.25815  1.0000 0.0421028765
H   H102      1.0  0.90565  0.83671  0.24185  1.0000 0.0421028765
H   H103      1.0  0.90565  0.16329  0.74185  1.0000 0.0421028765
H   H104      1.0  0.09435  0.16329  0.75815  1.0000 0.0421028765
H   H105      1.0  0.70925  0.29970  0.21314  1.0000 0.0974947165
H   H106      1.0  0.29075  0.29970  0.28686  1.0000 0.0974947165
H   H107      1.0  0.29075  0.70030  0.78686  1.0000 0.0974947165
H   H108      1.0  0.70925  0.70030  0.71314  1.0000 0.0974947165
H   H109      1.0  0.20925  0.79970  0.21314  1.0000 0.0974947165
H   H110      1.0  0.79075  0.79970  0.28686  1.0000 0.0974947165
H   H111      1.0  0.79075  0.20030  0.78686  1.0000 0.0974947165
H   H112      1.0  0.20925  0.20030  0.71314  1.0000 0.0974947165
H   H113      1.0  0.76842  0.48598  0.09264  1.0000 0.0906084535
H   H114      1.0  0.23158  0.48598  0.40736  1.0000 0.0906084535
H   H115      1.0  0.23158  0.51402  0.90736  1.0000 0.0906084535
H   H116      1.0  0.76842  0.51402  0.59264  1.0000 0.0906084535
H   H117      1.0  0.26842  0.98598  0.09264  1.0000 0.0906084535
H   H118      1.0  0.73158  0.98598  0.40736  1.0000 0.0906084535
H   H119      1.0  0.73158  0.01402  0.90736  1.0000 0.0906084535
H   H120      1.0  0.26842  0.01402  0.59264  1.0000 0.0906084535
H   H121      1.0  0.70352  0.53713  0.17100  1.0000 0.1072368057
H   H122      1.0  0.29648  0.53713  0.32900  1.0000 0.1072368057
H   H123      1.0  0.29648  0.46287  0.82900  1.0000 0.1072368057
H   H124      1.0  0.70352  0.46287  0.67100  1.0000 0.1072368057
H   H125      1.0  0.20352  0.03713  0.17100  1.0000 0.1072368057
H   H126      1.0  0.79648  0.03713  0.32900  1.0000 0.1072368057
H   H127      1.0  0.79648  0.96287  0.82900  1.0000 0.1072368057
H   H128      1.0  0.20352  0.96287  0.67100  1.0000 0.1072368057
H   H129      1.0  0.51172  0.56252  0.14988  1.0000 0.1184512856
H   H130      1.0  0.48828  0.56252  0.35012  1.0000 0.1184512856
H   H131      1.0  0.48828  0.43748  0.85012  1.0000 0.1184512856
H   H132      1.0  0.51172  0.43748  0.64988  1.0000 0.1184512856
H   H133      1.0  0.01172  0.06252  0.14988  1.0000 0.1184512856
H   H134      1.0  0.98828  0.06252  0.35012  1.0000 0.1184512856
H   H135      1.0  0.98828  0.93748  0.85012  1.0000 0.1184512856
H   H136      1.0  0.01172  0.93748  0.64988  1.0000 0.1184512856
H   H137      1.0  0.65579  0.43642  0.95454  1.0000 0.1072368057
H   H138      1.0  0.34421  0.43642  0.54546  1.0000 0.1072368057
H   H139      1.0  0.34421  0.56358  0.04546  1.0000 0.1072368057
H   H140      1.0  0.65579  0.56358  0.45454  1.0000 0.1072368057
H   H141      1.0  0.15579  0.93642  0.95454  1.0000 0.1072368057
H   H142      1.0  0.84421  0.93642  0.54546  1.0000 0.1072368057
H   H143      1.0  0.84421  0.06358  0.04546  1.0000 0.1072368057
H   H144      1.0  0.15579  0.06358  0.45454  1.0000 0.1072368057
C   C1        1.0  0.46679  0.23285  0.41114  1.0000 0.080535545
C   C2        1.0  0.53321  0.23285  0.08886  1.0000 0.080535545
C   C3        1.0  0.53321  0.76715  0.58886  1.0000 0.080535545
C   C4        1.0  0.46679  0.76715  0.91114  1.0000 0.080535545
C   C5        1.0  0.96679  0.73285  0.41114  1.0000 0.080535545
C   C6        1.0  0.03321  0.73285  0.08886  1.0000 0.080535545
C   C7        1.0  0.03321  0.26715  0.58886  1.0000 0.080535545
C   C8        1.0  0.96679  0.26715  0.91114  1.0000 0.080535545
C   C9        1.0  0.57327  0.24447  0.38570  1.0000 -0.1787223653
C   C10       1.0  0.42673  0.24447  0.11430  1.0000 -0.1787223653
C   C11       1.0  0.42673  0.75553  0.61430  1.0000 -0.1787223653
C   C12       1.0  0.57327  0.75553  0.88570  1.0000 -0.1787223653
C   C13       1.0  0.07327  0.74447  0.38570  1.0000 -0.1787223653
C   C14       1.0  0.92673  0.74447  0.11430  1.0000 -0.1787223653
C   C15       1.0  0.92673  0.25553  0.61430  1.0000 -0.1787223653
C   C16       1.0  0.07327  0.25553  0.88570  1.0000 -0.1787223653
C   C17       1.0  0.63189  0.28894  0.43458  1.0000 0.130202833
C   C18       1.0  0.36811  0.28894  0.06542  1.0000 0.130202833
C   C19       1.0  0.36811  0.71106  0.56542  1.0000 0.130202833
C   C20       1.0  0.63189  0.71106  0.93458  1.0000 0.130202833
C   C21       1.0  0.13189  0.78894  0.43458  1.0000 0.130202833
C   C22       1.0  0.86811  0.78894  0.06542  1.0000 0.130202833
C   C23       1.0  0.86811  0.21106  0.56542  1.0000 0.130202833
C   C24       1.0  0.13189  0.21106  0.93458  1.0000 0.130202833
C   C25       1.0  0.58239  0.31798  0.51177  1.0000 -0.172521683
C   C26       1.0  0.41761  0.31798  0.98823  1.0000 -0.172521683
C   C27       1.0  0.41761  0.68202  0.48823  1.0000 -0.172521683
C   C28       1.0  0.58239  0.68202  0.01177  1.0000 -0.172521683
C   C29       1.0  0.08239  0.81798  0.51177  1.0000 -0.172521683
C   C30       1.0  0.91761  0.81798  0.98823  1.0000 -0.172521683
C   C31       1.0  0.91761  0.18202  0.48823  1.0000 -0.172521683
C   C32       1.0  0.08239  0.18202  0.01177  1.0000 -0.172521683
C   C33       1.0  0.47591  0.30409  0.53453  1.0000 0.0974947165
C   C34       1.0  0.52409  0.30409  0.96547  1.0000 0.0974947165
C   C35       1.0  0.52409  0.69591  0.46547  1.0000 0.0974947165
C   C36       1.0  0.47591  0.69591  0.03453  1.0000 0.0974947165
C   C37       1.0  0.97591  0.80409  0.53453  1.0000 0.0974947165
C   C38       1.0  0.02409  0.80409  0.96547  1.0000 0.0974947165
C   C39       1.0  0.02409  0.19591  0.46547  1.0000 0.0974947165
C   C40       1.0  0.97591  0.19591  0.03453  1.0000 0.0974947165
C   C41       1.0  0.74572  0.30554  0.40369  1.0000 -0.1244073599
C   C42       1.0  0.25428  0.30554  0.09631  1.0000 -0.1244073599
C   C43       1.0  0.25428  0.69446  0.59631  1.0000 -0.1244073599
C   C44       1.0  0.74572  0.69446  0.90369  1.0000 -0.1244073599
C   C45       1.0  0.24572  0.80554  0.40369  1.0000 -0.1244073599
C   C46       1.0  0.75428  0.80554  0.09631  1.0000 -0.1244073599
C   C47       1.0  0.75428  0.19446  0.59631  1.0000 -0.1244073599
C   C48       1.0  0.24572  0.19446  0.90369  1.0000 -0.1244073599
C   C49       1.0  0.73117  0.41203  0.37298  1.0000 -0.082589674
C   C50       1.0  0.26883  0.41203  0.12702  1.0000 -0.082589674
C   C51       1.0  0.26883  0.58797  0.62702  1.0000 -0.082589674
C   C52       1.0  0.73117  0.58797  0.87298  1.0000 -0.082589674
C   C53       1.0  0.23117  0.91203  0.37298  1.0000 -0.082589674
C   C54       1.0  0.76883  0.91203  0.12702  1.0000 -0.082589674
C   C55       1.0  0.76883  0.08797  0.62702  1.0000 -0.082589674
C   C56       1.0  0.23117  0.08797  0.87298  1.0000 -0.082589674
C   C57       1.0  0.74877  0.45897  0.29494  1.0000 -0.0887907339
C   C58       1.0  0.25123  0.45897  0.20506  1.0000 -0.0887907339
C   C59       1.0  0.25123  0.54103  0.70506  1.0000 -0.0887907339
C   C60       1.0  0.74877  0.54103  0.79494  1.0000 -0.0887907339
C   C61       1.0  0.24877  0.95897  0.29494  1.0000 -0.0887907339
C   C62       1.0  0.75123  0.95897  0.20506  1.0000 -0.0887907339
C   C63       1.0  0.75123  0.04103  0.70506  1.0000 -0.0887907339
C   C64       1.0  0.24877  0.04103  0.79494  1.0000 -0.0887907339
C   C65       1.0  0.69680  0.38956  0.16629  1.0000 -0.0887907339
C   C66       1.0  0.30320  0.38956  0.33371  1.0000 -0.0887907339
C   C67       1.0  0.30320  0.61044  0.83371  1.0000 -0.0887907339
C   C68       1.0  0.69680  0.61044  0.66629  1.0000 -0.0887907339
C   C69       1.0  0.19680  0.88956  0.16629  1.0000 -0.0887907339
C   C70       1.0  0.80320  0.88956  0.33371  1.0000 -0.0887907339
C   C71       1.0  0.80320  0.11044  0.83371  1.0000 -0.0887907339
C   C72       1.0  0.19680  0.11044  0.66629  1.0000 -0.0887907339
C   C73       1.0  0.68259  0.34179  0.24348  1.0000 -0.082589674
C   C74       1.0  0.31741  0.34179  0.25652  1.0000 -0.082589674
C   C75       1.0  0.31741  0.65821  0.75652  1.0000 -0.082589674
C   C76       1.0  0.68259  0.65821  0.74348  1.0000 -0.082589674
C   C77       1.0  0.18259  0.84179  0.24348  1.0000 -0.082589674
C   C78       1.0  0.81741  0.84179  0.25652  1.0000 -0.082589674
C   C79       1.0  0.81741  0.15821  0.75652  1.0000 -0.082589674
C   C80       1.0  0.18259  0.15821  0.74348  1.0000 -0.082589674
C   C81       1.0  0.69277  0.49547  0.13141  1.0000 -0.1278081206
C   C82       1.0  0.30723  0.49547  0.36859  1.0000 -0.1278081206
C   C83       1.0  0.30723  0.50453  0.86859  1.0000 -0.1278081206
C   C84       1.0  0.69277  0.50453  0.63141  1.0000 -0.1278081206
C   C85       1.0  0.19277  0.99547  0.13141  1.0000 -0.1278081206
C   C86       1.0  0.80723  0.99547  0.36859  1.0000 -0.1278081206
C   C87       1.0  0.80723  0.00453  0.86859  1.0000 -0.1278081206
C   C88       1.0  0.19277  0.00453  0.63141  1.0000 -0.1278081206
C   C89       1.0  0.59603  0.49939  0.06008  1.0000 0.080535545
C   C90       1.0  0.40397  0.49939  0.43992  1.0000 0.080535545
C   C91       1.0  0.40397  0.50060  0.93992  1.0000 0.080535545
C   C92       1.0  0.59603  0.50061  0.56008  1.0000 0.080535545
C   C93       1.0  0.09603  0.99940  0.06008  1.0000 0.080535545
C   C94       1.0  0.90397  0.99940  0.43992  1.0000 0.080535545
C   C95       1.0  0.90397  0.00061  0.93992  1.0000 0.080535545
C   C96       1.0  0.09603  0.00060  0.56008  1.0000 0.080535545
C   C97       1.0  0.50698  0.53474  0.08420  1.0000 -0.1554621575
C   C98       1.0  0.49302  0.53474  0.41580  1.0000 -0.1554621575
C   C99       1.0  0.49302  0.46526  0.91580  1.0000 -0.1554621575
C   C100      1.0  0.50698  0.46526  0.58420  1.0000 -0.1554621575
C   C101      1.0  0.00698  0.03474  0.08420  1.0000 -0.1554621575
C   C102      1.0  0.99302  0.03474  0.41580  1.0000 -0.1554621575
C   C103      1.0  0.99302  0.96526  0.91580  1.0000 -0.1554621575
C   C104      1.0  0.00698  0.96526  0.58420  1.0000 -0.1554621575
C   C105      1.0  0.58750  0.46423  0.97573  1.0000 -0.1376959053
C   C106      1.0  0.41250  0.46423  0.52427  1.0000 -0.1376959053
C   C107      1.0  0.41250  0.53577  0.02427  1.0000 -0.1376959053
C   C108      1.0  0.58750  0.53577  0.47573  1.0000 -0.1376959053
C   C109      1.0  0.08750  0.96423  0.97573  1.0000 -0.1376959053
C   C110      1.0  0.91250  0.96423  0.52427  1.0000 -0.1376959053
C   C111      1.0  0.91250  0.03577  0.02427  1.0000 -0.1376959053
C   C112      1.0  0.08750  0.03577  0.47573  1.0000 -0.1376959053
N   N1        1.0  0.41777  0.26373  0.48253  1.0000 -0.1871852023
N   N2        1.0  0.58223  0.26373  0.01747  1.0000 -0.1871852023
N   N3        1.0  0.58223  0.73627  0.51747  1.0000 -0.1871852023
N   N4        1.0  0.41777  0.73627  0.98253  1.0000 -0.1871852023
N   N5        1.0  0.91777  0.76373  0.48253  1.0000 -0.1871852023
N   N6        1.0  0.08223  0.76373  0.01747  1.0000 -0.1871852023
N   N7        1.0  0.08223  0.23627  0.51747  1.0000 -0.1871852023
N   N8        1.0  0.91777  0.23627  0.98253  1.0000 -0.1871852023
N   N9        1.0  0.74836  0.35358  0.33275  1.0000 -0.0959167877
N   N10       1.0  0.25164  0.35358  0.16725  1.0000 -0.0959167877
N   N11       1.0  0.25164  0.64642  0.66725  1.0000 -0.0959167877
N   N12       1.0  0.74836  0.64642  0.83275  1.0000 -0.0959167877
N   N13       1.0  0.24836  0.85358  0.33275  1.0000 -0.0959167877
N   N14       1.0  0.75164  0.85358  0.16725  1.0000 -0.0959167877
N   N15       1.0  0.75164  0.14642  0.66725  1.0000 -0.0959167877
N   N16       1.0  0.24836  0.14642  0.83275  1.0000 -0.0959167877
N   N17       1.0  0.67597  0.44886  0.20731  1.0000 -0.082589674
N   N18       1.0  0.32403  0.44886  0.29269  1.0000 -0.082589674
N   N19       1.0  0.32403  0.55114  0.79269  1.0000 -0.082589674
N   N20       1.0  0.67597  0.55114  0.70731  1.0000 -0.082589674
N   N21       1.0  0.17597  0.94886  0.20731  1.0000 -0.082589674
N   N22       1.0  0.82403  0.94886  0.29269  1.0000 -0.082589674
N   N23       1.0  0.82403  0.05114  0.79269  1.0000 -0.082589674
N   N24       1.0  0.17597  0.05114  0.70731  1.0000 -0.082589674
F   F1        1.0  0.72865  0.12701  0.12490  1.0000 -0.4767401931
F   F2        1.0  0.27135  0.12701  0.37510  1.0000 -0.4767401931
F   F3        1.0  0.27135  0.87299  0.87510  1.0000 -0.4767401931
F   F4        1.0  0.72865  0.87299  0.62490  1.0000 -0.4767401931
F   F5        1.0  0.22865  0.62701  0.12490  1.0000 -0.4767401931
F   F6        1.0  0.77135  0.62701  0.37510  1.0000 -0.4767401931
F   F7        1.0  0.77135  0.37299  0.87510  1.0000 -0.4767401931
F   F8        1.0  0.22865  0.37299  0.62490  1.0000 -0.4767401931
F   F9        1.0  0.87583  0.11738  0.23431  1.0000 -0.4523365205
F   F10       1.0  0.12417  0.11738  0.26569  1.0000 -0.4523365205
F   F11       1.0  0.12417  0.88262  0.76569  1.0000 -0.4523365205
F   F12       1.0  0.87583  0.88262  0.73431  1.0000 -0.4523365205
F   F13       1.0  0.37583  0.61738  0.23431  1.0000 -0.4523365205
F   F14       1.0  0.62417  0.61738  0.26569  1.0000 -0.4523365205
F   F15       1.0  0.62417  0.38262  0.76569  1.0000 -0.4523365205
F   F16       1.0  0.37583  0.38262  0.73431  1.0000 -0.4523365205
F   F17       1.0  0.70444  0.13360  0.29485  1.0000 -0.4688005564
F   F18       1.0  0.29556  0.13360  0.20515  1.0000 -0.4688005564
F   F19       1.0  0.29556  0.86640  0.70515  1.0000 -0.4688005564
F   F20       1.0  0.70444  0.86640  0.79485  1.0000 -0.4688005564
F   F21       1.0  0.20444  0.63360  0.29485  1.0000 -0.4688005564
F   F22       1.0  0.79556  0.63360  0.20515  1.0000 -0.4688005564
F   F23       1.0  0.79556  0.36640  0.70515  1.0000 -0.4688005564
F   F24       1.0  0.20444  0.36640  0.79485  1.0000 -0.4688005564
F   F25       1.0  0.79100  0.20827  0.21258  1.0000 -0.4767401931
F   F26       1.0  0.20900  0.20827  0.28742  1.0000 -0.4767401931
F   F27       1.0  0.20900  0.79173  0.78742  1.0000 -0.4767401931
F   F28       1.0  0.79100  0.79173  0.71258  1.0000 -0.4767401931
F   F29       1.0  0.29100  0.70827  0.21258  1.0000 -0.4767401931
F   F30       1.0  0.70900  0.70827  0.28742  1.0000 -0.4767401931
F   F31       1.0  0.70900  0.29173  0.78742  1.0000 -0.4767401931
F   F32       1.0  0.29100  0.29173  0.71258  1.0000 -0.4767401931
