# DDEC6 charges by PACMAN v1.1 (https://github.com/mtap-research/PACMAN-charge/)
data_2016[Zn][nan]3[ION]3
_chemical_formula_sum              "Zn4 H60 C64 S6 N8 O30"
_cell_length_a       12.639
_cell_length_b       13.9706
_cell_length_c       16.285
_cell_angle_alpha    68.414
_cell_angle_beta     83.532
_cell_angle_gamma    73.825

_symmetry_space_group_name_H-M    "P 1"
_symmetry_Int_Tables_number       1

loop_
  _symmetry_equiv_pos_as_xyz
  'x, y, z'

loop_
  _atom_site_type_symbol
  _atom_site_label
  _atom_site_symmetry_multiplicity
  _atom_site_fract_x
  _atom_site_fract_y
  _atom_site_fract_z
  _atom_site_occupancy
  _atom_site_charge
Zn  Zn1       1.0  0.68077  0.54891  0.84100  1.0000 0.8472487585
Zn  Zn2       1.0  0.31923  0.45109  0.15900  1.0000 0.8472487585
Zn  Zn3       1.0  0.63786  0.74166  0.92062  1.0000 0.8904913025
Zn  Zn4       1.0  0.36214  0.25834  0.07938  1.0000 0.8904913025
H   H1        1.0  0.77510  0.84510  0.97790  1.0000 0.120187641
H   H2        1.0  0.22490  0.15490  0.02210  1.0000 0.120187641
H   H3        1.0  0.79470  0.01190  0.95280  1.0000 0.1477937531
H   H4        1.0  0.20530  0.98810  0.04720  1.0000 0.1477937531
H   H5        1.0  0.03560  0.44830  0.87620  1.0000 0.1391988863
H   H6        1.0  0.96440  0.55170  0.12380  1.0000 0.1391988863
H   H7        1.0  0.37130  0.51160  0.90160  1.0000 0.120187641
H   H8        1.0  0.62870  0.48840  0.09840  1.0000 0.120187641
H   H9        1.0  0.95700  0.72780  0.91480  1.0000 0.1292909986
H   H10       1.0  0.04300  0.27220  0.08520  1.0000 0.1292909986
H   H11       1.0  0.29120  0.79150  0.94030  1.0000 0.1292909986
H   H12       1.0  0.70880  0.20850  0.05970  1.0000 0.1292909986
H   H13       1.0  0.50910  0.96540  0.83480  1.0000 0.120187641
H   H14       1.0  0.49090  0.03460  0.16520  1.0000 0.120187641
H   H15       1.0  0.51980  0.13560  0.80780  1.0000 0.1477937531
H   H16       1.0  0.48020  0.86440  0.19220  1.0000 0.1477937531
H   H17       1.0  0.83510  0.16830  0.87440  1.0000 0.1391988863
H   H18       1.0  0.16490  0.83170  0.12560  1.0000 0.1391988863
H   H19       1.0  0.84100  0.33740  0.85710  1.0000 0.120187641
H   H20       1.0  0.15900  0.66260  0.14290  1.0000 0.120187641
H   H21       1.0  0.52340  0.44420  0.81760  1.0000 0.1292909986
H   H22       1.0  0.47660  0.55580  0.18240  1.0000 0.1292909986
H   H23       1.0  0.50850  0.27830  0.83380  1.0000 0.1477937531
H   H24       1.0  0.49150  0.72170  0.16620  1.0000 0.1477937531
H   H25       1.0  0.59030  0.72730  0.57110  1.0000 0.1391988863
H   H26       1.0  0.40970  0.27270  0.42890  1.0000 0.1391988863
H   H27       1.0  0.54860  0.96450  0.66410  1.0000 0.120187641
H   H28       1.0  0.45140  0.03550  0.33590  1.0000 0.120187641
H   H29       1.0  0.84110  0.07500  0.66080  1.0000 0.2608576672
H   H30       1.0  0.82530  0.02940  0.59770  1.0000 0.254795994
H   H31       1.0  0.84690  0.91900  0.77190  1.0000 0.1391988863
H   H32       1.0  0.73370  0.96990  0.72310  1.0000 0.1292909986
H   H33       1.0  0.81990  0.87660  0.70200  1.0000 0.1292909986
H   H34       1.0  0.01180  0.98730  0.68230  1.0000 0.1391988863
H   H35       1.0  0.99700  0.91500  0.63250  1.0000 0.1292909986
H   H36       1.0  0.99400  0.03490  0.58000  1.0000 0.0889725806
H   H37       1.0  0.15890  0.92500  0.33920  1.0000 0.2608576672
H   H38       1.0  0.17470  0.97060  0.40230  1.0000 0.254795994
H   H39       1.0  0.15310  0.08100  0.22810  1.0000 0.1391988863
H   H40       1.0  0.26630  0.03010  0.27690  1.0000 0.1292909986
H   H41       1.0  0.18010  0.12340  0.29800  1.0000 0.1292909986
H   H42       1.0  0.98820  0.01270  0.31770  1.0000 0.1391988863
H   H43       1.0  0.00300  0.08500  0.36750  1.0000 0.1292909986
H   H44       1.0  0.00600  0.96510  0.42000  1.0000 0.0769524189
H   H45       1.0  0.90150  0.86640  0.11630  1.0000 0.2686706068
H   H46       1.0  0.87880  0.77000  0.18090  1.0000 0.2686706068
H   H47       1.0  0.90170  0.84560  0.28470  1.0000 0.1292909986
H   H48       1.0  0.00380  0.77940  0.24750  1.0000 0.120187641
H   H49       1.0  0.97170  0.90410  0.20650  1.0000 0.1292909986
H   H50       1.0  0.72740  0.86250  0.22990  1.0000 0.1391988863
H   H51       1.0  0.75290  0.96810  0.16370  1.0000 0.1292909986
H   H52       1.0  0.72010  0.89060  0.12790  1.0000 0.120187641
H   H53       1.0  0.09850  0.13360  0.88370  1.0000 0.2686706068
H   H54       1.0  0.12120  0.23000  0.81910  1.0000 0.2686706068
H   H55       1.0  0.09830  0.15440  0.71530  1.0000 0.1292909986
H   H56       1.0  0.99620  0.22060  0.75250  1.0000 0.120187641
H   H57       1.0  0.02830  0.09590  0.79350  1.0000 0.1292909986
H   H58       1.0  0.27260  0.13750  0.77010  1.0000 0.1391988863
H   H59       1.0  0.24710  0.03190  0.83630  1.0000 0.1292909986
H   H60       1.0  0.27990  0.10940  0.87210  1.0000 0.120187641
C   C1        1.0  0.72360  0.90430  0.94340  1.0000 0.0889725806
C   C2        1.0  0.27640  0.09570  0.05660  1.0000 0.0889725806
C   C3        1.0  0.85820  0.60080  0.89140  1.0000 0.592623304
C   C4        1.0  0.14180  0.39920  0.10860  1.0000 0.592623304
C   C5        1.0  0.73590  0.00430  0.92840  1.0000 -0.1637976771
C   C6        1.0  0.26410  0.99570  0.07160  1.0000 -0.1637976771
C   C7        1.0  0.97910  0.59060  0.89460  1.0000 -0.021471887
C   C8        1.0  0.02090  0.40940  0.10540  1.0000 -0.021471887
C   C9        1.0  0.12350  0.66430  0.91280  1.0000 0.0707419472
C   C10       1.0  0.87650  0.33570  0.08720  1.0000 0.0707419472
C   C11       1.0  0.05800  0.50180  0.88500  1.0000 -0.0981469458
C   C12       1.0  0.94200  0.49820  0.11500  1.0000 -0.0981469458
C   C13       1.0  0.31770  0.56970  0.90760  1.0000 -0.1379586166
C   C14       1.0  0.68230  0.43030  0.09240  1.0000 -0.1379586166
C   C15       1.0  0.16790  0.49420  0.88870  1.0000 -0.1277006759
C   C16       1.0  0.83210  0.50580  0.11130  1.0000 -0.1191907022
C   C17       1.0  0.20450  0.57530  0.90280  1.0000 0.0769524189
C   C18       1.0  0.79550  0.42470  0.09720  1.0000 0.0769524189
C   C19       1.0  0.57620  0.83570  0.63110  1.0000 -0.021471887
C   C20       1.0  0.42380  0.16430  0.36890  1.0000 -0.021471887
C   C21       1.0  0.01040  0.66980  0.90830  1.0000 -0.1277006759
C   C22       1.0  0.98960  0.33020  0.09170  1.0000 -0.1277006759
C   C23       1.0  0.34850  0.64940  0.92110  1.0000 -0.0135490388
C   C24       1.0  0.65150  0.35060  0.07890  1.0000 -0.0135490388
C   C25       1.0  0.26910  0.73820  0.93090  1.0000 -0.1191907022
C   C26       1.0  0.73090  0.26180  0.06910  1.0000 -0.1191907022
C   C27       1.0  0.15870  0.74590  0.92660  1.0000 -0.1191907022
C   C28       1.0  0.84130  0.25410  0.07340  1.0000 -0.1191907022
C   C29       1.0  0.46830  0.64660  0.92130  1.0000 0.5977459805
C   C30       1.0  0.53170  0.35340  0.07870  1.0000 0.5977459805
C   C31       1.0  0.56640  0.97540  0.85920  1.0000 0.1011659907
C   C32       1.0  0.43360  0.02460  0.14080  1.0000 0.1011659907
C   C33       1.0  0.66000  0.09380  0.87660  1.0000 0.1121008502
C   C34       1.0  0.34000  0.90620  0.12340  1.0000 0.1121008502
C   C35       1.0  0.57290  0.07780  0.84210  1.0000 -0.1637976771
C   C36       1.0  0.42710  0.92220  0.15790  1.0000 -0.1637976771
C   C37       1.0  0.66950  0.20260  0.85960  1.0000 0.120187641
C   C38       1.0  0.33050  0.79740  0.14040  1.0000 0.120187641
C   C39       1.0  0.77070  0.22290  0.86410  1.0000 -0.1695832653
C   C40       1.0  0.22930  0.77710  0.13590  1.0000 -0.1695832653
C   C41       1.0  0.77360  0.32480  0.85320  1.0000 0.0889725806
C   C42       1.0  0.22640  0.67520  0.14680  1.0000 0.0889725806
C   C43       1.0  0.58630  0.38780  0.82990  1.0000 0.1121008502
C   C44       1.0  0.41370  0.61220  0.17010  1.0000 0.1121008502
C   C45       1.0  0.57660  0.28820  0.84000  1.0000 -0.1379586166
C   C46       1.0  0.42340  0.71180  0.16000  1.0000 -0.1379586166
C   C47       1.0  0.61510  0.75710  0.72010  1.0000 0.592623304
C   C48       1.0  0.38490  0.24290  0.27990  1.0000 0.592623304
C   C49       1.0  0.56830  0.79980  0.56180  1.0000 -0.0981469458
C   C50       1.0  0.43170  0.20020  0.43820  1.0000 -0.0981469458
C   C51       1.0  0.52880  0.87070  0.48160  1.0000 -0.1191907022
C   C52       1.0  0.47120  0.12930  0.51840  1.0000 -0.1191907022
C   C53       1.0  0.49610  0.98210  0.46510  1.0000 0.0769524189
C   C54       1.0  0.50390  0.01790  0.53490  1.0000 0.0769524189
C   C55       1.0  0.54410  0.94170  0.61800  1.0000 -0.1191907022
C   C56       1.0  0.45590  0.05830  0.38200  1.0000 -0.1191907022
C   C57       1.0  0.81070  0.93870  0.71710  1.0000 -0.2873802824
C   C58       1.0  0.97490  0.98550  0.63470  1.0000 -0.2669424607
C   C59       1.0  0.18930  0.06130  0.28290  1.0000 -0.2873802824
C   C60       1.0  0.02510  0.01450  0.36530  1.0000 -0.2669424607
C   C61       1.0  0.94350  0.84220  0.23240  1.0000 -0.2787753834
C   C62       1.0  0.75890  0.89480  0.17330  1.0000 -0.2787753834
C   C63       1.0  0.05650  0.15780  0.76760  1.0000 -0.2787753834
C   C64       1.0  0.24110  0.10520  0.82670  1.0000 -0.2787753834
S   S1        1.0  0.26386  0.38358  0.87002  1.0000 1.1705252187
S   S2        1.0  0.73614  0.61642  0.12998  1.0000 1.1705252187
S   S3        1.0  0.06071  0.86041  0.93991  1.0000 1.1390049117
S   S4        1.0  0.93929  0.13959  0.06009  1.0000 1.1390049117
S   S5        1.0  0.51554  0.82020  0.39793  1.0000 1.1591106312
S   S6        1.0  0.48446  0.17980  0.60207  1.0000 1.1591106312
N   N1        1.0  0.68270  0.40670  0.83693  1.0000 -0.2473713612
N   N2        1.0  0.31730  0.59330  0.16307  1.0000 -0.2473713612
N   N3        1.0  0.63940  0.88960  0.90960  1.0000 -0.2473713612
N   N4        1.0  0.36060  0.11040  0.09040  1.0000 -0.2473713612
N   N5        1.0  0.85820  0.01450  0.64880  1.0000 -0.0815216588
N   N6        1.0  0.14180  0.98550  0.35120  1.0000 -0.0815216588
N   N7        1.0  0.87470  0.83870  0.17110  1.0000 -0.0815216588
N   N8        1.0  0.12530  0.16130  0.82890  1.0000 -0.0815216588
O   O1        1.0  0.82889  0.52810  0.87826  1.0000 -0.5363085611
O   O2        1.0  0.17111  0.47190  0.12174  1.0000 -0.5363085611
O   O3        1.0  0.79433  0.68120  0.90207  1.0000 -0.5507116659
O   O4        1.0  0.20567  0.31880  0.09793  1.0000 -0.5507116659
O   O5        1.0  0.19970  0.31330  0.86850  1.0000 -0.5978151901
O   O6        1.0  0.80030  0.68670  0.13150  1.0000 -0.5978151901
O   O7        1.0  0.32000  0.42800  0.78764  1.0000 -0.5753528221
O   O8        1.0  0.68000  0.57200  0.21236  1.0000 -0.5753528221
O   O9        1.0  0.34227  0.33447  0.94334  1.0000 -0.6327301009
O   O10       1.0  0.65773  0.66553  0.05666  1.0000 -0.6327301009
O   O11       1.0  0.99740  0.81760  0.01890  1.0000 -0.6175657455
O   O12       1.0  0.00260  0.18240  0.98110  1.0000 -0.6175657455
O   O13       1.0  0.12630  0.92540  0.95030  1.0000 -0.6132324381
O   O14       1.0  0.87370  0.07460  0.04970  1.0000 -0.6132324381
O   O15       1.0  0.99510  0.91020  0.86060  1.0000 -0.6175657455
O   O16       1.0  0.00490  0.08980  0.13940  1.0000 -0.6175657455
O   O17       1.0  0.53876  0.57157  0.90442  1.0000 -0.5684190138
O   O18       1.0  0.46124  0.42843  0.09558  1.0000 -0.5684190138
O   O19       1.0  0.48959  0.72000  0.93747  1.0000 -0.5153840823
O   O20       1.0  0.51041  0.28000  0.06253  1.0000 -0.5153840823
O   O21       1.0  0.64750  0.65965  0.72661  1.0000 -0.5311614616
O   O22       1.0  0.35250  0.34035  0.27339  1.0000 -0.5311614616
O   O23       1.0  0.61170  0.79014  0.78203  1.0000 -0.5593488856
O   O24       1.0  0.38830  0.20986  0.21797  1.0000 -0.5593488856
O   O25       1.0  0.55240  0.70540  0.43840  1.0000 -0.5593488856
O   O26       1.0  0.44760  0.29460  0.56160  1.0000 -0.5593488856
O   O27       1.0  0.58430  0.86630  0.32510  1.0000 -0.6175657455
O   O28       1.0  0.41570  0.13370  0.67490  1.0000 -0.6175657455
O   O29       1.0  0.39880  0.85790  0.37570  1.0000 -0.6410234912
O   O30       1.0  0.60120  0.14210  0.62430  1.0000 -0.6410234912
