# DDEC6 charges by PACMAN v1.1 (https://github.com/mtap-research/PACMAN-charge/)
data_2016[Zn][pts]3[ION]1
_chemical_formula_sum              "Zn2 H52 C52 N4 O16"
_cell_length_a       12.6502
_cell_length_b       12.6502
_cell_length_c       18.9958
_cell_angle_alpha    57.05
_cell_angle_beta     122.95
_cell_angle_gamma    135.685

_symmetry_space_group_name_H-M    "P 1"
_symmetry_Int_Tables_number       1

loop_
  _symmetry_equiv_pos_as_xyz
  'x, y, z'

loop_
  _atom_site_type_symbol
  _atom_site_label
  _atom_site_symmetry_multiplicity
  _atom_site_fract_x
  _atom_site_fract_y
  _atom_site_fract_z
  _atom_site_occupancy
  _atom_site_charge
Zn  Zn1       1.0  0.99380  0.99380  0.25000  1.0000 0.9059758421
Zn  Zn2       1.0  0.00620  0.00620  0.75000  1.0000 0.9059758421
H   H1        1.0  0.64000  0.09220  0.12020  1.0000 0.1205939531
H   H2        1.0  0.09220  0.64000  0.37980  1.0000 0.1205939531
H   H3        1.0  0.36000  0.90780  0.87980  1.0000 0.1205939531
H   H4        1.0  0.90780  0.36000  0.62020  1.0000 0.1205939531
H   H5        1.0  0.41340  0.74500  0.90870  1.0000 0.1141362183
H   H6        1.0  0.74500  0.41340  0.59130  1.0000 0.1141362183
H   H7        1.0  0.58660  0.25500  0.09130  1.0000 0.1141362183
H   H8        1.0  0.25500  0.58660  0.40870  1.0000 0.1141362183
H   H9        1.0  0.49630  0.70430  0.84990  1.0000 0.1205939531
H   H10       1.0  0.70430  0.49630  0.65010  1.0000 0.1205939531
H   H11       1.0  0.50370  0.29570  0.15010  1.0000 0.1205939531
H   H12       1.0  0.29570  0.50370  0.34990  1.0000 0.1205939531
H   H13       1.0  0.93050  0.08830  0.90360  1.0000 0.1303648289
H   H14       1.0  0.08830  0.93050  0.59640  1.0000 0.1303648289
H   H15       1.0  0.06950  0.91170  0.09640  1.0000 0.1303648289
H   H16       1.0  0.91170  0.06950  0.40360  1.0000 0.1303648289
H   H17       1.0  0.84970  0.12910  0.96380  1.0000 0.1205939531
H   H18       1.0  0.12910  0.84970  0.53620  1.0000 0.1205939531
H   H19       1.0  0.15030  0.87090  0.03620  1.0000 0.1205939531
H   H20       1.0  0.87090  0.15030  0.46380  1.0000 0.1205939531
H   H21       1.0  0.21760  0.39360  0.17270  1.0000 0.2620626922
H   H22       1.0  0.18730  0.43730  0.07900  1.0000 0.2536068495
H   H23       1.0  0.20520  0.57540  0.15950  1.0000 0.1303648289
H   H24       1.0  0.04640  0.44640  0.11170  1.0000 0.1303648289
H   H25       1.0  0.16180  0.61120  0.05840  1.0000 0.1205939531
H   H26       1.0  0.45250  0.62450  0.18490  1.0000 0.1388677667
H   H27       1.0  0.41900  0.68340  0.08330  1.0000 0.1141362183
H   H28       1.0  0.44300  0.55160  0.13450  1.0000 0.1388677667
H   H29       1.0  0.39360  0.21760  0.32730  1.0000 0.2620626922
H   H30       1.0  0.43730  0.18730  0.42100  1.0000 0.2536068495
H   H31       1.0  0.57540  0.20520  0.34050  1.0000 0.1303648289
H   H32       1.0  0.44640  0.04640  0.38830  1.0000 0.1303648289
H   H33       1.0  0.61120  0.16180  0.44160  1.0000 0.1205939531
H   H34       1.0  0.62450  0.45250  0.31510  1.0000 0.1388677667
H   H35       1.0  0.68340  0.41900  0.41670  1.0000 0.1141362183
H   H36       1.0  0.55160  0.44300  0.36550  1.0000 0.1388677667
H   H37       1.0  0.78240  0.60640  0.82730  1.0000 0.2620626922
H   H38       1.0  0.81270  0.56270  0.92100  1.0000 0.2536068495
H   H39       1.0  0.79480  0.42460  0.84050  1.0000 0.1303648289
H   H40       1.0  0.95360  0.55360  0.88830  1.0000 0.1303648289
H   H41       1.0  0.83820  0.38880  0.94160  1.0000 0.1205939531
H   H42       1.0  0.54750  0.37550  0.81510  1.0000 0.1388677667
H   H43       1.0  0.58100  0.31660  0.91670  1.0000 0.1141362183
H   H44       1.0  0.55700  0.44840  0.86550  1.0000 0.1388677667
H   H45       1.0  0.60640  0.78240  0.67270  1.0000 0.2620626922
H   H46       1.0  0.56270  0.81270  0.57900  1.0000 0.2536068495
H   H47       1.0  0.42460  0.79480  0.65950  1.0000 0.1303648289
H   H48       1.0  0.55360  0.95360  0.61170  1.0000 0.1303648289
H   H49       1.0  0.38880  0.83820  0.55840  1.0000 0.1205939531
H   H50       1.0  0.37550  0.54750  0.68490  1.0000 0.1388677667
H   H51       1.0  0.31660  0.58100  0.58330  1.0000 0.1141362183
H   H52       1.0  0.44840  0.55700  0.63450  1.0000 0.1388677667
C   C1        1.0  0.79865  0.05195  0.10788  1.0000 0.5466721292
C   C2        1.0  0.05195  0.79865  0.39212  1.0000 0.5466721292
C   C3        1.0  0.20135  0.94805  0.89212  1.0000 0.5466721292
C   C4        1.0  0.94805  0.20135  0.60788  1.0000 0.5466721292
C   C5        1.0  0.64671  0.02929  0.04704  1.0000 -0.0478872162
C   C6        1.0  0.02929  0.64671  0.45296  1.0000 -0.0478872162
C   C7        1.0  0.35329  0.97071  0.95296  1.0000 -0.0478872162
C   C8        1.0  0.97071  0.35329  0.54704  1.0000 -0.0478872162
C   C9        1.0  0.58283  0.05477  0.07138  1.0000 -0.1676472414
C   C10       1.0  0.05477  0.58283  0.42862  1.0000 -0.1676472414
C   C11       1.0  0.41717  0.94523  0.92862  1.0000 -0.1676472414
C   C12       1.0  0.94523  0.41717  0.57138  1.0000 -0.1676472414
C   C13       1.0  0.56315  0.97285  0.97372  1.0000 0.0363542225
C   C14       1.0  0.97285  0.56315  0.52628  1.0000 0.0363542225
C   C15       1.0  0.43685  0.02715  0.02628  1.0000 0.0363542225
C   C16       1.0  0.02715  0.43685  0.47372  1.0000 0.0363542225
C   C17       1.0  0.62168  0.94312  0.94161  1.0000 0.0697951775
C   C18       1.0  0.94312  0.62168  0.55839  1.0000 0.0697951775
C   C19       1.0  0.37832  0.05688  0.05839  1.0000 0.0697951775
C   C20       1.0  0.05688  0.37832  0.44161  1.0000 0.0697951775
C   C21       1.0  0.51779  0.81521  0.90746  1.0000 -0.1455062579
C   C22       1.0  0.81521  0.51779  0.59254  1.0000 -0.1455062579
C   C23       1.0  0.48221  0.18479  0.09254  1.0000 -0.1455062579
C   C24       1.0  0.18479  0.48221  0.40746  1.0000 -0.1455062579
C   C25       1.0  0.56746  0.79114  0.87183  1.0000 -0.1051301424
C   C26       1.0  0.79114  0.56746  0.62817  1.0000 -0.1051301424
C   C27       1.0  0.43254  0.20886  0.12817  1.0000 -0.1051301424
C   C28       1.0  0.20886  0.43254  0.37183  1.0000 -0.1051301424
C   C29       1.0  0.72146  0.89434  0.86823  1.0000 -0.0224697993
C   C30       1.0  0.89434  0.72146  0.63177  1.0000 -0.0224697993
C   C31       1.0  0.27854  0.10566  0.13177  1.0000 -0.0224697993
C   C32       1.0  0.10566  0.27854  0.36823  1.0000 -0.0224697993
C   C33       1.0  0.77164  0.87096  0.82449  1.0000 0.5617923971
C   C34       1.0  0.87096  0.77164  0.67551  1.0000 0.5617923971
C   C35       1.0  0.22836  0.12904  0.17551  1.0000 0.5617923971
C   C36       1.0  0.12904  0.22836  0.32449  1.0000 0.5617923971
C   C37       1.0  0.82579  0.01941  0.90395  1.0000 -0.0898248021
C   C38       1.0  0.01941  0.82579  0.59605  1.0000 -0.0898248021
C   C39       1.0  0.17421  0.98059  0.09605  1.0000 -0.0898248021
C   C40       1.0  0.98059  0.17421  0.40395  1.0000 -0.0898248021
C   C41       1.0  0.77744  0.04416  0.94020  1.0000 -0.1322915618
C   C42       1.0  0.04416  0.77744  0.55980  1.0000 -0.1322915618
C   C43       1.0  0.22256  0.95584  0.05980  1.0000 -0.1322915618
C   C44       1.0  0.95584  0.22256  0.44020  1.0000 -0.1322915618
C   C45       1.0  0.15478  0.53182  0.11250  1.0000 -0.2935666878
C   C46       1.0  0.40130  0.59370  0.13250  1.0000 -0.2935666878
C   C47       1.0  0.53182  0.15478  0.38750  1.0000 -0.2935666878
C   C48       1.0  0.59370  0.40130  0.36750  1.0000 -0.2935666878
C   C49       1.0  0.84522  0.46818  0.88750  1.0000 -0.2935666878
C   C50       1.0  0.59870  0.40630  0.86750  1.0000 -0.2935666878
C   C51       1.0  0.46818  0.84522  0.61250  1.0000 -0.2935666878
C   C52       1.0  0.40630  0.59870  0.63250  1.0000 -0.2935666878
N   N1        1.0  0.23267  0.47413  0.12454  1.0000 -0.1008427207
N   N2        1.0  0.47413  0.23267  0.37546  1.0000 -0.1008427207
N   N3        1.0  0.76733  0.52587  0.87546  1.0000 -0.1008427207
N   N4        1.0  0.52587  0.76733  0.62454  1.0000 -0.1008427207
O   O1        1.0  0.78392  0.92788  0.16352  1.0000 -0.515029407
O   O2        1.0  0.92788  0.78392  0.33648  1.0000 -0.515029407
O   O3        1.0  0.21608  0.07212  0.83648  1.0000 -0.515029407
O   O4        1.0  0.07212  0.21608  0.66352  1.0000 -0.515029407
O   O5        1.0  0.92310  0.18430  0.10433  1.0000 -0.5685470168
O   O6        1.0  0.18430  0.92310  0.39567  1.0000 -0.5685470168
O   O7        1.0  0.07690  0.81570  0.89567  1.0000 -0.5685470168
O   O8        1.0  0.81570  0.07690  0.60433  1.0000 -0.5685470168
O   O9        1.0  0.90591  0.98489  0.81113  1.0000 -0.5326645736
O   O10       1.0  0.98489  0.90591  0.68887  1.0000 -0.5326645736
O   O11       1.0  0.09409  0.01511  0.18887  1.0000 -0.5326645736
O   O12       1.0  0.01511  0.09409  0.31113  1.0000 -0.5326645736
O   O13       1.0  0.68042  0.74838  0.80326  1.0000 -0.5477755431
O   O14       1.0  0.74838  0.68042  0.69674  1.0000 -0.5477755431
O   O15       1.0  0.31958  0.25162  0.19674  1.0000 -0.5477755431
O   O16       1.0  0.25162  0.31958  0.30326  1.0000 -0.5477755431
