# DDEC6 charges by PACMAN v1.1 (https://github.com/mtap-research/PACMAN-charge/)
data_2016[In][soc]3[ION]1
_chemical_formula_sum              "In24 H120 C216 N24 O200"
_cell_length_a       22.623
_cell_length_b       22.623
_cell_length_c       22.623
_cell_angle_alpha    90
_cell_angle_beta     90
_cell_angle_gamma    90

_symmetry_space_group_name_H-M    "P 1"
_symmetry_Int_Tables_number       1

loop_
  _symmetry_equiv_pos_as_xyz
  'x, y, z'

loop_
  _atom_site_type_symbol
  _atom_site_label
  _atom_site_symmetry_multiplicity
  _atom_site_fract_x
  _atom_site_fract_y
  _atom_site_fract_z
  _atom_site_occupancy
  _atom_site_charge
In  In1       1.0  0.25000  0.18633  0.31367  1.0000 1.4242571413
In  In2       1.0  0.75000  0.81367  0.31367  1.0000 1.4242571413
In  In3       1.0  0.75000  0.18633  0.68633  1.0000 1.4242571413
In  In4       1.0  0.25000  0.81367  0.68633  1.0000 1.4242571413
In  In5       1.0  0.31367  0.25000  0.18633  1.0000 1.4242571413
In  In6       1.0  0.31367  0.75000  0.81367  1.0000 1.4242571413
In  In7       1.0  0.68633  0.75000  0.18633  1.0000 1.4242571413
In  In8       1.0  0.68633  0.25000  0.81367  1.0000 1.4242571413
In  In9       1.0  0.18633  0.31367  0.25000  1.0000 1.4242571413
In  In10      1.0  0.81367  0.31367  0.75000  1.0000 1.4242571413
In  In11      1.0  0.18633  0.68633  0.75000  1.0000 1.4242571413
In  In12      1.0  0.81367  0.68633  0.25000  1.0000 1.4242571413
In  In13      1.0  0.75000  0.81367  0.68633  1.0000 1.4242571413
In  In14      1.0  0.25000  0.18633  0.68633  1.0000 1.4242571413
In  In15      1.0  0.25000  0.81367  0.31367  1.0000 1.4242571413
In  In16      1.0  0.75000  0.18633  0.31367  1.0000 1.4242571413
In  In17      1.0  0.68633  0.75000  0.81367  1.0000 1.4242571413
In  In18      1.0  0.68633  0.25000  0.18633  1.0000 1.4242571413
In  In19      1.0  0.31367  0.25000  0.81367  1.0000 1.4242571413
In  In20      1.0  0.31367  0.75000  0.18633  1.0000 1.4242571413
In  In21      1.0  0.81367  0.68633  0.75000  1.0000 1.4242571413
In  In22      1.0  0.18633  0.68633  0.25000  1.0000 1.4242571413
In  In23      1.0  0.81367  0.31367  0.25000  1.0000 1.4242571413
In  In24      1.0  0.18633  0.31367  0.75000  1.0000 1.4242571413
H   H1        1.0  0.24700  0.09500  0.35600  1.0000 0.396523577
H   H2        1.0  0.75300  0.90500  0.35600  1.0000 0.396523577
H   H3        1.0  0.75300  0.09500  0.64400  1.0000 0.396523577
H   H4        1.0  0.24700  0.90500  0.64400  1.0000 0.396523577
H   H5        1.0  0.35600  0.24700  0.09500  1.0000 0.396523577
H   H6        1.0  0.35600  0.75300  0.90500  1.0000 0.396523577
H   H7        1.0  0.64400  0.75300  0.09500  1.0000 0.396523577
H   H8        1.0  0.64400  0.24700  0.90500  1.0000 0.396523577
H   H9        1.0  0.09500  0.35600  0.24700  1.0000 0.396523577
H   H10       1.0  0.90500  0.35600  0.75300  1.0000 0.396523577
H   H11       1.0  0.09500  0.64400  0.75300  1.0000 0.396523577
H   H12       1.0  0.90500  0.64400  0.24700  1.0000 0.396523577
H   H13       1.0  0.59500  0.74700  0.14400  1.0000 0.396523577
H   H14       1.0  0.40500  0.25300  0.14400  1.0000 0.396523577
H   H15       1.0  0.59500  0.25300  0.85600  1.0000 0.396523577
H   H16       1.0  0.40500  0.74700  0.85600  1.0000 0.396523577
H   H17       1.0  0.74700  0.85600  0.40500  1.0000 0.396523577
H   H18       1.0  0.25300  0.85600  0.59500  1.0000 0.396523577
H   H19       1.0  0.25300  0.14400  0.40500  1.0000 0.396523577
H   H20       1.0  0.74700  0.14400  0.59500  1.0000 0.396523577
H   H21       1.0  0.85600  0.59500  0.25300  1.0000 0.396523577
H   H22       1.0  0.85600  0.40500  0.74700  1.0000 0.396523577
H   H23       1.0  0.14400  0.59500  0.74700  1.0000 0.396523577
H   H24       1.0  0.14400  0.40500  0.25300  1.0000 0.396523577
H   H25       1.0  0.75300  0.90500  0.64400  1.0000 0.396523577
H   H26       1.0  0.24700  0.09500  0.64400  1.0000 0.396523577
H   H27       1.0  0.24700  0.90500  0.35600  1.0000 0.396523577
H   H28       1.0  0.75300  0.09500  0.35600  1.0000 0.396523577
H   H29       1.0  0.64400  0.75300  0.90500  1.0000 0.396523577
H   H30       1.0  0.64400  0.24700  0.09500  1.0000 0.396523577
H   H31       1.0  0.35600  0.24700  0.90500  1.0000 0.396523577
H   H32       1.0  0.35600  0.75300  0.09500  1.0000 0.396523577
H   H33       1.0  0.90500  0.64400  0.75300  1.0000 0.396523577
H   H34       1.0  0.09500  0.64400  0.24700  1.0000 0.396523577
H   H35       1.0  0.90500  0.35600  0.24700  1.0000 0.396523577
H   H36       1.0  0.09500  0.35600  0.75300  1.0000 0.396523577
H   H37       1.0  0.40500  0.25300  0.85600  1.0000 0.396523577
H   H38       1.0  0.59500  0.74700  0.85600  1.0000 0.396523577
H   H39       1.0  0.40500  0.74700  0.14400  1.0000 0.396523577
H   H40       1.0  0.59500  0.25300  0.14400  1.0000 0.396523577
H   H41       1.0  0.25300  0.14400  0.59500  1.0000 0.396523577
H   H42       1.0  0.74700  0.14400  0.40500  1.0000 0.396523577
H   H43       1.0  0.74700  0.85600  0.59500  1.0000 0.396523577
H   H44       1.0  0.25300  0.85600  0.40500  1.0000 0.396523577
H   H45       1.0  0.14400  0.40500  0.74700  1.0000 0.396523577
H   H46       1.0  0.14400  0.59500  0.25300  1.0000 0.396523577
H   H47       1.0  0.85600  0.40500  0.25300  1.0000 0.396523577
H   H48       1.0  0.85600  0.59500  0.74700  1.0000 0.396523577
H   H49       1.0  0.31090  0.08950  0.09750  1.0000 0.1433619827
H   H50       1.0  0.68910  0.91050  0.09750  1.0000 0.1433619827
H   H51       1.0  0.68910  0.08950  0.90250  1.0000 0.1433619827
H   H52       1.0  0.31090  0.91050  0.90250  1.0000 0.1433619827
H   H53       1.0  0.09750  0.31090  0.08950  1.0000 0.1433619827
H   H54       1.0  0.09750  0.68910  0.91050  1.0000 0.1433619827
H   H55       1.0  0.90250  0.68910  0.08950  1.0000 0.1433619827
H   H56       1.0  0.90250  0.31090  0.91050  1.0000 0.1433619827
H   H57       1.0  0.08950  0.09750  0.31090  1.0000 0.1433619827
H   H58       1.0  0.91050  0.09750  0.68910  1.0000 0.1433619827
H   H59       1.0  0.08950  0.90250  0.68910  1.0000 0.1433619827
H   H60       1.0  0.91050  0.90250  0.31090  1.0000 0.1433619827
H   H61       1.0  0.58950  0.81090  0.40250  1.0000 0.1433619827
H   H62       1.0  0.41050  0.18910  0.40250  1.0000 0.1433619827
H   H63       1.0  0.58950  0.18910  0.59750  1.0000 0.1433619827
H   H64       1.0  0.41050  0.81090  0.59750  1.0000 0.1433619827
H   H65       1.0  0.81090  0.59750  0.41050  1.0000 0.1433619827
H   H66       1.0  0.18910  0.59750  0.58950  1.0000 0.1433619827
H   H67       1.0  0.18910  0.40250  0.41050  1.0000 0.1433619827
H   H68       1.0  0.81090  0.40250  0.58950  1.0000 0.1433619827
H   H69       1.0  0.59750  0.58950  0.18910  1.0000 0.1433619827
H   H70       1.0  0.59750  0.41050  0.81090  1.0000 0.1433619827
H   H71       1.0  0.40250  0.58950  0.81090  1.0000 0.1433619827
H   H72       1.0  0.40250  0.41050  0.18910  1.0000 0.1433619827
H   H73       1.0  0.68910  0.91050  0.90250  1.0000 0.1433619827
H   H74       1.0  0.31090  0.08950  0.90250  1.0000 0.1433619827
H   H75       1.0  0.31090  0.91050  0.09750  1.0000 0.1433619827
H   H76       1.0  0.68910  0.08950  0.09750  1.0000 0.1433619827
H   H77       1.0  0.90250  0.68910  0.91050  1.0000 0.1433619827
H   H78       1.0  0.90250  0.31090  0.08950  1.0000 0.1433619827
H   H79       1.0  0.09750  0.31090  0.91050  1.0000 0.1433619827
H   H80       1.0  0.09750  0.68910  0.08950  1.0000 0.1433619827
H   H81       1.0  0.91050  0.90250  0.68910  1.0000 0.1433619827
H   H82       1.0  0.08950  0.90250  0.31090  1.0000 0.1433619827
H   H83       1.0  0.91050  0.09750  0.31090  1.0000 0.1433619827
H   H84       1.0  0.08950  0.09750  0.68910  1.0000 0.1433619827
H   H85       1.0  0.41050  0.18910  0.59750  1.0000 0.1433619827
H   H86       1.0  0.58950  0.81090  0.59750  1.0000 0.1433619827
H   H87       1.0  0.41050  0.81090  0.40250  1.0000 0.1433619827
H   H88       1.0  0.58950  0.18910  0.40250  1.0000 0.1433619827
H   H89       1.0  0.18910  0.40250  0.58950  1.0000 0.1433619827
H   H90       1.0  0.81090  0.40250  0.41050  1.0000 0.1433619827
H   H91       1.0  0.81090  0.59750  0.58950  1.0000 0.1433619827
H   H92       1.0  0.18910  0.59750  0.41050  1.0000 0.1433619827
H   H93       1.0  0.40250  0.41050  0.81090  1.0000 0.1433619827
H   H94       1.0  0.40250  0.58950  0.18910  1.0000 0.1433619827
H   H95       1.0  0.59750  0.41050  0.18910  1.0000 0.1433619827
H   H96       1.0  0.59750  0.58950  0.81090  1.0000 0.1433619827
H   H97       1.0  0.27460  0.00000  0.24480  1.0000 0.1289400453
H   H98       1.0  0.72540  0.00000  0.24480  1.0000 0.1289400453
H   H99       1.0  0.72540  0.00000  0.75520  1.0000 0.1289400453
H   H100      1.0  0.27460  0.00000  0.75520  1.0000 0.1289400453
H   H101      1.0  0.24480  0.27460  0.00000  1.0000 0.1289400453
H   H102      1.0  0.24480  0.72540  0.00000  1.0000 0.1289400453
H   H103      1.0  0.75520  0.72540  0.00000  1.0000 0.1289400453
H   H104      1.0  0.75520  0.27460  0.00000  1.0000 0.1289400453
H   H105      1.0  0.00000  0.24480  0.27460  1.0000 0.1289400453
H   H106      1.0  0.00000  0.24480  0.72540  1.0000 0.1289400453
H   H107      1.0  0.00000  0.75520  0.72540  1.0000 0.1289400453
H   H108      1.0  0.00000  0.75520  0.27460  1.0000 0.1289400453
H   H109      1.0  0.50000  0.77460  0.25520  1.0000 0.1289400453
H   H110      1.0  0.50000  0.22540  0.25520  1.0000 0.1289400453
H   H111      1.0  0.50000  0.22540  0.74480  1.0000 0.1289400453
H   H112      1.0  0.50000  0.77460  0.74480  1.0000 0.1289400453
H   H113      1.0  0.77460  0.74480  0.50000  1.0000 0.1289400453
H   H114      1.0  0.22540  0.74480  0.50000  1.0000 0.1289400453
H   H115      1.0  0.22540  0.25520  0.50000  1.0000 0.1289400453
H   H116      1.0  0.77460  0.25520  0.50000  1.0000 0.1289400453
H   H117      1.0  0.74480  0.50000  0.22540  1.0000 0.1289400453
H   H118      1.0  0.74480  0.50000  0.77460  1.0000 0.1289400453
H   H119      1.0  0.25520  0.50000  0.77460  1.0000 0.1289400453
H   H120      1.0  0.25520  0.50000  0.22540  1.0000 0.1289400453
C   C1        1.0  0.31870  0.00000  0.08670  1.0000 0.1145007481
C   C2        1.0  0.68130  0.00000  0.08670  1.0000 0.1145007481
C   C3        1.0  0.68130  0.00000  0.91330  1.0000 0.1145007481
C   C4        1.0  0.31870  0.00000  0.91330  1.0000 0.1145007481
C   C5        1.0  0.08670  0.31870  0.00000  1.0000 0.1145007481
C   C6        1.0  0.08670  0.68130  0.00000  1.0000 0.1145007481
C   C7        1.0  0.91330  0.68130  0.00000  1.0000 0.1145007481
C   C8        1.0  0.91330  0.31870  0.00000  1.0000 0.1145007481
C   C9        1.0  0.00000  0.08670  0.31870  1.0000 0.1145007481
C   C10       1.0  0.00000  0.08670  0.68130  1.0000 0.1145007481
C   C11       1.0  0.00000  0.91330  0.68130  1.0000 0.1145007481
C   C12       1.0  0.00000  0.91330  0.31870  1.0000 0.1145007481
C   C13       1.0  0.50000  0.81870  0.41330  1.0000 0.1145007481
C   C14       1.0  0.50000  0.18130  0.41330  1.0000 0.1145007481
C   C15       1.0  0.50000  0.18130  0.58670  1.0000 0.1145007481
C   C16       1.0  0.50000  0.81870  0.58670  1.0000 0.1145007481
C   C17       1.0  0.81870  0.58670  0.50000  1.0000 0.1145007481
C   C18       1.0  0.18130  0.58670  0.50000  1.0000 0.1145007481
C   C19       1.0  0.18130  0.41330  0.50000  1.0000 0.1145007481
C   C20       1.0  0.81870  0.41330  0.50000  1.0000 0.1145007481
C   C21       1.0  0.58670  0.50000  0.18130  1.0000 0.1145007481
C   C22       1.0  0.58670  0.50000  0.81870  1.0000 0.1145007481
C   C23       1.0  0.41330  0.50000  0.81870  1.0000 0.1145007481
C   C24       1.0  0.41330  0.50000  0.18130  1.0000 0.1145007481
C   C25       1.0  0.30850  0.05360  0.11740  1.0000 -0.1097824256
C   C26       1.0  0.69150  0.94640  0.11740  1.0000 -0.1097824256
C   C27       1.0  0.69150  0.05360  0.88260  1.0000 -0.1097824256
C   C28       1.0  0.30850  0.94640  0.88260  1.0000 -0.1097824256
C   C29       1.0  0.11740  0.30850  0.05360  1.0000 -0.1097824256
C   C30       1.0  0.11740  0.69150  0.94640  1.0000 -0.1097824256
C   C31       1.0  0.88260  0.69150  0.05360  1.0000 -0.1097824256
C   C32       1.0  0.88260  0.30850  0.94640  1.0000 -0.1097824256
C   C33       1.0  0.05360  0.11740  0.30850  1.0000 -0.1097824256
C   C34       1.0  0.94640  0.11740  0.69150  1.0000 -0.1097824256
C   C35       1.0  0.05360  0.88260  0.69150  1.0000 -0.1097824256
C   C36       1.0  0.94640  0.88260  0.30850  1.0000 -0.1097824256
C   C37       1.0  0.55360  0.80850  0.38260  1.0000 -0.1097824256
C   C38       1.0  0.44640  0.19150  0.38260  1.0000 -0.1097824256
C   C39       1.0  0.55360  0.19150  0.61740  1.0000 -0.1097824256
C   C40       1.0  0.44640  0.80850  0.61740  1.0000 -0.1097824256
C   C41       1.0  0.80850  0.61740  0.44640  1.0000 -0.1097824256
C   C42       1.0  0.19150  0.61740  0.55360  1.0000 -0.1097824256
C   C43       1.0  0.19150  0.38260  0.44640  1.0000 -0.1097824256
C   C44       1.0  0.80850  0.38260  0.55360  1.0000 -0.1097824256
C   C45       1.0  0.61740  0.55360  0.19150  1.0000 -0.1097824256
C   C46       1.0  0.61740  0.44640  0.80850  1.0000 -0.1097824256
C   C47       1.0  0.38260  0.55360  0.80850  1.0000 -0.1097824256
C   C48       1.0  0.38260  0.44640  0.19150  1.0000 -0.1097824256
C   C49       1.0  0.69150  0.94640  0.88260  1.0000 -0.1097824256
C   C50       1.0  0.30850  0.05360  0.88260  1.0000 -0.1097824256
C   C51       1.0  0.30850  0.94640  0.11740  1.0000 -0.1097824256
C   C52       1.0  0.69150  0.05360  0.11740  1.0000 -0.1097824256
C   C53       1.0  0.88260  0.69150  0.94640  1.0000 -0.1097824256
C   C54       1.0  0.88260  0.30850  0.05360  1.0000 -0.1097824256
C   C55       1.0  0.11740  0.30850  0.94640  1.0000 -0.1097824256
C   C56       1.0  0.11740  0.69150  0.05360  1.0000 -0.1097824256
C   C57       1.0  0.94640  0.88260  0.69150  1.0000 -0.1097824256
C   C58       1.0  0.05360  0.88260  0.30850  1.0000 -0.1097824256
C   C59       1.0  0.94640  0.11740  0.30850  1.0000 -0.1097824256
C   C60       1.0  0.05360  0.11740  0.69150  1.0000 -0.1097824256
C   C61       1.0  0.44640  0.19150  0.61740  1.0000 -0.1097824256
C   C62       1.0  0.55360  0.80850  0.61740  1.0000 -0.1097824256
C   C63       1.0  0.44640  0.80850  0.38260  1.0000 -0.1097824256
C   C64       1.0  0.55360  0.19150  0.38260  1.0000 -0.1097824256
C   C65       1.0  0.19150  0.38260  0.55360  1.0000 -0.1097824256
C   C66       1.0  0.80850  0.38260  0.44640  1.0000 -0.1097824256
C   C67       1.0  0.80850  0.61740  0.55360  1.0000 -0.1097824256
C   C68       1.0  0.19150  0.61740  0.44640  1.0000 -0.1097824256
C   C69       1.0  0.38260  0.44640  0.80850  1.0000 -0.1097824256
C   C70       1.0  0.38260  0.55360  0.19150  1.0000 -0.1097824256
C   C71       1.0  0.61740  0.44640  0.19150  1.0000 -0.1097824256
C   C72       1.0  0.61740  0.55360  0.80850  1.0000 -0.1097824256
C   C73       1.0  0.29560  0.05250  0.17510  1.0000 -0.0013249766
C   C74       1.0  0.70440  0.94750  0.17510  1.0000 -0.0013249766
C   C75       1.0  0.70440  0.05250  0.82490  1.0000 -0.0013249766
C   C76       1.0  0.29560  0.94750  0.82490  1.0000 -0.0013249766
C   C77       1.0  0.17510  0.29560  0.05250  1.0000 -0.0013249766
C   C78       1.0  0.17510  0.70440  0.94750  1.0000 -0.0013249766
C   C79       1.0  0.82490  0.70440  0.05250  1.0000 -0.0013249766
C   C80       1.0  0.82490  0.29560  0.94750  1.0000 -0.0013249766
C   C81       1.0  0.05250  0.17510  0.29560  1.0000 -0.0013249766
C   C82       1.0  0.94750  0.17510  0.70440  1.0000 -0.0013249766
C   C83       1.0  0.05250  0.82490  0.70440  1.0000 -0.0013249766
C   C84       1.0  0.94750  0.82490  0.29560  1.0000 -0.0013249766
C   C85       1.0  0.55250  0.79560  0.32490  1.0000 -0.0013249766
C   C86       1.0  0.44750  0.20440  0.32490  1.0000 -0.0013249766
C   C87       1.0  0.55250  0.20440  0.67510  1.0000 -0.0013249766
C   C88       1.0  0.44750  0.79560  0.67510  1.0000 -0.0013249766
C   C89       1.0  0.79560  0.67510  0.44750  1.0000 -0.0013249766
C   C90       1.0  0.20440  0.67510  0.55250  1.0000 -0.0013249766
C   C91       1.0  0.20440  0.32490  0.44750  1.0000 -0.0013249766
C   C92       1.0  0.79560  0.32490  0.55250  1.0000 -0.0013249766
C   C93       1.0  0.67510  0.55250  0.20440  1.0000 -0.0013249766
C   C94       1.0  0.67510  0.44750  0.79560  1.0000 -0.0013249766
C   C95       1.0  0.32490  0.55250  0.79560  1.0000 -0.0013249766
C   C96       1.0  0.32490  0.44750  0.20440  1.0000 -0.0013249766
C   C97       1.0  0.70440  0.94750  0.82490  1.0000 -0.0013249766
C   C98       1.0  0.29560  0.05250  0.82490  1.0000 -0.0013249766
C   C99       1.0  0.29560  0.94750  0.17510  1.0000 -0.0013249766
C   C100      1.0  0.70440  0.05250  0.17510  1.0000 -0.0013249766
C   C101      1.0  0.82490  0.70440  0.94750  1.0000 -0.0013249766
C   C102      1.0  0.82490  0.29560  0.05250  1.0000 -0.0013249766
C   C103      1.0  0.17510  0.29560  0.94750  1.0000 -0.0013249766
C   C104      1.0  0.17510  0.70440  0.05250  1.0000 -0.0013249766
C   C105      1.0  0.94750  0.82490  0.70440  1.0000 -0.0013249766
C   C106      1.0  0.05250  0.82490  0.29560  1.0000 -0.0013249766
C   C107      1.0  0.94750  0.17510  0.29560  1.0000 -0.0013249766
C   C108      1.0  0.05250  0.17510  0.70440  1.0000 -0.0013249766
C   C109      1.0  0.44750  0.20440  0.67510  1.0000 -0.0013249766
C   C110      1.0  0.55250  0.79560  0.67510  1.0000 -0.0013249766
C   C111      1.0  0.44750  0.79560  0.32490  1.0000 -0.0013249766
C   C112      1.0  0.55250  0.20440  0.32490  1.0000 -0.0013249766
C   C113      1.0  0.20440  0.32490  0.55250  1.0000 -0.0013249766
C   C114      1.0  0.79560  0.32490  0.44750  1.0000 -0.0013249766
C   C115      1.0  0.79560  0.67510  0.55250  1.0000 -0.0013249766
C   C116      1.0  0.20440  0.67510  0.44750  1.0000 -0.0013249766
C   C117      1.0  0.32490  0.44750  0.79560  1.0000 -0.0013249766
C   C118      1.0  0.32490  0.55250  0.20440  1.0000 -0.0013249766
C   C119      1.0  0.67510  0.44750  0.20440  1.0000 -0.0013249766
C   C120      1.0  0.67510  0.55250  0.79560  1.0000 -0.0013249766
C   C121      1.0  0.28650  0.00000  0.20550  1.0000 -0.0853999473
C   C122      1.0  0.71350  0.00000  0.20550  1.0000 -0.0853999473
C   C123      1.0  0.71350  0.00000  0.79450  1.0000 -0.0853999473
C   C124      1.0  0.28650  0.00000  0.79450  1.0000 -0.0853999473
C   C125      1.0  0.20550  0.28650  0.00000  1.0000 -0.0853999473
C   C126      1.0  0.20550  0.71350  0.00000  1.0000 -0.0853999473
C   C127      1.0  0.79450  0.71350  0.00000  1.0000 -0.0853999473
C   C128      1.0  0.79450  0.28650  0.00000  1.0000 -0.0853999473
C   C129      1.0  0.00000  0.20550  0.28650  1.0000 -0.0853999473
C   C130      1.0  0.00000  0.20550  0.71350  1.0000 -0.0853999473
C   C131      1.0  0.00000  0.79450  0.71350  1.0000 -0.0853999473
C   C132      1.0  0.00000  0.79450  0.28650  1.0000 -0.0853999473
C   C133      1.0  0.50000  0.78650  0.29450  1.0000 -0.0853999473
C   C134      1.0  0.50000  0.21350  0.29450  1.0000 -0.0853999473
C   C135      1.0  0.50000  0.21350  0.70550  1.0000 -0.0853999473
C   C136      1.0  0.50000  0.78650  0.70550  1.0000 -0.0853999473
C   C137      1.0  0.78650  0.70550  0.50000  1.0000 -0.0853999473
C   C138      1.0  0.21350  0.70550  0.50000  1.0000 -0.0853999473
C   C139      1.0  0.21350  0.29450  0.50000  1.0000 -0.0853999473
C   C140      1.0  0.78650  0.29450  0.50000  1.0000 -0.0853999473
C   C141      1.0  0.70550  0.50000  0.21350  1.0000 -0.0853999473
C   C142      1.0  0.70550  0.50000  0.78650  1.0000 -0.0853999473
C   C143      1.0  0.29450  0.50000  0.78650  1.0000 -0.0853999473
C   C144      1.0  0.29450  0.50000  0.21350  1.0000 -0.0853999473
C   C145      1.0  0.33070  0.00000  0.02560  1.0000 -0.0633669488
C   C146      1.0  0.66930  0.00000  0.02560  1.0000 -0.0633669488
C   C147      1.0  0.66930  0.00000  0.97440  1.0000 -0.0633669488
C   C148      1.0  0.33070  0.00000  0.97440  1.0000 -0.0633669488
C   C149      1.0  0.02560  0.33070  0.00000  1.0000 -0.0633669488
C   C150      1.0  0.02560  0.66930  0.00000  1.0000 -0.0633669488
C   C151      1.0  0.97440  0.66930  0.00000  1.0000 -0.0633669488
C   C152      1.0  0.97440  0.33070  0.00000  1.0000 -0.0633669488
C   C153      1.0  0.00000  0.02560  0.33070  1.0000 -0.0633669488
C   C154      1.0  0.00000  0.02560  0.66930  1.0000 -0.0633669488
C   C155      1.0  0.00000  0.97440  0.66930  1.0000 -0.0633669488
C   C156      1.0  0.00000  0.97440  0.33070  1.0000 -0.0633669488
C   C157      1.0  0.50000  0.83070  0.47440  1.0000 -0.0633669488
C   C158      1.0  0.50000  0.16930  0.47440  1.0000 -0.0633669488
C   C159      1.0  0.50000  0.16930  0.52560  1.0000 -0.0633669488
C   C160      1.0  0.50000  0.83070  0.52560  1.0000 -0.0633669488
C   C161      1.0  0.83070  0.52560  0.50000  1.0000 -0.0633669488
C   C162      1.0  0.16930  0.52560  0.50000  1.0000 -0.0633669488
C   C163      1.0  0.16930  0.47440  0.50000  1.0000 -0.0633669488
C   C164      1.0  0.83070  0.47440  0.50000  1.0000 -0.0633669488
C   C165      1.0  0.52560  0.50000  0.16930  1.0000 -0.0633669488
C   C166      1.0  0.52560  0.50000  0.83070  1.0000 -0.0633669488
C   C167      1.0  0.47440  0.50000  0.83070  1.0000 -0.0633669488
C   C168      1.0  0.47440  0.50000  0.16930  1.0000 -0.0633669488
C   C169      1.0  0.28640  0.11120  0.20640  1.0000 0.6276159704
C   C170      1.0  0.71360  0.88880  0.20640  1.0000 0.6276159704
C   C171      1.0  0.71360  0.11120  0.79360  1.0000 0.6276159704
C   C172      1.0  0.28640  0.88880  0.79360  1.0000 0.6276159704
C   C173      1.0  0.20640  0.28640  0.11120  1.0000 0.6276159704
C   C174      1.0  0.20640  0.71360  0.88880  1.0000 0.6276159704
C   C175      1.0  0.79360  0.71360  0.11120  1.0000 0.6276159704
C   C176      1.0  0.79360  0.28640  0.88880  1.0000 0.6276159704
C   C177      1.0  0.11120  0.20640  0.28640  1.0000 0.6276159704
C   C178      1.0  0.88880  0.20640  0.71360  1.0000 0.6276159704
C   C179      1.0  0.11120  0.79360  0.71360  1.0000 0.6276159704
C   C180      1.0  0.88880  0.79360  0.28640  1.0000 0.6276159704
C   C181      1.0  0.61120  0.78640  0.29360  1.0000 0.6276159704
C   C182      1.0  0.38880  0.21360  0.29360  1.0000 0.6276159704
C   C183      1.0  0.61120  0.21360  0.70640  1.0000 0.6276159704
C   C184      1.0  0.38880  0.78640  0.70640  1.0000 0.6276159704
C   C185      1.0  0.78640  0.70640  0.38880  1.0000 0.6276159704
C   C186      1.0  0.21360  0.70640  0.61120  1.0000 0.6276159704
C   C187      1.0  0.21360  0.29360  0.38880  1.0000 0.6276159704
C   C188      1.0  0.78640  0.29360  0.61120  1.0000 0.6276159704
C   C189      1.0  0.70640  0.61120  0.21360  1.0000 0.6276159704
C   C190      1.0  0.70640  0.38880  0.78640  1.0000 0.6276159704
C   C191      1.0  0.29360  0.61120  0.78640  1.0000 0.6276159704
C   C192      1.0  0.29360  0.38880  0.21360  1.0000 0.6276159704
C   C193      1.0  0.71360  0.88880  0.79360  1.0000 0.6276159704
C   C194      1.0  0.28640  0.11120  0.79360  1.0000 0.6276159704
C   C195      1.0  0.28640  0.88880  0.20640  1.0000 0.6276159704
C   C196      1.0  0.71360  0.11120  0.20640  1.0000 0.6276159704
C   C197      1.0  0.79360  0.71360  0.88880  1.0000 0.6276159704
C   C198      1.0  0.79360  0.28640  0.11120  1.0000 0.6276159704
C   C199      1.0  0.20640  0.28640  0.88880  1.0000 0.6276159704
C   C200      1.0  0.20640  0.71360  0.11120  1.0000 0.6276159704
C   C201      1.0  0.88880  0.79360  0.71360  1.0000 0.6276159704
C   C202      1.0  0.11120  0.79360  0.28640  1.0000 0.6276159704
C   C203      1.0  0.88880  0.20640  0.28640  1.0000 0.6276159704
C   C204      1.0  0.11120  0.20640  0.71360  1.0000 0.6276159704
C   C205      1.0  0.38880  0.21360  0.70640  1.0000 0.6276159704
C   C206      1.0  0.61120  0.78640  0.70640  1.0000 0.6276159704
C   C207      1.0  0.38880  0.78640  0.29360  1.0000 0.6276159704
C   C208      1.0  0.61120  0.21360  0.29360  1.0000 0.6276159704
C   C209      1.0  0.21360  0.29360  0.61120  1.0000 0.6276159704
C   C210      1.0  0.78640  0.29360  0.38880  1.0000 0.6276159704
C   C211      1.0  0.78640  0.70640  0.61120  1.0000 0.6276159704
C   C212      1.0  0.21360  0.70640  0.38880  1.0000 0.6276159704
C   C213      1.0  0.29360  0.38880  0.78640  1.0000 0.6276159704
C   C214      1.0  0.29360  0.61120  0.21360  1.0000 0.6276159704
C   C215      1.0  0.70640  0.38880  0.21360  1.0000 0.6276159704
C   C216      1.0  0.70640  0.61120  0.78640  1.0000 0.6276159704
N   N1        1.0  0.15590  0.50000  0.11700  1.0000 0.6713610038
N   N2        1.0  0.15590  0.50000  0.88300  1.0000 0.6713610038
N   N3        1.0  0.84410  0.50000  0.88300  1.0000 0.6713610038
N   N4        1.0  0.84410  0.50000  0.11700  1.0000 0.6713610038
N   N5        1.0  0.88300  0.15590  0.50000  1.0000 0.6713610038
N   N6        1.0  0.11700  0.15590  0.50000  1.0000 0.6713610038
N   N7        1.0  0.11700  0.84410  0.50000  1.0000 0.6713610038
N   N8        1.0  0.88300  0.84410  0.50000  1.0000 0.6713610038
N   N9        1.0  0.50000  0.88300  0.84410  1.0000 0.6713610038
N   N10       1.0  0.50000  0.11700  0.84410  1.0000 0.6713610038
N   N11       1.0  0.50000  0.11700  0.15590  1.0000 0.6713610038
N   N12       1.0  0.50000  0.88300  0.15590  1.0000 0.6713610038
N   N13       1.0  0.00000  0.65590  0.38300  1.0000 0.6713610038
N   N14       1.0  0.00000  0.65590  0.61700  1.0000 0.6713610038
N   N15       1.0  0.00000  0.34410  0.61700  1.0000 0.6713610038
N   N16       1.0  0.00000  0.34410  0.38300  1.0000 0.6713610038
N   N17       1.0  0.65590  0.38300  0.00000  1.0000 0.6713610038
N   N18       1.0  0.65590  0.61700  0.00000  1.0000 0.6713610038
N   N19       1.0  0.34410  0.61700  0.00000  1.0000 0.6713610038
N   N20       1.0  0.34410  0.38300  0.00000  1.0000 0.6713610038
N   N21       1.0  0.38300  0.00000  0.65590  1.0000 0.6713610038
N   N22       1.0  0.61700  0.00000  0.65590  1.0000 0.6713610038
N   N23       1.0  0.61700  0.00000  0.34410  1.0000 0.6713610038
N   N24       1.0  0.38300  0.00000  0.34410  1.0000 0.6713610038
O   O1        1.0  0.26490  0.11320  0.25490  1.0000 -0.5105397061
O   O2        1.0  0.73510  0.88680  0.25490  1.0000 -0.5105397061
O   O3        1.0  0.73510  0.11320  0.74510  1.0000 -0.5105397061
O   O4        1.0  0.26490  0.88680  0.74510  1.0000 -0.5105397061
O   O5        1.0  0.25490  0.26490  0.11320  1.0000 -0.5105397061
O   O6        1.0  0.25490  0.73510  0.88680  1.0000 -0.5105397061
O   O7        1.0  0.74510  0.73510  0.11320  1.0000 -0.5105397061
O   O8        1.0  0.74510  0.26490  0.88680  1.0000 -0.5105397061
O   O9        1.0  0.11320  0.25490  0.26490  1.0000 -0.5105397061
O   O10       1.0  0.88680  0.25490  0.73510  1.0000 -0.5105397061
O   O11       1.0  0.11320  0.74510  0.73510  1.0000 -0.5105397061
O   O12       1.0  0.88680  0.74510  0.26490  1.0000 -0.5105397061
O   O13       1.0  0.61320  0.76490  0.24510  1.0000 -0.5105397061
O   O14       1.0  0.38680  0.23510  0.24510  1.0000 -0.5105397061
O   O15       1.0  0.61320  0.23510  0.75490  1.0000 -0.5105397061
O   O16       1.0  0.38680  0.76490  0.75490  1.0000 -0.5105397061
O   O17       1.0  0.76490  0.75490  0.38680  1.0000 -0.5105397061
O   O18       1.0  0.23510  0.75490  0.61320  1.0000 -0.5105397061
O   O19       1.0  0.23510  0.24510  0.38680  1.0000 -0.5105397061
O   O20       1.0  0.76490  0.24510  0.61320  1.0000 -0.5105397061
O   O21       1.0  0.75490  0.61320  0.23510  1.0000 -0.5105397061
O   O22       1.0  0.75490  0.38680  0.76490  1.0000 -0.5105397061
O   O23       1.0  0.24510  0.61320  0.76490  1.0000 -0.5105397061
O   O24       1.0  0.24510  0.38680  0.23510  1.0000 -0.5105397061
O   O25       1.0  0.73510  0.88680  0.74510  1.0000 -0.5105397061
O   O26       1.0  0.26490  0.11320  0.74510  1.0000 -0.5105397061
O   O27       1.0  0.26490  0.88680  0.25490  1.0000 -0.5105397061
O   O28       1.0  0.73510  0.11320  0.25490  1.0000 -0.5105397061
O   O29       1.0  0.74510  0.73510  0.88680  1.0000 -0.5105397061
O   O30       1.0  0.74510  0.26490  0.11320  1.0000 -0.5105397061
O   O31       1.0  0.25490  0.26490  0.88680  1.0000 -0.5105397061
O   O32       1.0  0.25490  0.73510  0.11320  1.0000 -0.5105397061
O   O33       1.0  0.88680  0.74510  0.73510  1.0000 -0.5105397061
O   O34       1.0  0.11320  0.74510  0.26490  1.0000 -0.5105397061
O   O35       1.0  0.88680  0.25490  0.26490  1.0000 -0.5105397061
O   O36       1.0  0.11320  0.25490  0.73510  1.0000 -0.5105397061
O   O37       1.0  0.38680  0.23510  0.75490  1.0000 -0.5105397061
O   O38       1.0  0.61320  0.76490  0.75490  1.0000 -0.5105397061
O   O39       1.0  0.38680  0.76490  0.24510  1.0000 -0.5105397061
O   O40       1.0  0.61320  0.23510  0.24510  1.0000 -0.5105397061
O   O41       1.0  0.23510  0.24510  0.61320  1.0000 -0.5105397061
O   O42       1.0  0.76490  0.24510  0.38680  1.0000 -0.5105397061
O   O43       1.0  0.76490  0.75490  0.61320  1.0000 -0.5105397061
O   O44       1.0  0.23510  0.75490  0.38680  1.0000 -0.5105397061
O   O45       1.0  0.24510  0.38680  0.76490  1.0000 -0.5105397061
O   O46       1.0  0.24510  0.61320  0.23510  1.0000 -0.5105397061
O   O47       1.0  0.75490  0.38680  0.23510  1.0000 -0.5105397061
O   O48       1.0  0.75490  0.61320  0.76490  1.0000 -0.5105397061
O   O49       1.0  0.30590  0.15630  0.17420  1.0000 -0.6006282151
O   O50       1.0  0.69410  0.84370  0.17420  1.0000 -0.6006282151
O   O51       1.0  0.69410  0.15630  0.82580  1.0000 -0.6006282151
O   O52       1.0  0.30590  0.84370  0.82580  1.0000 -0.6006282151
O   O53       1.0  0.17420  0.30590  0.15630  1.0000 -0.6006282151
O   O54       1.0  0.17420  0.69410  0.84370  1.0000 -0.6006282151
O   O55       1.0  0.82580  0.69410  0.15630  1.0000 -0.6006282151
O   O56       1.0  0.82580  0.30590  0.84370  1.0000 -0.6006282151
O   O57       1.0  0.15630  0.17420  0.30590  1.0000 -0.6006282151
O   O58       1.0  0.84370  0.17420  0.69410  1.0000 -0.6006282151
O   O59       1.0  0.15630  0.82580  0.69410  1.0000 -0.6006282151
O   O60       1.0  0.84370  0.82580  0.30590  1.0000 -0.6006282151
O   O61       1.0  0.65630  0.80590  0.32580  1.0000 -0.6006282151
O   O62       1.0  0.34370  0.19410  0.32580  1.0000 -0.6006282151
O   O63       1.0  0.65630  0.19410  0.67420  1.0000 -0.6006282151
O   O64       1.0  0.34370  0.80590  0.67420  1.0000 -0.6006282151
O   O65       1.0  0.80590  0.67420  0.34370  1.0000 -0.6006282151
O   O66       1.0  0.19410  0.67420  0.65630  1.0000 -0.6006282151
O   O67       1.0  0.19410  0.32580  0.34370  1.0000 -0.6006282151
O   O68       1.0  0.80590  0.32580  0.65630  1.0000 -0.6006282151
O   O69       1.0  0.67420  0.65630  0.19410  1.0000 -0.6006282151
O   O70       1.0  0.67420  0.34370  0.80590  1.0000 -0.6006282151
O   O71       1.0  0.32580  0.65630  0.80590  1.0000 -0.6006282151
O   O72       1.0  0.32580  0.34370  0.19410  1.0000 -0.6006282151
O   O73       1.0  0.69410  0.84370  0.82580  1.0000 -0.6006282151
O   O74       1.0  0.30590  0.15630  0.82580  1.0000 -0.6006282151
O   O75       1.0  0.30590  0.84370  0.17420  1.0000 -0.6006282151
O   O76       1.0  0.69410  0.15630  0.17420  1.0000 -0.6006282151
O   O77       1.0  0.82580  0.69410  0.84370  1.0000 -0.6006282151
O   O78       1.0  0.82580  0.30590  0.15630  1.0000 -0.6006282151
O   O79       1.0  0.17420  0.30590  0.84370  1.0000 -0.6006282151
O   O80       1.0  0.17420  0.69410  0.15630  1.0000 -0.6006282151
O   O81       1.0  0.84370  0.82580  0.69410  1.0000 -0.6006282151
O   O82       1.0  0.15630  0.82580  0.30590  1.0000 -0.6006282151
O   O83       1.0  0.84370  0.17420  0.30590  1.0000 -0.6006282151
O   O84       1.0  0.15630  0.17420  0.69410  1.0000 -0.6006282151
O   O85       1.0  0.34370  0.19410  0.67420  1.0000 -0.6006282151
O   O86       1.0  0.65630  0.80590  0.67420  1.0000 -0.6006282151
O   O87       1.0  0.34370  0.80590  0.32580  1.0000 -0.6006282151
O   O88       1.0  0.65630  0.19410  0.32580  1.0000 -0.6006282151
O   O89       1.0  0.19410  0.32580  0.65630  1.0000 -0.6006282151
O   O90       1.0  0.80590  0.32580  0.34370  1.0000 -0.6006282151
O   O91       1.0  0.80590  0.67420  0.65630  1.0000 -0.6006282151
O   O92       1.0  0.19410  0.67420  0.34370  1.0000 -0.6006282151
O   O93       1.0  0.32580  0.34370  0.80590  1.0000 -0.6006282151
O   O94       1.0  0.32580  0.65630  0.19410  1.0000 -0.6006282151
O   O95       1.0  0.67420  0.34370  0.19410  1.0000 -0.6006282151
O   O96       1.0  0.67420  0.65630  0.80590  1.0000 -0.6006282151
O   O97       1.0  0.25000  0.25000  0.25000  1.0000 -1.042895335
O   O98       1.0  0.75000  0.75000  0.25000  1.0000 -1.042895335
O   O99       1.0  0.75000  0.25000  0.75000  1.0000 -1.042895335
O   O100      1.0  0.25000  0.75000  0.75000  1.0000 -1.042895335
O   O101      1.0  0.75000  0.75000  0.75000  1.0000 -1.042895335
O   O102      1.0  0.25000  0.25000  0.75000  1.0000 -1.042895335
O   O103      1.0  0.25000  0.75000  0.25000  1.0000 -1.042895335
O   O104      1.0  0.75000  0.25000  0.25000  1.0000 -1.042895335
O   O105      1.0  0.25000  0.11870  0.38130  1.0000 -0.5692946196
O   O106      1.0  0.75000  0.88130  0.38130  1.0000 -0.5692946196
O   O107      1.0  0.75000  0.11870  0.61870  1.0000 -0.5692946196
O   O108      1.0  0.25000  0.88130  0.61870  1.0000 -0.5692946196
O   O109      1.0  0.38130  0.25000  0.11870  1.0000 -0.5692946196
O   O110      1.0  0.38130  0.75000  0.88130  1.0000 -0.5692946196
O   O111      1.0  0.61870  0.75000  0.11870  1.0000 -0.5692946196
O   O112      1.0  0.61870  0.25000  0.88130  1.0000 -0.5692946196
O   O113      1.0  0.11870  0.38130  0.25000  1.0000 -0.5692946196
O   O114      1.0  0.88130  0.38130  0.75000  1.0000 -0.5692946196
O   O115      1.0  0.11870  0.61870  0.75000  1.0000 -0.5692946196
O   O116      1.0  0.88130  0.61870  0.25000  1.0000 -0.5692946196
O   O117      1.0  0.75000  0.88130  0.61870  1.0000 -0.5692946196
O   O118      1.0  0.25000  0.11870  0.61870  1.0000 -0.5692946196
O   O119      1.0  0.25000  0.88130  0.38130  1.0000 -0.5692946196
O   O120      1.0  0.75000  0.11870  0.38130  1.0000 -0.5692946196
O   O121      1.0  0.61870  0.75000  0.88130  1.0000 -0.5692946196
O   O122      1.0  0.61870  0.25000  0.11870  1.0000 -0.5692946196
O   O123      1.0  0.38130  0.25000  0.88130  1.0000 -0.5692946196
O   O124      1.0  0.38130  0.75000  0.11870  1.0000 -0.5692946196
O   O125      1.0  0.88130  0.61870  0.75000  1.0000 -0.5692946196
O   O126      1.0  0.11870  0.61870  0.25000  1.0000 -0.5692946196
O   O127      1.0  0.88130  0.38130  0.25000  1.0000 -0.5692946196
O   O128      1.0  0.11870  0.38130  0.75000  1.0000 -0.5692946196
O   O129      1.0  0.10600  0.50000  0.14000  1.0000 -0.3879393526
O   O130      1.0  0.18080  0.45270  0.10600  1.0000 -0.3879393526
O   O131      1.0  0.18080  0.54730  0.10600  1.0000 -0.3879393526
O   O132      1.0  0.10600  0.50000  0.86000  1.0000 -0.3879393526
O   O133      1.0  0.18080  0.54730  0.89400  1.0000 -0.3879393526
O   O134      1.0  0.18080  0.45270  0.89400  1.0000 -0.3879393526
O   O135      1.0  0.89400  0.50000  0.86000  1.0000 -0.3879393526
O   O136      1.0  0.81920  0.45270  0.89400  1.0000 -0.3879393526
O   O137      1.0  0.81920  0.54730  0.89400  1.0000 -0.3879393526
O   O138      1.0  0.89400  0.50000  0.14000  1.0000 -0.3879393526
O   O139      1.0  0.81920  0.54730  0.10600  1.0000 -0.3879393526
O   O140      1.0  0.81920  0.45270  0.10600  1.0000 -0.3879393526
O   O141      1.0  0.86000  0.10600  0.50000  1.0000 -0.3879393526
O   O142      1.0  0.89400  0.18080  0.54730  1.0000 -0.3879393526
O   O143      1.0  0.89400  0.18080  0.45270  1.0000 -0.3879393526
O   O144      1.0  0.14000  0.10600  0.50000  1.0000 -0.3879393526
O   O145      1.0  0.10600  0.18080  0.45270  1.0000 -0.3879393526
O   O146      1.0  0.10600  0.18080  0.54730  1.0000 -0.3879393526
O   O147      1.0  0.14000  0.89400  0.50000  1.0000 -0.3879393526
O   O148      1.0  0.10600  0.81920  0.54730  1.0000 -0.3879393526
O   O149      1.0  0.10600  0.81920  0.45270  1.0000 -0.3879393526
O   O150      1.0  0.86000  0.89400  0.50000  1.0000 -0.3879393526
O   O151      1.0  0.89400  0.81920  0.45270  1.0000 -0.3879393526
O   O152      1.0  0.89400  0.81920  0.54730  1.0000 -0.3879393526
O   O153      1.0  0.50000  0.86000  0.89400  1.0000 -0.3879393526
O   O154      1.0  0.45270  0.89400  0.81920  1.0000 -0.3879393526
O   O155      1.0  0.54730  0.89400  0.81920  1.0000 -0.3879393526
O   O156      1.0  0.50000  0.14000  0.89400  1.0000 -0.3879393526
O   O157      1.0  0.54730  0.10600  0.81920  1.0000 -0.3879393526
O   O158      1.0  0.45270  0.10600  0.81920  1.0000 -0.3879393526
O   O159      1.0  0.50000  0.14000  0.10600  1.0000 -0.3879393526
O   O160      1.0  0.45270  0.10600  0.18080  1.0000 -0.3879393526
O   O161      1.0  0.54730  0.10600  0.18080  1.0000 -0.3879393526
O   O162      1.0  0.50000  0.86000  0.10600  1.0000 -0.3879393526
O   O163      1.0  0.54730  0.89400  0.18080  1.0000 -0.3879393526
O   O164      1.0  0.45270  0.89400  0.18080  1.0000 -0.3879393526
O   O165      1.0  0.00000  0.60600  0.36000  1.0000 -0.3879393526
O   O166      1.0  0.95270  0.68080  0.39400  1.0000 -0.3879393526
O   O167      1.0  0.04730  0.68080  0.39400  1.0000 -0.3879393526
O   O168      1.0  0.00000  0.60600  0.64000  1.0000 -0.3879393526
O   O169      1.0  0.04730  0.68080  0.60600  1.0000 -0.3879393526
O   O170      1.0  0.95270  0.68080  0.60600  1.0000 -0.3879393526
O   O171      1.0  0.00000  0.39400  0.64000  1.0000 -0.3879393526
O   O172      1.0  0.95270  0.31920  0.60600  1.0000 -0.3879393526
O   O173      1.0  0.04730  0.31920  0.60600  1.0000 -0.3879393526
O   O174      1.0  0.00000  0.39400  0.36000  1.0000 -0.3879393526
O   O175      1.0  0.04730  0.31920  0.39400  1.0000 -0.3879393526
O   O176      1.0  0.95270  0.31920  0.39400  1.0000 -0.3879393526
O   O177      1.0  0.60600  0.36000  0.00000  1.0000 -0.3879393526
O   O178      1.0  0.68080  0.39400  0.95270  1.0000 -0.3879393526
O   O179      1.0  0.68080  0.39400  0.04730  1.0000 -0.3879393526
O   O180      1.0  0.60600  0.64000  0.00000  1.0000 -0.3879393526
O   O181      1.0  0.68080  0.60600  0.04730  1.0000 -0.3879393526
O   O182      1.0  0.68080  0.60600  0.95270  1.0000 -0.3879393526
O   O183      1.0  0.39400  0.64000  0.00000  1.0000 -0.3879393526
O   O184      1.0  0.31920  0.60600  0.95270  1.0000 -0.3879393526
O   O185      1.0  0.31920  0.60600  0.04730  1.0000 -0.3879393526
O   O186      1.0  0.39400  0.36000  0.00000  1.0000 -0.3879393526
O   O187      1.0  0.31920  0.39400  0.04730  1.0000 -0.3879393526
O   O188      1.0  0.31920  0.39400  0.95270  1.0000 -0.3879393526
O   O189      1.0  0.36000  0.00000  0.60600  1.0000 -0.3879393526
O   O190      1.0  0.39400  0.95270  0.68080  1.0000 -0.3879393526
O   O191      1.0  0.39400  0.04730  0.68080  1.0000 -0.3879393526
O   O192      1.0  0.64000  0.00000  0.60600  1.0000 -0.3879393526
O   O193      1.0  0.60600  0.04730  0.68080  1.0000 -0.3879393526
O   O194      1.0  0.60600  0.95270  0.68080  1.0000 -0.3879393526
O   O195      1.0  0.64000  0.00000  0.39400  1.0000 -0.3879393526
O   O196      1.0  0.60600  0.95270  0.31920  1.0000 -0.3879393526
O   O197      1.0  0.60600  0.04730  0.31920  1.0000 -0.3879393526
O   O198      1.0  0.36000  0.00000  0.39400  1.0000 -0.3879393526
O   O199      1.0  0.39400  0.04730  0.31920  1.0000 -0.3879393526
O   O200      1.0  0.39400  0.95270  0.31920  1.0000 -0.3879393526
