# DDEC6 charges by PACMAN v1.1 (https://github.com/mtap-research/PACMAN-charge/)
data_2017[Ag][srs]3[ION]23
_chemical_formula_sum              "Ag6 H108 C144 N40 Cl18 O24"
_cell_length_a       18.4921
_cell_length_b       18.4921
_cell_length_c       18.4921
_cell_angle_alpha    109.471
_cell_angle_beta     109.471
_cell_angle_gamma    109.471

_symmetry_space_group_name_H-M    "P 1"
_symmetry_Int_Tables_number       1

loop_
  _symmetry_equiv_pos_as_xyz
  'x, y, z'

loop_
  _atom_site_type_symbol
  _atom_site_label
  _atom_site_symmetry_multiplicity
  _atom_site_fract_x
  _atom_site_fract_y
  _atom_site_fract_z
  _atom_site_occupancy
  _atom_site_charge
Ag  Ag1       1.0  0.25000  0.53955  0.28955  1.0000 0.3064289741
Ag  Ag2       1.0  0.75000  0.96045  0.21045  1.0000 0.3064289741
Ag  Ag3       1.0  0.96045  0.21045  0.75000  1.0000 0.3064289741
Ag  Ag4       1.0  0.53955  0.28955  0.25000  1.0000 0.3064289741
Ag  Ag5       1.0  0.28955  0.25000  0.53955  1.0000 0.3064289741
Ag  Ag6       1.0  0.21045  0.75000  0.96045  1.0000 0.3064289741
H   H1        1.0  0.04600  0.46070  0.39790  1.0000 0.1291283405
H   H2        1.0  0.17990  0.50820  0.39870  1.0000 0.1111604648
H   H3        1.0  0.27900  0.74440  0.60760  1.0000 0.1291283405
H   H4        1.0  0.14640  0.69950  0.60550  1.0000 0.1232011693
H   H5        1.0  0.37920  0.71450  0.56350  1.0000 0.1111604648
H   H6        1.0  0.58830  0.70460  0.49290  1.0000 0.1544491999
H   H7        1.0  0.62410  0.66680  0.38170  1.0000 0.1111604648
H   H8        1.0  0.51460  0.58520  0.23460  1.0000 0.1291283405
H   H9        1.0  0.47220  0.70280  0.52360  1.0000 0.2803494808
H   H10       1.0  0.56280  0.64810  0.10210  1.0000 0.1291283405
H   H11       1.0  0.60950  0.78120  0.10130  1.0000 0.1111604648
H   H12       1.0  0.63680  0.67140  0.89240  1.0000 0.1291283405
H   H13       1.0  0.59400  0.54090  0.89450  1.0000 0.1232011693
H   H14       1.0  0.65100  0.81570  0.93650  1.0000 0.1111604648
H   H15       1.0  0.71170  0.09540  0.00710  1.0000 0.1544491999
H   H16       1.0  0.78510  0.24240  0.11830  1.0000 0.1111604648
H   H17       1.0  0.85060  0.28000  0.26540  1.0000 0.1291283405
H   H18       1.0  0.67920  0.94860  0.97640  1.0000 0.2803494808
H   H19       1.0  0.45400  0.85190  0.41470  1.0000 0.1291283405
H   H20       1.0  0.32010  0.71880  0.32830  1.0000 0.1111604648
H   H21       1.0  0.22100  0.82860  0.46540  1.0000 0.1291283405
H   H22       1.0  0.35360  0.95910  0.55310  1.0000 0.1232011693
H   H23       1.0  0.12080  0.68430  0.33530  1.0000 0.1111604648
H   H24       1.0  0.91170  0.40460  0.11630  1.0000 0.1544491999
H   H25       1.0  0.87590  0.25760  0.04270  1.0000 0.1111604648
H   H26       1.0  0.98540  0.22000  0.07060  1.0000 0.1291283405
H   H27       1.0  0.02780  0.55140  0.23060  1.0000 0.2803494808
H   H28       1.0  0.93720  0.03930  0.08530  1.0000 0.1291283405
H   H29       1.0  0.89050  0.99180  0.17170  1.0000 0.1111604648
H   H30       1.0  0.86320  0.75560  0.03460  1.0000 0.1291283405
H   H31       1.0  0.90600  0.80050  0.94690  1.0000 0.1232011693
H   H32       1.0  0.84900  0.78550  0.16470  1.0000 0.1111604648
H   H33       1.0  0.78830  0.79540  0.38370  1.0000 0.1544491999
H   H34       1.0  0.71490  0.83320  0.45730  1.0000 0.1111604648
H   H35       1.0  0.64940  0.91480  0.42940  1.0000 0.1291283405
H   H36       1.0  0.82080  0.79720  0.26940  1.0000 0.2803494808
H   H37       1.0  0.03930  0.08530  0.93720  1.0000 0.1291283405
H   H38       1.0  0.99180  0.17170  0.89050  1.0000 0.1111604648
H   H39       1.0  0.75560  0.03460  0.86320  1.0000 0.1291283405
H   H40       1.0  0.80050  0.94690  0.90600  1.0000 0.1232011693
H   H41       1.0  0.78550  0.16470  0.84900  1.0000 0.1111604648
H   H42       1.0  0.79540  0.38370  0.78830  1.0000 0.1544491999
H   H43       1.0  0.83320  0.45730  0.71490  1.0000 0.1111604648
H   H44       1.0  0.91480  0.42940  0.64940  1.0000 0.1291283405
H   H45       1.0  0.79720  0.26940  0.82080  1.0000 0.2803494808
H   H46       1.0  0.85190  0.41470  0.45400  1.0000 0.1291283405
H   H47       1.0  0.71880  0.32830  0.32010  1.0000 0.1111604648
H   H48       1.0  0.82860  0.46540  0.22100  1.0000 0.1291283405
H   H49       1.0  0.95910  0.55310  0.35360  1.0000 0.1232011693
H   H50       1.0  0.68430  0.33530  0.12080  1.0000 0.1111604648
H   H51       1.0  0.40460  0.11630  0.91170  1.0000 0.1544491999
H   H52       1.0  0.25760  0.04270  0.87590  1.0000 0.1111604648
H   H53       1.0  0.22000  0.07060  0.98540  1.0000 0.1291283405
H   H54       1.0  0.55140  0.23060  0.02780  1.0000 0.2803494808
H   H55       1.0  0.64810  0.10210  0.56280  1.0000 0.1291283405
H   H56       1.0  0.78120  0.10130  0.60950  1.0000 0.1111604648
H   H57       1.0  0.67140  0.89240  0.63680  1.0000 0.1291283405
H   H58       1.0  0.54090  0.89450  0.59400  1.0000 0.1232011693
H   H59       1.0  0.81570  0.93650  0.65100  1.0000 0.1111604648
H   H60       1.0  0.09540  0.00710  0.71170  1.0000 0.1544491999
H   H61       1.0  0.24240  0.11830  0.78510  1.0000 0.1111604648
H   H62       1.0  0.28000  0.26540  0.85060  1.0000 0.1291283405
H   H63       1.0  0.94860  0.97640  0.67920  1.0000 0.2803494808
H   H64       1.0  0.46070  0.39790  0.04600  1.0000 0.1291283405
H   H65       1.0  0.50820  0.39870  0.17990  1.0000 0.1111604648
H   H66       1.0  0.74440  0.60760  0.27900  1.0000 0.1291283405
H   H67       1.0  0.69950  0.60550  0.14640  1.0000 0.1232011693
H   H68       1.0  0.71450  0.56350  0.37920  1.0000 0.1111604648
H   H69       1.0  0.70460  0.49290  0.58830  1.0000 0.1544491999
H   H70       1.0  0.66680  0.38170  0.62410  1.0000 0.1111604648
H   H71       1.0  0.58520  0.23460  0.51460  1.0000 0.1291283405
H   H72       1.0  0.70280  0.52360  0.47220  1.0000 0.2803494808
H   H73       1.0  0.41470  0.45400  0.85190  1.0000 0.1291283405
H   H74       1.0  0.32830  0.32010  0.71880  1.0000 0.1111604648
H   H75       1.0  0.46540  0.22100  0.82860  1.0000 0.1291283405
H   H76       1.0  0.55310  0.35360  0.95910  1.0000 0.1232011693
H   H77       1.0  0.33530  0.12080  0.68430  1.0000 0.1111604648
H   H78       1.0  0.11630  0.91170  0.40460  1.0000 0.1544491999
H   H79       1.0  0.04270  0.87590  0.25760  1.0000 0.1111604648
H   H80       1.0  0.07060  0.98540  0.22000  1.0000 0.1291283405
H   H81       1.0  0.23060  0.02780  0.55140  1.0000 0.2803494808
H   H82       1.0  0.08530  0.93720  0.03930  1.0000 0.1291283405
H   H83       1.0  0.17170  0.89050  0.99180  1.0000 0.1111604648
H   H84       1.0  0.03460  0.86320  0.75560  1.0000 0.1291283405
H   H85       1.0  0.94690  0.90600  0.80050  1.0000 0.1232011693
H   H86       1.0  0.16470  0.84900  0.78550  1.0000 0.1111604648
H   H87       1.0  0.38370  0.78830  0.79540  1.0000 0.1544491999
H   H88       1.0  0.45730  0.71490  0.83320  1.0000 0.1111604648
H   H89       1.0  0.42940  0.64940  0.91480  1.0000 0.1291283405
H   H90       1.0  0.26940  0.82080  0.79720  1.0000 0.2803494808
H   H91       1.0  0.39790  0.04600  0.46070  1.0000 0.1291283405
H   H92       1.0  0.39870  0.17990  0.50820  1.0000 0.1111604648
H   H93       1.0  0.60760  0.27900  0.74440  1.0000 0.1291283405
H   H94       1.0  0.60550  0.14640  0.69950  1.0000 0.1232011693
H   H95       1.0  0.56350  0.37920  0.71450  1.0000 0.1111604648
H   H96       1.0  0.49290  0.58830  0.70460  1.0000 0.1544491999
H   H97       1.0  0.38170  0.62410  0.66680  1.0000 0.1111604648
H   H98       1.0  0.23460  0.51460  0.58520  1.0000 0.1291283405
H   H99       1.0  0.52360  0.47220  0.70280  1.0000 0.2803494808
H   H100      1.0  0.10210  0.56280  0.64810  1.0000 0.1291283405
H   H101      1.0  0.10130  0.60950  0.78120  1.0000 0.1111604648
H   H102      1.0  0.89240  0.63680  0.67140  1.0000 0.1291283405
H   H103      1.0  0.89450  0.59400  0.54090  1.0000 0.1232011693
H   H104      1.0  0.93650  0.65100  0.81570  1.0000 0.1111604648
H   H105      1.0  0.00710  0.71170  0.09540  1.0000 0.1544491999
H   H106      1.0  0.11830  0.78510  0.24240  1.0000 0.1111604648
H   H107      1.0  0.26540  0.85060  0.28000  1.0000 0.1291283405
H   H108      1.0  0.97640  0.67920  0.94860  1.0000 0.2803494808
C   C1        1.0  0.08180  0.57560  0.50060  1.0000 0.1740617444
C   C2        1.0  0.09310  0.51880  0.44010  1.0000 -0.1888823271
C   C3        1.0  0.17330  0.54670  0.44100  1.0000 -0.136290509
C   C4        1.0  0.24340  0.63100  0.50400  1.0000 0.0616524811
C   C5        1.0  0.23160  0.68680  0.56460  1.0000 -0.1184822753
C   C6        1.0  0.15260  0.66020  0.56340  1.0000 -0.1794445214
C   C7        1.0  0.33070  0.66360  0.51050  1.0000 -0.0038047054
C   C8        1.0  0.45450  0.64200  0.40670  1.0000 0.3378730071
C   C9        1.0  0.54410  0.67110  0.43280  1.0000 -0.2370347788
C   C10       1.0  0.56470  0.64860  0.36670  1.0000 -0.0038047054
C   C11       1.0  0.50080  0.60040  0.28000  1.0000 -0.2333121744
C   C12       1.0  0.41580  0.57520  0.26160  1.0000 0.2803494808
C   C13       1.0  0.57500  0.58120  0.99940  1.0000 0.1740617444
C   C14       1.0  0.57870  0.65300  0.05990  1.0000 -0.1888823271
C   C15       1.0  0.60570  0.73230  0.05900  1.0000 -0.136290509
C   C16       1.0  0.62700  0.73940  0.99600  1.0000 0.0616524811
C   C17       1.0  0.62220  0.66700  0.93540  1.0000 -0.1184822753
C   C18       1.0  0.59680  0.58920  0.93660  1.0000 -0.1794445214
C   C19       1.0  0.65310  0.82020  0.98950  1.0000 -0.0038047054
C   C20       1.0  0.73530  0.04780  0.09330  1.0000 0.3378730071
C   C21       1.0  0.73830  0.11130  0.06720  1.0000 -0.2370347788
C   C22       1.0  0.78190  0.19800  0.13330  1.0000 -0.0038047054
C   C23       1.0  0.82040  0.22080  0.22000  1.0000 -0.2333121744
C   C24       1.0  0.81360  0.15420  0.23840  1.0000 0.2803494808
C   C25       1.0  0.41820  0.91880  0.49380  1.0000 0.1740617444
C   C26       1.0  0.40690  0.84700  0.42570  1.0000 -0.1888823271
C   C27       1.0  0.32670  0.76770  0.37340  1.0000 -0.136290509
C   C28       1.0  0.25660  0.76060  0.38760  1.0000 0.0616524811
C   C29       1.0  0.26840  0.83300  0.45520  1.0000 -0.1184822753
C   C30       1.0  0.34740  0.91080  0.50760  1.0000 -0.1794445214
C   C31       1.0  0.16930  0.67980  0.33290  1.0000 -0.0038047054
C   C32       1.0  0.04550  0.45220  0.18750  1.0000 0.3378730071
C   C33       1.0  0.95590  0.38870  0.12700  1.0000 -0.2370347788
C   C34       1.0  0.93530  0.30200  0.08390  1.0000 -0.0038047054
C   C35       1.0  0.99920  0.27920  0.09960  1.0000 -0.2333121744
C   C36       1.0  0.08420  0.34580  0.15940  1.0000 0.2803494808
C   C37       1.0  0.92500  0.92440  0.00620  1.0000 0.1740617444
C   C38       1.0  0.92130  0.98120  0.07430  1.0000 -0.1888823271
C   C39       1.0  0.89430  0.95330  0.12660  1.0000 -0.136290509
C   C40       1.0  0.87300  0.86900  0.11240  1.0000 0.0616524811
C   C41       1.0  0.87780  0.81320  0.04480  1.0000 -0.1184822753
C   C42       1.0  0.90320  0.83980  0.99240  1.0000 -0.1794445214
C   C43       1.0  0.84690  0.83640  0.16710  1.0000 -0.0038047054
C   C44       1.0  0.76470  0.85800  0.31250  1.0000 0.3378730071
C   C45       1.0  0.76170  0.82890  0.37300  1.0000 -0.2370347788
C   C46       1.0  0.71810  0.85140  0.41610  1.0000 -0.0038047054
C   C47       1.0  0.67960  0.89960  0.40040  1.0000 -0.2333121744
C   C48       1.0  0.68640  0.92480  0.34060  1.0000 0.2803494808
C   C49       1.0  0.92440  0.00620  0.92500  1.0000 0.1740617444
C   C50       1.0  0.98120  0.07430  0.92130  1.0000 -0.1888823271
C   C51       1.0  0.95330  0.12660  0.89430  1.0000 -0.136290509
C   C52       1.0  0.86900  0.11240  0.87300  1.0000 0.0616524811
C   C53       1.0  0.81320  0.04480  0.87780  1.0000 -0.1184822753
C   C54       1.0  0.83980  0.99240  0.90320  1.0000 -0.1794445214
C   C55       1.0  0.83640  0.16710  0.84690  1.0000 -0.0038047054
C   C56       1.0  0.85800  0.31250  0.76470  1.0000 0.3378730071
C   C57       1.0  0.82890  0.37300  0.76170  1.0000 -0.2370347788
C   C58       1.0  0.85140  0.41610  0.71810  1.0000 -0.0038047054
C   C59       1.0  0.89960  0.40040  0.67960  1.0000 -0.2333121744
C   C60       1.0  0.92480  0.34060  0.68640  1.0000 0.2803494808
C   C61       1.0  0.91880  0.49380  0.41820  1.0000 0.1740617444
C   C62       1.0  0.84700  0.42570  0.40690  1.0000 -0.1888823271
C   C63       1.0  0.76770  0.37340  0.32670  1.0000 -0.136290509
C   C64       1.0  0.76060  0.38760  0.25660  1.0000 0.0616524811
C   C65       1.0  0.83300  0.45520  0.26840  1.0000 -0.1184822753
C   C66       1.0  0.91080  0.50760  0.34740  1.0000 -0.1794445214
C   C67       1.0  0.67980  0.33290  0.16930  1.0000 -0.0038047054
C   C68       1.0  0.45220  0.18750  0.04550  1.0000 0.3378730071
C   C69       1.0  0.38870  0.12700  0.95590  1.0000 -0.2370347788
C   C70       1.0  0.30200  0.08390  0.93530  1.0000 -0.0038047054
C   C71       1.0  0.27920  0.09960  0.99920  1.0000 -0.2333121744
C   C72       1.0  0.34580  0.15940  0.08420  1.0000 0.2803494808
C   C73       1.0  0.58120  0.99940  0.57500  1.0000 0.1740617444
C   C74       1.0  0.65300  0.05990  0.57870  1.0000 -0.1888823271
C   C75       1.0  0.73230  0.05900  0.60570  1.0000 -0.136290509
C   C76       1.0  0.73940  0.99600  0.62700  1.0000 0.0616524811
C   C77       1.0  0.66700  0.93540  0.62220  1.0000 -0.1184822753
C   C78       1.0  0.58920  0.93660  0.59680  1.0000 -0.1794445214
C   C79       1.0  0.82020  0.98950  0.65310  1.0000 -0.0038047054
C   C80       1.0  0.04780  0.09330  0.73530  1.0000 0.3378730071
C   C81       1.0  0.11130  0.06720  0.73830  1.0000 -0.2370347788
C   C82       1.0  0.19800  0.13330  0.78190  1.0000 -0.0038047054
C   C83       1.0  0.22080  0.22000  0.82040  1.0000 -0.2333121744
C   C84       1.0  0.15420  0.23840  0.81360  1.0000 0.2803494808
C   C85       1.0  0.57560  0.50060  0.08180  1.0000 0.1740617444
C   C86       1.0  0.51880  0.44010  0.09310  1.0000 -0.1888823271
C   C87       1.0  0.54670  0.44100  0.17330  1.0000 -0.136290509
C   C88       1.0  0.63100  0.50400  0.24340  1.0000 0.0616524811
C   C89       1.0  0.68680  0.56460  0.23160  1.0000 -0.1184822753
C   C90       1.0  0.66020  0.56340  0.15260  1.0000 -0.1794445214
C   C91       1.0  0.66360  0.51050  0.33070  1.0000 -0.0038047054
C   C92       1.0  0.64200  0.40670  0.45450  1.0000 0.3378730071
C   C93       1.0  0.67110  0.43280  0.54410  1.0000 -0.2370347788
C   C94       1.0  0.64860  0.36670  0.56470  1.0000 -0.0038047054
C   C95       1.0  0.60040  0.28000  0.50080  1.0000 -0.2333121744
C   C96       1.0  0.57520  0.26160  0.41580  1.0000 0.2803494808
C   C97       1.0  0.49380  0.41820  0.91880  1.0000 0.1740617444
C   C98       1.0  0.42570  0.40690  0.84700  1.0000 -0.1888823271
C   C99       1.0  0.37340  0.32670  0.76770  1.0000 -0.136290509
C   C100      1.0  0.38760  0.25660  0.76060  1.0000 0.0616524811
C   C101      1.0  0.45520  0.26840  0.83300  1.0000 -0.1184822753
C   C102      1.0  0.50760  0.34740  0.91080  1.0000 -0.1794445214
C   C103      1.0  0.33290  0.16930  0.67980  1.0000 -0.0038047054
C   C104      1.0  0.18750  0.04550  0.45220  1.0000 0.3378730071
C   C105      1.0  0.12700  0.95590  0.38870  1.0000 -0.2370347788
C   C106      1.0  0.08390  0.93530  0.30200  1.0000 -0.0038047054
C   C107      1.0  0.09960  0.99920  0.27920  1.0000 -0.2333121744
C   C108      1.0  0.15940  0.08420  0.34580  1.0000 0.2803494808
C   C109      1.0  0.00620  0.92500  0.92440  1.0000 0.1740617444
C   C110      1.0  0.07430  0.92130  0.98120  1.0000 -0.1888823271
C   C111      1.0  0.12660  0.89430  0.95330  1.0000 -0.136290509
C   C112      1.0  0.11240  0.87300  0.86900  1.0000 0.0616524811
C   C113      1.0  0.04480  0.87780  0.81320  1.0000 -0.1184822753
C   C114      1.0  0.99240  0.90320  0.83980  1.0000 -0.1794445214
C   C115      1.0  0.16710  0.84690  0.83640  1.0000 -0.0038047054
C   C116      1.0  0.31250  0.76470  0.85800  1.0000 0.3378730071
C   C117      1.0  0.37300  0.76170  0.82890  1.0000 -0.2370347788
C   C118      1.0  0.41610  0.71810  0.85140  1.0000 -0.0038047054
C   C119      1.0  0.40040  0.67960  0.89960  1.0000 -0.2333121744
C   C120      1.0  0.34060  0.68640  0.92480  1.0000 0.2803494808
C   C121      1.0  0.50060  0.08180  0.57560  1.0000 0.1740617444
C   C122      1.0  0.44010  0.09310  0.51880  1.0000 -0.1888823271
C   C123      1.0  0.44100  0.17330  0.54670  1.0000 -0.136290509
C   C124      1.0  0.50400  0.24340  0.63100  1.0000 0.0616524811
C   C125      1.0  0.56460  0.23160  0.68680  1.0000 -0.1184822753
C   C126      1.0  0.56340  0.15260  0.66020  1.0000 -0.1794445214
C   C127      1.0  0.51050  0.33070  0.66360  1.0000 -0.0038047054
C   C128      1.0  0.40670  0.45450  0.64200  1.0000 0.3378730071
C   C129      1.0  0.43280  0.54410  0.67110  1.0000 -0.2370347788
C   C130      1.0  0.36670  0.56470  0.64860  1.0000 -0.0038047054
C   C131      1.0  0.28000  0.50080  0.60040  1.0000 -0.2333121744
C   C132      1.0  0.26160  0.41580  0.57520  1.0000 0.2803494808
C   C133      1.0  0.99940  0.57500  0.58120  1.0000 0.1740617444
C   C134      1.0  0.05990  0.57870  0.65300  1.0000 -0.1888823271
C   C135      1.0  0.05900  0.60570  0.73230  1.0000 -0.136290509
C   C136      1.0  0.99600  0.62700  0.73940  1.0000 0.0616524811
C   C137      1.0  0.93540  0.62220  0.66700  1.0000 -0.1184822753
C   C138      1.0  0.93660  0.59680  0.58920  1.0000 -0.1794445214
C   C139      1.0  0.98950  0.65310  0.82020  1.0000 -0.0038047054
C   C140      1.0  0.09330  0.73530  0.04780  1.0000 0.3378730071
C   C141      1.0  0.06720  0.73830  0.11130  1.0000 -0.2370347788
C   C142      1.0  0.13330  0.78190  0.19800  1.0000 -0.0038047054
C   C143      1.0  0.22000  0.82040  0.22080  1.0000 -0.2333121744
C   C144      1.0  0.23840  0.81360  0.15420  1.0000 0.2803494808
N   N1        1.0  0.34469  0.62796  0.44973  1.0000 -0.1140048452
N   N2        1.0  0.43090  0.66410  0.46900  1.0000 -0.1888823271
N   N3        1.0  0.38995  0.59280  0.32035  1.0000 -0.3352264859
N   N4        1.0  0.67823  0.89496  0.05027  1.0000 -0.1140048452
N   N5        1.0  0.69510  0.96190  0.03100  1.0000 -0.1888823271
N   N6        1.0  0.77245  0.06960  0.17965  1.0000 -0.3352264859
N   N7        1.0  0.15531  0.60504  0.28327  1.0000 -0.1140048452
N   N8        1.0  0.06910  0.53810  0.23320  1.0000 -0.1888823271
N   N9        1.0  0.11005  0.43040  0.20285  1.0000 -0.3352264859
N   N10       1.0  0.82177  0.87204  0.21673  1.0000 -0.1140048452
N   N11       1.0  0.80490  0.83590  0.26680  1.0000 -0.1888823271
N   N12       1.0  0.72755  0.90720  0.29715  1.0000 -0.3352264859
N   N13       1.0  0.87204  0.21673  0.82177  1.0000 -0.1140048452
N   N14       1.0  0.83590  0.26680  0.80490  1.0000 -0.1888823271
N   N15       1.0  0.90720  0.29715  0.72755  1.0000 -0.3352264859
N   N16       1.0  0.60504  0.28327  0.15531  1.0000 -0.1140048452
N   N17       1.0  0.53810  0.23320  0.06910  1.0000 -0.1888823271
N   N18       1.0  0.43040  0.20285  0.11005  1.0000 -0.3352264859
N   N19       1.0  0.89496  0.05027  0.67823  1.0000 -0.1140048452
N   N20       1.0  0.96190  0.03100  0.69510  1.0000 -0.1888823271
N   N21       1.0  0.06960  0.17965  0.77245  1.0000 -0.3352264859
N   N22       1.0  0.62796  0.44973  0.34469  1.0000 -0.1140048452
N   N23       1.0  0.66410  0.46900  0.43090  1.0000 -0.1888823271
N   N24       1.0  0.59280  0.32035  0.38995  1.0000 -0.3352264859
N   N25       1.0  0.28327  0.15531  0.60504  1.0000 -0.1140048452
N   N26       1.0  0.23320  0.06910  0.53810  1.0000 -0.1888823271
N   N27       1.0  0.20285  0.11005  0.43040  1.0000 -0.3352264859
N   N28       1.0  0.21673  0.82177  0.87204  1.0000 -0.1140048452
N   N29       1.0  0.26680  0.80490  0.83590  1.0000 -0.1888823271
N   N30       1.0  0.29715  0.72755  0.90720  1.0000 -0.3352264859
N   N31       1.0  0.44973  0.34469  0.62796  1.0000 -0.1140048452
N   N32       1.0  0.46900  0.43090  0.66410  1.0000 -0.1888823271
N   N33       1.0  0.32035  0.38995  0.59280  1.0000 -0.3352264859
N   N34       1.0  0.05027  0.67823  0.89496  1.0000 -0.1140048452
N   N35       1.0  0.03100  0.69510  0.96190  1.0000 -0.1888823271
N   N36       1.0  0.17965  0.77245  0.06960  1.0000 -0.3352264859
N   N37       1.0  0.00000  0.54540  0.50000  1.0000 -0.1646193736
N   N38       1.0  0.54540  0.50000  0.00000  1.0000 -0.1646193736
N   N39       1.0  0.50000  0.00000  0.54540  1.0000 -0.1646193736
N   N40       1.0  0.95460  0.95460  0.95460  1.0000 -0.1646193736
Cl  Cl1       1.0  0.33106  0.51193  0.15255  1.0000 -0.1184822753
Cl  Cl2       1.0  0.85938  0.17851  0.34745  1.0000 -0.1184822753
Cl  Cl3       1.0  0.16894  0.32149  0.18087  1.0000 -0.1184822753
Cl  Cl4       1.0  0.64062  0.98807  0.31913  1.0000 -0.1184822753
Cl  Cl5       1.0  0.98807  0.31913  0.64062  1.0000 -0.1184822753
Cl  Cl6       1.0  0.32149  0.18087  0.16894  1.0000 -0.1184822753
Cl  Cl7       1.0  0.17851  0.34745  0.85938  1.0000 -0.1184822753
Cl  Cl8       1.0  0.51193  0.15255  0.33106  1.0000 -0.1184822753
Cl  Cl9       1.0  0.18087  0.16894  0.32149  1.0000 -0.1184822753
Cl  Cl10      1.0  0.31913  0.64062  0.98807  1.0000 -0.1184822753
Cl  Cl11      1.0  0.15255  0.33106  0.51193  1.0000 -0.1184822753
Cl  Cl12      1.0  0.34745  0.85938  0.17851  1.0000 -0.1184822753
Cl  Cl13      1.0  0.56179  0.81179  0.75000  1.0000 1.2646280222
Cl  Cl14      1.0  0.93821  0.68821  0.25000  1.0000 1.2646280222
Cl  Cl15      1.0  0.25000  0.93821  0.68821  1.0000 1.26555795
Cl  Cl16      1.0  0.75000  0.56179  0.81179  1.0000 1.2646280222
Cl  Cl17      1.0  0.68821  0.25000  0.93821  1.0000 1.2646280222
Cl  Cl18      1.0  0.81179  0.75000  0.56179  1.0000 1.2646280222
O   O1        1.0  0.47457  0.79748  0.72449  1.0000 -0.5055037883
O   O2        1.0  0.57520  0.79960  0.67660  1.0000 -0.5003801284
O   O3        1.0  0.57299  0.75008  0.77551  1.0000 -0.5055037883
O   O4        1.0  0.62300  0.89860  0.82340  1.0000 -0.5003801284
O   O5        1.0  0.02543  0.74992  0.32291  1.0000 -0.5055037883
O   O6        1.0  0.92480  0.60140  0.22440  1.0000 -0.5003801284
O   O7        1.0  0.92701  0.70252  0.17709  1.0000 -0.5055037883
O   O8        1.0  0.87700  0.70040  0.27560  1.0000 -0.5003801284
O   O9        1.0  0.32291  0.02543  0.74992  1.0000 -0.5055037883
O   O10       1.0  0.22440  0.92480  0.60140  1.0000 -0.5003801284
O   O11       1.0  0.17709  0.92701  0.70252  1.0000 -0.5055037883
O   O12       1.0  0.27560  0.87700  0.70040  1.0000 -0.5003801284
O   O13       1.0  0.72449  0.47457  0.79748  1.0000 -0.5055037883
O   O14       1.0  0.67660  0.57520  0.79960  1.0000 -0.5003801284
O   O15       1.0  0.77551  0.57299  0.75008  1.0000 -0.5055037883
O   O16       1.0  0.82340  0.62300  0.89860  1.0000 -0.5003801284
O   O17       1.0  0.70252  0.17709  0.92701  1.0000 -0.5055037883
O   O18       1.0  0.70040  0.27560  0.87700  1.0000 -0.5003801284
O   O19       1.0  0.74992  0.32291  0.02543  1.0000 -0.5055037883
O   O20       1.0  0.60140  0.22440  0.92480  1.0000 -0.5003801284
O   O21       1.0  0.75008  0.77551  0.57299  1.0000 -0.5055037883
O   O22       1.0  0.89860  0.82340  0.62300  1.0000 -0.5003801284
O   O23       1.0  0.79748  0.72449  0.47457  1.0000 -0.5055037883
O   O24       1.0  0.79960  0.67660  0.57520  1.0000 -0.5003801284
