# DDEC6 charges by PACMAN v1.1 (https://github.com/mtap-research/PACMAN-charge/)
data_2017[Gd][sqc]3[ION]1
_chemical_formula_sum              "Gd2 H62 C60 N6 Cl4 O16"
_cell_length_a       9.5522
_cell_length_b       12.933
_cell_length_c       18.7637
_cell_angle_alpha    106.972
_cell_angle_beta     98.249
_cell_angle_gamma    97.794

_symmetry_space_group_name_H-M    "P 1"
_symmetry_Int_Tables_number       1

loop_
  _symmetry_equiv_pos_as_xyz
  'x, y, z'

loop_
  _atom_site_type_symbol
  _atom_site_label
  _atom_site_symmetry_multiplicity
  _atom_site_fract_x
  _atom_site_fract_y
  _atom_site_fract_z
  _atom_site_occupancy
  _atom_site_charge
Gd  Gd1       1.0  0.23407  0.01044  0.50250  1.0000 2.1069802786
Gd  Gd2       1.0  0.76593  0.98956  0.49750  1.0000 2.1069802786
H   H1        1.0  0.44780  0.22570  0.53740  1.0000 0.358798794
H   H2        1.0  0.55220  0.77430  0.46260  1.0000 0.358798794
H   H3        1.0  0.41650  0.18990  0.45950  1.0000 0.358798794
H   H4        1.0  0.58350  0.81010  0.54050  1.0000 0.358798794
H   H5        1.0  0.31780  0.77170  0.46140  1.0000 0.2785593267
H   H6        1.0  0.68220  0.22830  0.53860  1.0000 0.2785593267
H   H7        1.0  0.34420  0.82010  0.52940  1.0000 0.2785593267
H   H8        1.0  0.65580  0.17990  0.47060  1.0000 0.2785593267
H   H9        1.0  0.77410  0.10540  0.75250  1.0000 0.1290512632
H   H10       1.0  0.22590  0.89460  0.24750  1.0000 0.1290512632
H   H11       1.0  0.77410  0.17860  0.88110  1.0000 0.119759182
H   H12       1.0  0.22590  0.82140  0.11890  1.0000 0.119759182
H   H13       1.0  0.77170  0.11120  0.28590  1.0000 0.1487831966
H   H14       1.0  0.22830  0.88880  0.71410  1.0000 0.1487831966
H   H15       1.0  0.34940  0.09720  0.70860  1.0000 0.1487831966
H   H16       1.0  0.65060  0.90280  0.29140  1.0000 0.1487831966
H   H17       1.0  0.19260  0.10170  0.31490  1.0000 0.1487831966
H   H18       1.0  0.80740  0.89830  0.68510  1.0000 0.1487831966
H   H19       1.0  0.71960  0.67120  0.27570  1.0000 0.1551062758
H   H20       1.0  0.28040  0.32880  0.72430  1.0000 0.1551062758
H   H21       1.0  0.14800  0.76510  0.33360  1.0000 0.1487831966
H   H22       1.0  0.85200  0.23490  0.66640  1.0000 0.1487831966
H   H23       1.0  0.74980  0.55600  0.16200  1.0000 0.1290512632
H   H24       1.0  0.25020  0.44400  0.83800  1.0000 0.1290512632
H   H25       1.0  0.35550  0.16650  0.83690  1.0000 0.119759182
H   H26       1.0  0.64450  0.83350  0.16310  1.0000 0.119759182
H   H27       1.0  0.78380  0.14130  0.17200  1.0000 0.1290512632
H   H28       1.0  0.21620  0.85870  0.82800  1.0000 0.1290512632
H   H29       1.0  0.19300  0.11970  0.19600  1.0000 0.1290512632
H   H30       1.0  0.80700  0.88030  0.80400  1.0000 0.1290512632
H   H31       1.0  0.95400  0.06850  0.05990  1.0000 0.119759182
H   H32       1.0  0.04600  0.93150  0.94010  1.0000 0.119759182
H   H33       1.0  0.09210  0.16080  0.09230  1.0000 0.119759182
H   H34       1.0  0.90790  0.83920  0.90770  1.0000 0.119759182
H   H35       1.0  0.50720  0.15950  0.96630  1.0000 0.1290512632
H   H36       1.0  0.49280  0.84050  0.03370  1.0000 0.1290512632
H   H37       1.0  0.50490  0.27770  0.96060  1.0000 0.119759182
H   H38       1.0  0.49510  0.72230  0.03940  1.0000 0.119759182
H   H39       1.0  0.07750  0.52960  0.10390  1.0000 0.119759182
H   H40       1.0  0.92250  0.47040  0.89610  1.0000 0.119759182
H   H41       1.0  0.93870  0.56090  0.06670  1.0000 0.119759182
H   H42       1.0  0.06130  0.43910  0.93330  1.0000 0.119759182
H   H43       1.0  0.16660  0.64720  0.21860  1.0000 0.1290512632
H   H44       1.0  0.83340  0.35280  0.78140  1.0000 0.1290512632
H   H45       1.0  0.09990  0.36060  0.20660  1.0000 0.1290512632
H   H46       1.0  0.90010  0.63940  0.79340  1.0000 0.1290512632
H   H47       1.0  0.14140  0.45210  0.16990  1.0000 0.1290512632
H   H48       1.0  0.85860  0.54790  0.83010  1.0000 0.1290512632
H   H49       1.0  0.18260  0.33610  0.13890  1.0000 0.1397581742
H   H50       1.0  0.81740  0.66390  0.86110  1.0000 0.1397581742
H   H51       1.0  0.77060  0.02370  0.97050  1.0000 0.1290512632
H   H52       1.0  0.22940  0.97630  0.02950  1.0000 0.1290512632
H   H53       1.0  0.61630  0.05260  0.96870  1.0000 0.1397581742
H   H54       1.0  0.38370  0.94740  0.03130  1.0000 0.1397581742
H   H55       1.0  0.69970  0.03760  0.04220  1.0000 0.1397581742
H   H56       1.0  0.30030  0.96240  0.95780  1.0000 0.1397581742
H   H57       1.0  0.73880  0.52440  0.02560  1.0000 0.1290512632
H   H58       1.0  0.26120  0.47560  0.97440  1.0000 0.1290512632
H   H59       1.0  0.59230  0.44220  0.00840  1.0000 0.1487831966
H   H60       1.0  0.40770  0.55780  0.99160  1.0000 0.1487831966
H   H61       1.0  0.68630  0.43430  0.94580  1.0000 0.1487831966
H   H62       1.0  0.31370  0.56570  0.05420  1.0000 0.1487831966
C   C1        1.0  0.56330  0.05690  0.63230  1.0000 0.626084223
C   C2        1.0  0.43670  0.94310  0.36770  1.0000 0.626084223
C   C3        1.0  0.56280  0.09720  0.71690  1.0000 0.0437536533
C   C4        1.0  0.43720  0.90280  0.28310  1.0000 0.0437536533
C   C5        1.0  0.93070  0.73600  0.31590  1.0000 0.0466016899
C   C6        1.0  0.06930  0.26400  0.68410  1.0000 0.0466016899
C   C7        1.0  0.98020  0.10150  0.31210  1.0000 0.0295733214
C   C8        1.0  0.01980  0.89850  0.68790  1.0000 0.0295733214
C   C9        1.0  0.90850  0.22260  0.07700  1.0000 -0.0399548584
C   C10       1.0  0.09150  0.77740  0.92300  1.0000 -0.0399548584
C   C11       1.0  0.68900  0.11890  0.76890  1.0000 -0.1514059273
C   C12       1.0  0.31100  0.88110  0.23110  1.0000 -0.1514059273
C   C13       1.0  0.91780  0.82210  0.38830  1.0000 0.626084223
C   C14       1.0  0.08220  0.17790  0.61170  1.0000 0.626084223
C   C15       1.0  0.97740  0.08070  0.38740  1.0000 0.6383320238
C   C16       1.0  0.02260  0.91930  0.61260  1.0000 0.6383320238
C   C17       1.0  0.77430  0.18350  0.02840  1.0000 0.0685547474
C   C18       1.0  0.22570  0.81650  0.97160  1.0000 0.0685547474
C   C19       1.0  0.68850  0.16110  0.84590  1.0000 0.0196150006
C   C20       1.0  0.31150  0.83890  0.15410  1.0000 0.0196150006
C   C21       1.0  0.90010  0.40890  0.07930  1.0000 -0.0478172922
C   C22       1.0  0.09990  0.59110  0.92070  1.0000 -0.0478172922
C   C23       1.0  0.85840  0.11420  0.26890  1.0000 -0.1418633068
C   C24       1.0  0.14160  0.88580  0.73110  1.0000 -0.1418633068
C   C25       1.0  0.43620  0.11360  0.74280  1.0000 -0.1210670997
C   C26       1.0  0.56380  0.88640  0.25720  1.0000 -0.1210670997
C   C27       1.0  0.96930  0.33460  0.10430  1.0000 0.0765723656
C   C28       1.0  0.03070  0.66540  0.89570  1.0000 0.0765723656
C   C29       1.0  0.70410  0.25940  0.00410  1.0000 -0.0399548584
C   C30       1.0  0.29590  0.74060  0.99590  1.0000 -0.0399548584
C   C31       1.0  0.10820  0.10700  0.28570  1.0000 -0.1418633068
C   C32       1.0  0.89180  0.89300  0.71430  1.0000 -0.1418633068
C   C33       1.0  0.76610  0.37160  0.02750  1.0000 0.0685547474
C   C34       1.0  0.23390  0.62840  0.97250  1.0000 0.0685547474
C   C35       1.0  0.81130  0.66930  0.26470  1.0000 -0.1514059273
C   C36       1.0  0.18870  0.33070  0.73530  1.0000 -0.1514059273
C   C37       1.0  0.06530  0.72470  0.29880  1.0000 -0.1418633068
C   C38       1.0  0.93470  0.27530  0.70120  1.0000 -0.1418633068
C   C39       1.0  0.83040  0.59980  0.19700  1.0000 0.0295733214
C   C40       1.0  0.16960  0.40020  0.80300  1.0000 0.0295733214
C   C41       1.0  0.44000  0.15430  0.81940  1.0000 0.0196150006
C   C42       1.0  0.56000  0.84570  0.18060  1.0000 0.0196150006
C   C43       1.0  0.86560  0.13130  0.20070  1.0000 0.0017182929
C   C44       1.0  0.13440  0.86870  0.79930  1.0000 0.0017182929
C   C45       1.0  0.10880  0.12020  0.21540  1.0000 0.0017182929
C   C46       1.0  0.89120  0.87980  0.78460  1.0000 0.0017182929
C   C47       1.0  0.99280  0.14060  0.09660  1.0000 -0.1728729958
C   C48       1.0  0.00720  0.85940  0.90340  1.0000 -0.1728729958
C   C49       1.0  0.55900  0.21840  0.95240  1.0000 -0.1728729958
C   C50       1.0  0.44100  0.78160  0.04760  1.0000 -0.1728729958
C   C51       1.0  0.97550  0.52730  0.10370  1.0000 -0.1728729958
C   C52       1.0  0.02450  0.47270  0.89630  1.0000 -0.1728729958
C   C53       1.0  0.07630  0.65370  0.23040  1.0000 -0.0007911001
C   C54       1.0  0.92370  0.34630  0.76960  1.0000 0.0017182929
C   C55       1.0  0.11130  0.37450  0.16000  1.0000 -0.4551114295
C   C56       1.0  0.88870  0.62550  0.84000  1.0000 -0.4551114295
C   C57       1.0  0.70940  0.06360  0.99990  1.0000 -0.4694805448
C   C58       1.0  0.29060  0.93640  0.00010  1.0000 -0.4694805448
C   C59       1.0  0.68890  0.45030  0.99930  1.0000 -0.4803094719
C   C60       1.0  0.31110  0.54970  0.00070  1.0000 -0.4803094719
N   N1        1.0  0.56440  0.17660  0.86957  1.0000 0.119759182
N   N2        1.0  0.43560  0.82340  0.13043  1.0000 0.119759182
N   N3        1.0  0.99000  0.13380  0.17500  1.0000 0.101565815
N   N4        1.0  0.01000  0.86620  0.82500  1.0000 0.101565815
N   N5        1.0  0.95710  0.59340  0.18020  1.0000 0.1125274929
N   N6        1.0  0.04290  0.40660  0.81980  1.0000 0.1125274929
Cl  Cl1       1.0  0.50650  0.87920  0.82180  1.0000 -0.6874912535
Cl  Cl2       1.0  0.49350  0.12080  0.17820  1.0000 -0.6874912535
Cl  Cl3       1.0  0.41940  0.60410  0.20150  1.0000 -0.6818533097
Cl  Cl4       1.0  0.58060  0.39590  0.79850  1.0000 -0.6818533097
O   O1        1.0  0.44800  0.03880  0.58799  1.0000 -0.6522799486
O   O2        1.0  0.55200  0.96120  0.41201  1.0000 -0.6522799486
O   O3        1.0  0.68220  0.04520  0.61450  1.0000 -0.6428459142
O   O4        1.0  0.31780  0.95480  0.38550  1.0000 -0.6428459142
O   O5        1.0  0.85720  0.05160  0.40078  1.0000 -0.6291381572
O   O6        1.0  0.14280  0.94840  0.59922  1.0000 -0.6291381572
O   O7        1.0  0.79270  0.82960  0.39834  1.0000 -0.6199373458
O   O8        1.0  0.20730  0.17040  0.60166  1.0000 -0.6199373458
O   O9        1.0  0.09800  0.09520  0.42950  1.0000 -0.6522799486
O   O10       1.0  0.90200  0.90480  0.57050  1.0000 -0.6522799486
O   O11       1.0  0.02960  0.88100  0.42938  1.0000 -0.6522799486
O   O12       1.0  0.97040  0.11900  0.57062  1.0000 -0.6522799486
O   O13       1.0  0.39160  0.17350  0.49670  1.0000 -0.7524618064
O   O14       1.0  0.60840  0.82650  0.50330  1.0000 -0.7524618064
O   O15       1.0  0.29420  0.82910  0.49140  1.0000 -0.7369864438
O   O16       1.0  0.70580  0.17090  0.50860  1.0000 -0.7369864438
