# DDEC6 charges by PACMAN v1.1 (https://github.com/mtap-research/PACMAN-charge/)
data_2017[Ag][srs]3[ION]26
_chemical_formula_sum              "Ag6 H120 C144 N40 Cl6 O24"
_cell_length_a       18.4776
_cell_length_b       18.4776
_cell_length_c       18.4776
_cell_angle_alpha    109.471
_cell_angle_beta     109.471
_cell_angle_gamma    109.471

_symmetry_space_group_name_H-M    "P 1"
_symmetry_Int_Tables_number       1

loop_
  _symmetry_equiv_pos_as_xyz
  'x, y, z'

loop_
  _atom_site_type_symbol
  _atom_site_label
  _atom_site_symmetry_multiplicity
  _atom_site_fract_x
  _atom_site_fract_y
  _atom_site_fract_z
  _atom_site_occupancy
  _atom_site_charge
Ag  Ag1       1.0  0.04349  0.75000  0.79349  1.0000 0.2594489132
Ag  Ag2       1.0  0.45651  0.25000  0.70651  1.0000 0.2594489132
Ag  Ag3       1.0  0.79349  0.04349  0.75000  1.0000 0.2594489132
Ag  Ag4       1.0  0.70651  0.45651  0.25000  1.0000 0.2594489132
Ag  Ag5       1.0  0.75000  0.79349  0.04349  1.0000 0.2594489132
Ag  Ag6       1.0  0.25000  0.70651  0.45651  1.0000 0.2594489132
H   H1        1.0  0.96750  0.54600  0.89850  1.0000 0.1227215324
H   H2        1.0  0.01410  0.68070  0.90160  1.0000 0.1012230478
H   H3        1.0  0.24970  0.78150  0.11260  1.0000 0.1256324053
H   H4        1.0  0.20820  0.64660  0.10460  1.0000 0.1227215324
H   H5        1.0  0.22050  0.88160  0.06730  1.0000 0.1100347303
H   H6        1.0  0.20580  0.08600  0.99200  1.0000 0.1528485939
H   H7        1.0  0.16580  0.12130  0.88050  1.0000 0.1100347303
H   H8        1.0  0.08520  0.00750  0.72890  1.0000 0.1256324053
H   H9        1.0  0.03980  0.86440  0.69980  1.0000 0.1012230478
H   H10       1.0  0.20590  0.97440  0.02550  1.0000 0.2805749103
H   H11       1.0  0.14750  0.06900  0.60150  1.0000 0.1227215324
H   H12       1.0  0.27910  0.11250  0.59840  1.0000 0.1012230478
H   H13       1.0  0.16890  0.13710  0.38740  1.0000 0.1256324053
H   H14       1.0  0.04200  0.10360  0.39540  1.0000 0.1227215324
H   H15       1.0  0.31430  0.15320  0.43270  1.0000 0.1100347303
H   H16       1.0  0.59400  0.21380  0.50800  1.0000 0.1528485939
H   H17       1.0  0.74080  0.28530  0.61950  1.0000 0.1100347303
H   H18       1.0  0.77860  0.35630  0.77110  1.0000 0.1256324053
H   H19       1.0  0.66460  0.34000  0.80020  1.0000 0.1012230478
H   H20       1.0  0.44890  0.18040  0.47450  1.0000 0.2805749103
H   H21       1.0  0.35250  0.95400  0.92150  1.0000 0.1227215324
H   H22       1.0  0.22090  0.81930  0.83340  1.0000 0.1012230478
H   H23       1.0  0.33110  0.71850  0.96820  1.0000 0.1256324053
H   H24       1.0  0.45800  0.85340  0.06160  1.0000 0.1227215324
H   H25       1.0  0.18570  0.61840  0.83890  1.0000 0.1100347303
H   H26       1.0  0.90600  0.41400  0.61980  1.0000 0.1528485939
H   H27       1.0  0.75920  0.37870  0.54450  1.0000 0.1100347303
H   H28       1.0  0.72140  0.49250  0.57770  1.0000 0.1256324053
H   H29       1.0  0.83540  0.63560  0.67540  1.0000 0.1012230478
H   H30       1.0  0.05110  0.52560  0.73150  1.0000 0.2805749103
H   H31       1.0  0.53250  0.43100  0.57850  1.0000 0.1227215324
H   H32       1.0  0.48590  0.38750  0.66667  1.0000 0.1012230478
H   H33       1.0  0.25030  0.36290  0.53180  1.0000 0.1256324053
H   H34       1.0  0.29180  0.39640  0.43840  1.0000 0.1227215324
H   H35       1.0  0.27950  0.34680  0.66110  1.0000 0.1100347303
H   H36       1.0  0.29420  0.28620  0.88020  1.0000 0.1528485939
H   H37       1.0  0.33420  0.21470  0.95550  1.0000 0.1100347303
H   H38       1.0  0.41480  0.14370  0.92230  1.0000 0.1256324053
H   H39       1.0  0.46020  0.16000  0.82460  1.0000 0.1012230478
H   H40       1.0  0.29410  0.31960  0.76850  1.0000 0.2805749103
H   H41       1.0  0.89850  0.96750  0.54600  1.0000 0.1227215324
H   H42       1.0  0.90160  0.01410  0.68070  1.0000 0.1012230478
H   H43       1.0  0.11260  0.24970  0.78150  1.0000 0.1256324053
H   H44       1.0  0.10460  0.20820  0.64660  1.0000 0.1227215324
H   H45       1.0  0.06730  0.22050  0.88160  1.0000 0.1100347303
H   H46       1.0  0.99200  0.20580  0.08600  1.0000 0.1528485939
H   H47       1.0  0.88050  0.16580  0.12130  1.0000 0.1100347303
H   H48       1.0  0.72890  0.08520  0.00750  1.0000 0.1256324053
H   H49       1.0  0.69980  0.03980  0.86440  1.0000 0.1012230478
H   H50       1.0  0.02550  0.20590  0.97440  1.0000 0.2805749103
H   H51       1.0  0.60150  0.14750  0.06900  1.0000 0.1227215324
H   H52       1.0  0.59840  0.27910  0.11250  1.0000 0.1012230478
H   H53       1.0  0.38740  0.16890  0.13710  1.0000 0.1256324053
H   H54       1.0  0.39540  0.04200  0.10360  1.0000 0.1227215324
H   H55       1.0  0.43270  0.31430  0.15320  1.0000 0.1100347303
H   H56       1.0  0.50800  0.59400  0.21380  1.0000 0.1528485939
H   H57       1.0  0.61950  0.74080  0.28530  1.0000 0.1100347303
H   H58       1.0  0.77110  0.77860  0.35630  1.0000 0.1256324053
H   H59       1.0  0.80020  0.66460  0.34000  1.0000 0.1012230478
H   H60       1.0  0.47450  0.44890  0.18040  1.0000 0.2805749103
H   H61       1.0  0.92150  0.35250  0.95400  1.0000 0.1227215324
H   H62       1.0  0.83340  0.22090  0.81930  1.0000 0.1012230478
H   H63       1.0  0.96820  0.33110  0.71850  1.0000 0.1256324053
H   H64       1.0  0.06160  0.45800  0.85340  1.0000 0.1227215324
H   H65       1.0  0.83890  0.18570  0.61840  1.0000 0.1100347303
H   H66       1.0  0.61980  0.90600  0.41400  1.0000 0.1528485939
H   H67       1.0  0.54450  0.75920  0.37870  1.0000 0.1100347303
H   H68       1.0  0.57770  0.72140  0.49250  1.0000 0.1256324053
H   H69       1.0  0.67540  0.83540  0.63560  1.0000 0.1012230478
H   H70       1.0  0.73150  0.05110  0.52560  1.0000 0.2805749103
H   H71       1.0  0.57850  0.53250  0.43100  1.0000 0.1227215324
H   H72       1.0  0.66667  0.48590  0.38750  1.0000 0.1012230478
H   H73       1.0  0.53180  0.25030  0.36290  1.0000 0.1256324053
H   H74       1.0  0.43840  0.29180  0.39640  1.0000 0.1227215324
H   H75       1.0  0.66110  0.27950  0.34680  1.0000 0.1100347303
H   H76       1.0  0.88020  0.29420  0.28620  1.0000 0.1528485939
H   H77       1.0  0.95550  0.33420  0.21470  1.0000 0.1100347303
H   H78       1.0  0.92230  0.41480  0.14370  1.0000 0.1256324053
H   H79       1.0  0.82460  0.46020  0.16000  1.0000 0.1012230478
H   H80       1.0  0.76850  0.29410  0.31960  1.0000 0.2805749103
H   H81       1.0  0.54600  0.89850  0.96750  1.0000 0.1227215324
H   H82       1.0  0.68070  0.90160  0.01410  1.0000 0.1012230478
H   H83       1.0  0.78150  0.11260  0.24970  1.0000 0.1256324053
H   H84       1.0  0.64660  0.10460  0.20820  1.0000 0.1227215324
H   H85       1.0  0.88160  0.06730  0.22050  1.0000 0.1100347303
H   H86       1.0  0.08600  0.99200  0.20580  1.0000 0.1528485939
H   H87       1.0  0.12130  0.88050  0.16580  1.0000 0.1100347303
H   H88       1.0  0.00750  0.72890  0.08520  1.0000 0.1256324053
H   H89       1.0  0.86440  0.69980  0.03980  1.0000 0.1012230478
H   H90       1.0  0.97440  0.02550  0.20590  1.0000 0.2805749103
H   H91       1.0  0.06900  0.60150  0.14750  1.0000 0.1227215324
H   H92       1.0  0.11250  0.59840  0.27910  1.0000 0.1012230478
H   H93       1.0  0.13710  0.38740  0.16890  1.0000 0.1256324053
H   H94       1.0  0.10360  0.39540  0.04200  1.0000 0.1227215324
H   H95       1.0  0.15320  0.43270  0.31430  1.0000 0.1100347303
H   H96       1.0  0.21380  0.50800  0.59400  1.0000 0.1528485939
H   H97       1.0  0.28530  0.61950  0.74080  1.0000 0.1100347303
H   H98       1.0  0.35630  0.77110  0.77860  1.0000 0.1256324053
H   H99       1.0  0.34000  0.80020  0.66460  1.0000 0.1012230478
H   H100      1.0  0.18040  0.47450  0.44890  1.0000 0.2805749103
H   H101      1.0  0.95400  0.92150  0.35250  1.0000 0.1227215324
H   H102      1.0  0.81930  0.83340  0.22090  1.0000 0.1012230478
H   H103      1.0  0.71850  0.96820  0.33110  1.0000 0.1256324053
H   H104      1.0  0.85340  0.06160  0.45800  1.0000 0.1227215324
H   H105      1.0  0.61840  0.83890  0.18570  1.0000 0.1100347303
H   H106      1.0  0.41400  0.61980  0.90600  1.0000 0.1528485939
H   H107      1.0  0.37870  0.54450  0.75920  1.0000 0.1100347303
H   H108      1.0  0.49250  0.57770  0.72140  1.0000 0.1256324053
H   H109      1.0  0.63560  0.67540  0.83540  1.0000 0.1012230478
H   H110      1.0  0.52560  0.73150  0.05110  1.0000 0.2805749103
H   H111      1.0  0.43100  0.57850  0.53250  1.0000 0.1227215324
H   H112      1.0  0.38750  0.66667  0.48590  1.0000 0.1012230478
H   H113      1.0  0.36290  0.53180  0.25030  1.0000 0.1256324053
H   H114      1.0  0.39640  0.43840  0.29180  1.0000 0.1227215324
H   H115      1.0  0.34680  0.66110  0.27950  1.0000 0.1100347303
H   H116      1.0  0.28620  0.88020  0.29420  1.0000 0.1528485939
H   H117      1.0  0.21470  0.95550  0.33420  1.0000 0.1100347303
H   H118      1.0  0.14370  0.92230  0.41480  1.0000 0.1256324053
H   H119      1.0  0.16000  0.82460  0.46020  1.0000 0.1012230478
H   H120      1.0  0.31960  0.76850  0.29410  1.0000 0.2805749103
C   C1        1.0  0.08290  0.58190  0.00260  1.0000 0.1744927279
C   C2        1.0  0.02530  0.59340  0.94150  1.0000 -0.2006184554
C   C3        1.0  0.05290  0.67420  0.94390  1.0000 -0.1391397218
C   C4        1.0  0.13680  0.74500  0.00780  1.0000 0.0595397574
C   C5        1.0  0.19290  0.73340  0.06810  1.0000 -0.1221786526
C   C6        1.0  0.16750  0.65330  0.06440  1.0000 -0.1841695904
C   C7        1.0  0.16920  0.83290  0.01490  1.0000 -0.0098935835
C   C8        1.0  0.14150  0.95210  0.90760  1.0000 0.3367843777
C   C9        1.0  0.17130  0.04140  0.93190  1.0000 -0.2339125089
C   C10       1.0  0.14860  0.06210  0.86570  1.0000 -0.0098935835
C   C11       1.0  0.09940  0.99460  0.77500  1.0000 -0.2006184554
C   C12       1.0  0.07400  0.91040  0.75920  1.0000 0.0595397574
C   C13       1.0  0.07930  0.08030  0.49740  1.0000 0.1744927279
C   C14       1.0  0.15190  0.08380  0.55850  1.0000 -0.2006184554
C   C15       1.0  0.23030  0.10900  0.55610  1.0000 -0.1391397218
C   C16       1.0  0.23720  0.12900  0.49220  1.0000 0.0595397574
C   C17       1.0  0.16530  0.12480  0.43190  1.0000 -0.1221786526
C   C18       1.0  0.08890  0.10310  0.43560  1.0000 -0.1841695904
C   C19       1.0  0.31800  0.15430  0.48510  1.0000 -0.0098935835
C   C20       1.0  0.54450  0.23390  0.59240  1.0000 0.3367843777
C   C21       1.0  0.60950  0.23940  0.56810  1.0000 -0.2339125089
C   C22       1.0  0.69640  0.28290  0.63430  1.0000 -0.0098935835
C   C23       1.0  0.71960  0.32440  0.72500  1.0000 -0.2006184554
C   C24       1.0  0.65120  0.31480  0.74080  1.0000 0.0595397574
C   C25       1.0  0.42070  0.91810  0.00100  1.0000 0.1744927279
C   C26       1.0  0.34810  0.90660  0.93190  1.0000 -0.2006184554
C   C27       1.0  0.26970  0.82580  0.87870  1.0000 -0.1391397218
C   C28       1.0  0.26280  0.75500  0.89180  1.0000 0.0595397574
C   C29       1.0  0.33470  0.76660  0.95950  1.0000 -0.1221786526
C   C30       1.0  0.41110  0.84670  0.01420  1.0000 -0.1841695904
C   C31       1.0  0.18200  0.66710  0.83630  1.0000 -0.0098935835
C   C32       1.0  0.95550  0.54790  0.68940  1.0000 0.3367843777
C   C33       1.0  0.89050  0.45860  0.62990  1.0000 -0.2339125089
C   C34       1.0  0.80360  0.43790  0.58650  1.0000 -0.0098935835
C   C35       1.0  0.78040  0.50540  0.60480  1.0000 -0.2006184554
C   C36       1.0  0.84880  0.58960  0.66360  1.0000 0.0595397574
C   C37       1.0  0.41710  0.41970  0.49900  1.0000 0.1744927279
C   C38       1.0  0.47470  0.41620  0.56810  1.0000 -0.2006184554
C   C39       1.0  0.44710  0.39100  0.62130  1.0000 -0.1391397218
C   C40       1.0  0.36320  0.37100  0.60820  1.0000 0.0595397574
C   C41       1.0  0.30710  0.37520  0.54050  1.0000 -0.1221786526
C   C42       1.0  0.33250  0.39690  0.48580  1.0000 -0.1841695904
C   C43       1.0  0.33080  0.34570  0.66370  1.0000 -0.0098935835
C   C44       1.0  0.35850  0.26610  0.81060  1.0000 0.3367843777
C   C45       1.0  0.32870  0.26060  0.87010  1.0000 -0.2339125089
C   C46       1.0  0.35140  0.21710  0.91350  1.0000 -0.0098935835
C   C47       1.0  0.40060  0.17560  0.89520  1.0000 -0.2006184554
C   C48       1.0  0.42600  0.18520  0.83640  1.0000 0.0595397574
C   C49       1.0  0.00260  0.08290  0.58190  1.0000 0.1744927279
C   C50       1.0  0.94150  0.02530  0.59340  1.0000 -0.2006184554
C   C51       1.0  0.94390  0.05290  0.67420  1.0000 -0.1391397218
C   C52       1.0  0.00780  0.13680  0.74500  1.0000 0.0595397574
C   C53       1.0  0.06810  0.19290  0.73340  1.0000 -0.1221786526
C   C54       1.0  0.06440  0.16750  0.65330  1.0000 -0.1841695904
C   C55       1.0  0.01490  0.16920  0.83290  1.0000 -0.0098935835
C   C56       1.0  0.90760  0.14150  0.95210  1.0000 0.3367843777
C   C57       1.0  0.93190  0.17130  0.04140  1.0000 -0.2339125089
C   C58       1.0  0.86570  0.14860  0.06210  1.0000 -0.0098935835
C   C59       1.0  0.77500  0.09940  0.99460  1.0000 -0.2006184554
C   C60       1.0  0.75920  0.07400  0.91040  1.0000 0.0595397574
C   C61       1.0  0.49740  0.07930  0.08030  1.0000 0.1744927279
C   C62       1.0  0.55850  0.15190  0.08380  1.0000 -0.2006184554
C   C63       1.0  0.55610  0.23030  0.10900  1.0000 -0.1391397218
C   C64       1.0  0.49220  0.23720  0.12900  1.0000 0.0595397574
C   C65       1.0  0.43190  0.16530  0.12480  1.0000 -0.1221786526
C   C66       1.0  0.43560  0.08890  0.10310  1.0000 -0.1841695904
C   C67       1.0  0.48510  0.31800  0.15430  1.0000 -0.0098935835
C   C68       1.0  0.59240  0.54450  0.23390  1.0000 0.3367843777
C   C69       1.0  0.56810  0.60950  0.23940  1.0000 -0.2339125089
C   C70       1.0  0.63430  0.69640  0.28290  1.0000 -0.0098935835
C   C71       1.0  0.72500  0.71960  0.32440  1.0000 -0.2006184554
C   C72       1.0  0.74080  0.65120  0.31480  1.0000 0.0595397574
C   C73       1.0  0.00100  0.42070  0.91810  1.0000 0.1744927279
C   C74       1.0  0.93190  0.34810  0.90660  1.0000 -0.2006184554
C   C75       1.0  0.87870  0.26970  0.82580  1.0000 -0.1391397218
C   C76       1.0  0.89180  0.26280  0.75500  1.0000 0.0595397574
C   C77       1.0  0.95950  0.33470  0.76660  1.0000 -0.1221786526
C   C78       1.0  0.01420  0.41110  0.84670  1.0000 -0.1841695904
C   C79       1.0  0.83630  0.18200  0.66710  1.0000 -0.0098935835
C   C80       1.0  0.68940  0.95550  0.54790  1.0000 0.3367843777
C   C81       1.0  0.62990  0.89050  0.45860  1.0000 -0.2339125089
C   C82       1.0  0.58650  0.80360  0.43790  1.0000 -0.0098935835
C   C83       1.0  0.60480  0.78040  0.50540  1.0000 -0.2006184554
C   C84       1.0  0.66360  0.84880  0.58960  1.0000 0.0595397574
C   C85       1.0  0.49900  0.41710  0.41970  1.0000 0.1744927279
C   C86       1.0  0.56810  0.47470  0.41620  1.0000 -0.2006184554
C   C87       1.0  0.62130  0.44710  0.39100  1.0000 -0.1391397218
C   C88       1.0  0.60820  0.36320  0.37100  1.0000 0.0595397574
C   C89       1.0  0.54050  0.30710  0.37520  1.0000 -0.1221786526
C   C90       1.0  0.48580  0.33250  0.39690  1.0000 -0.1841695904
C   C91       1.0  0.66370  0.33080  0.34570  1.0000 -0.0098935835
C   C92       1.0  0.81060  0.35850  0.26610  1.0000 0.3367843777
C   C93       1.0  0.87010  0.32870  0.26060  1.0000 -0.2339125089
C   C94       1.0  0.91350  0.35140  0.21710  1.0000 -0.0098935835
C   C95       1.0  0.89520  0.40060  0.17560  1.0000 -0.2006184554
C   C96       1.0  0.83640  0.42600  0.18520  1.0000 0.0595397574
C   C97       1.0  0.58190  0.00260  0.08290  1.0000 0.1744927279
C   C98       1.0  0.59340  0.94150  0.02530  1.0000 -0.2006184554
C   C99       1.0  0.67420  0.94390  0.05290  1.0000 -0.1391397218
C   C100      1.0  0.74500  0.00780  0.13680  1.0000 0.0595397574
C   C101      1.0  0.73340  0.06810  0.19290  1.0000 -0.1221786526
C   C102      1.0  0.65330  0.06440  0.16750  1.0000 -0.1841695904
C   C103      1.0  0.83290  0.01490  0.16920  1.0000 -0.0098935835
C   C104      1.0  0.95210  0.90760  0.14150  1.0000 0.3367843777
C   C105      1.0  0.04140  0.93190  0.17130  1.0000 -0.2339125089
C   C106      1.0  0.06210  0.86570  0.14860  1.0000 -0.0098935835
C   C107      1.0  0.99460  0.77500  0.09940  1.0000 -0.2006184554
C   C108      1.0  0.91040  0.75920  0.07400  1.0000 0.0595397574
C   C109      1.0  0.08030  0.49740  0.07930  1.0000 0.1744927279
C   C110      1.0  0.08380  0.55850  0.15190  1.0000 -0.2006184554
C   C111      1.0  0.10900  0.55610  0.23030  1.0000 -0.1391397218
C   C112      1.0  0.12900  0.49220  0.23720  1.0000 0.0595397574
C   C113      1.0  0.12480  0.43190  0.16530  1.0000 -0.1221786526
C   C114      1.0  0.10310  0.43560  0.08890  1.0000 -0.1841695904
C   C115      1.0  0.15430  0.48510  0.31800  1.0000 -0.0098935835
C   C116      1.0  0.23390  0.59240  0.54450  1.0000 0.3367843777
C   C117      1.0  0.23940  0.56810  0.60950  1.0000 -0.2339125089
C   C118      1.0  0.28290  0.63430  0.69640  1.0000 -0.0098935835
C   C119      1.0  0.32440  0.72500  0.71960  1.0000 -0.2006184554
C   C120      1.0  0.31480  0.74080  0.65120  1.0000 0.0595397574
C   C121      1.0  0.91810  0.00100  0.42070  1.0000 0.1744927279
C   C122      1.0  0.90660  0.93190  0.34810  1.0000 -0.2006184554
C   C123      1.0  0.82580  0.87870  0.26970  1.0000 -0.1391397218
C   C124      1.0  0.75500  0.89180  0.26280  1.0000 0.0595397574
C   C125      1.0  0.76660  0.95950  0.33470  1.0000 -0.1221786526
C   C126      1.0  0.84670  0.01420  0.41110  1.0000 -0.1841695904
C   C127      1.0  0.66710  0.83630  0.18200  1.0000 -0.0098935835
C   C128      1.0  0.54790  0.68940  0.95550  1.0000 0.3367843777
C   C129      1.0  0.45860  0.62990  0.89050  1.0000 -0.2339125089
C   C130      1.0  0.43790  0.58650  0.80360  1.0000 -0.0098935835
C   C131      1.0  0.50540  0.60480  0.78040  1.0000 -0.2006184554
C   C132      1.0  0.58960  0.66360  0.84880  1.0000 0.0595397574
C   C133      1.0  0.41970  0.49900  0.41710  1.0000 0.1744927279
C   C134      1.0  0.41620  0.56810  0.47470  1.0000 -0.2006184554
C   C135      1.0  0.39100  0.62130  0.44710  1.0000 -0.1391397218
C   C136      1.0  0.37100  0.60820  0.36320  1.0000 0.0595397574
C   C137      1.0  0.37520  0.54050  0.30710  1.0000 -0.1221786526
C   C138      1.0  0.39690  0.48580  0.33250  1.0000 -0.1841695904
C   C139      1.0  0.34570  0.66370  0.33080  1.0000 -0.0098935835
C   C140      1.0  0.26610  0.81060  0.35850  1.0000 0.3367843777
C   C141      1.0  0.26060  0.87010  0.32870  1.0000 -0.2339125089
C   C142      1.0  0.21710  0.91350  0.35140  1.0000 -0.0098935835
C   C143      1.0  0.17560  0.89520  0.40060  1.0000 -0.2006184554
C   C144      1.0  0.18520  0.83640  0.42600  1.0000 0.0595397574
N   N1        1.0  0.13070  0.84520  0.95330  1.0000 -0.1321134009
N   N2        1.0  0.16640  0.93200  0.97140  1.0000 -0.2006184554
N   N3        1.0  0.09460  0.88810  0.82290  1.0000 -0.2830407644
N   N4        1.0  0.39190  0.17740  0.54670  1.0000 -0.1321134009
N   N5        1.0  0.46060  0.19500  0.52860  1.0000 -0.2006184554
N   N6        1.0  0.56520  0.27170  0.67710  1.0000 -0.2830407644
N   N7        1.0  0.10810  0.65480  0.78550  1.0000 -0.1321134009
N   N8        1.0  0.03940  0.56800  0.73440  1.0000 -0.2006184554
N   N9        1.0  0.93480  0.61190  0.70650  1.0000 -0.2830407644
N   N10       1.0  0.36930  0.32260  0.71450  1.0000 -0.1321134009
N   N11       1.0  0.33360  0.30500  0.76560  1.0000 -0.2006184554
N   N12       1.0  0.40540  0.22830  0.79350  1.0000 -0.2830407644
N   N13       1.0  0.95330  0.13070  0.84520  1.0000 -0.1321134009
N   N14       1.0  0.97140  0.16640  0.93200  1.0000 -0.2006184554
N   N15       1.0  0.82290  0.09460  0.88810  1.0000 -0.2830407644
N   N16       1.0  0.54670  0.39190  0.17740  1.0000 -0.1321134009
N   N17       1.0  0.52860  0.46060  0.19500  1.0000 -0.2006184554
N   N18       1.0  0.67710  0.56520  0.27170  1.0000 -0.2830407644
N   N19       1.0  0.78550  0.10810  0.65480  1.0000 -0.1321134009
N   N20       1.0  0.73440  0.03940  0.56800  1.0000 -0.2006184554
N   N21       1.0  0.70650  0.93480  0.61190  1.0000 -0.2830407644
N   N22       1.0  0.71450  0.36930  0.32260  1.0000 -0.1321134009
N   N23       1.0  0.76560  0.33360  0.30500  1.0000 -0.2006184554
N   N24       1.0  0.79350  0.40540  0.22830  1.0000 -0.2830407644
N   N25       1.0  0.84520  0.95330  0.13070  1.0000 -0.1321134009
N   N26       1.0  0.93200  0.97140  0.16640  1.0000 -0.2006184554
N   N27       1.0  0.88810  0.82290  0.09460  1.0000 -0.2830407644
N   N28       1.0  0.17740  0.54670  0.39190  1.0000 -0.1321134009
N   N29       1.0  0.19500  0.52860  0.46060  1.0000 -0.2006184554
N   N30       1.0  0.27170  0.67710  0.56520  1.0000 -0.2830407644
N   N31       1.0  0.65480  0.78550  0.10810  1.0000 -0.1321134009
N   N32       1.0  0.56800  0.73440  0.03940  1.0000 -0.2006184554
N   N33       1.0  0.61190  0.70650  0.93480  1.0000 -0.2830407644
N   N34       1.0  0.32260  0.71450  0.36930  1.0000 -0.1321134009
N   N35       1.0  0.30500  0.76560  0.33360  1.0000 -0.2006184554
N   N36       1.0  0.22830  0.79350  0.40540  1.0000 -0.2830407644
N   N37       1.0  0.05540  0.50000  0.00000  1.0000 -0.1680617556
N   N38       1.0  0.00000  0.05540  0.50000  1.0000 -0.1680617556
N   N39       1.0  0.50000  0.00000  0.05540  1.0000 -0.1680617556
N   N40       1.0  0.44460  0.44460  0.44460  1.0000 -0.1680617556
Cl  Cl1       1.0  0.44114  0.75000  0.19114  1.0000 1.2543213541
Cl  Cl2       1.0  0.05886  0.25000  0.30886  1.0000 1.2543213541
Cl  Cl3       1.0  0.75000  0.19114  0.44114  1.0000 1.2543213541
Cl  Cl4       1.0  0.25000  0.30886  0.05886  1.0000 1.2543213541
Cl  Cl5       1.0  0.19114  0.44114  0.75000  1.0000 1.2543213541
Cl  Cl6       1.0  0.30886  0.05886  0.25000  1.0000 1.2543213541
O   O1        1.0  0.42900  0.67660  0.20280  1.0000 -0.4838354662
O   O2        1.0  0.37910  0.77280  0.20310  1.0000 -0.4838354662
O   O3        1.0  0.52620  0.82340  0.25240  1.0000 -0.4838354662
O   O4        1.0  0.43030  0.72720  0.10630  1.0000 -0.4838354662
O   O5        1.0  0.07100  0.27380  0.24760  1.0000 -0.4838354662
O   O6        1.0  0.12090  0.32400  0.39370  1.0000 -0.4838354662
O   O7        1.0  0.97380  0.22620  0.29720  1.0000 -0.4838354662
O   O8        1.0  0.06970  0.17600  0.29690  1.0000 -0.4838354662
O   O9        1.0  0.67660  0.20280  0.42900  1.0000 -0.4838354662
O   O10       1.0  0.77280  0.20310  0.37910  1.0000 -0.4838354662
O   O11       1.0  0.82340  0.25240  0.52620  1.0000 -0.4838354662
O   O12       1.0  0.72720  0.10630  0.43030  1.0000 -0.4838354662
O   O13       1.0  0.27380  0.24760  0.07100  1.0000 -0.4838354662
O   O14       1.0  0.32400  0.39370  0.12090  1.0000 -0.4838354662
O   O15       1.0  0.22620  0.29720  0.97380  1.0000 -0.4838354662
O   O16       1.0  0.17600  0.29690  0.06970  1.0000 -0.4838354662
O   O17       1.0  0.20280  0.42900  0.67660  1.0000 -0.4838354662
O   O18       1.0  0.20310  0.37910  0.77280  1.0000 -0.4838354662
O   O19       1.0  0.25240  0.52620  0.82340  1.0000 -0.4838354662
O   O20       1.0  0.10630  0.43030  0.72720  1.0000 -0.4838354662
O   O21       1.0  0.24760  0.07100  0.27380  1.0000 -0.4838354662
O   O22       1.0  0.39370  0.12090  0.32400  1.0000 -0.4838354662
O   O23       1.0  0.29720  0.97380  0.22620  1.0000 -0.4838354662
O   O24       1.0  0.29690  0.06970  0.17600  1.0000 -0.4838354662
