# DDEC6 charges by PACMAN v1.1 (https://github.com/mtap-research/PACMAN-charge/)
data_2017[Ag][hcb]2[ION]1
_chemical_formula_sum              "Ag4 H84 C112 S4 N12 O36 F12"
_cell_length_a       13.6656
_cell_length_b       16.7129
_cell_length_c       17.6973
_cell_angle_alpha    62.001
_cell_angle_beta     73.345
_cell_angle_gamma    78.007

_symmetry_space_group_name_H-M    "P 1"
_symmetry_Int_Tables_number       1

loop_
  _symmetry_equiv_pos_as_xyz
  'x, y, z'

loop_
  _atom_site_type_symbol
  _atom_site_label
  _atom_site_symmetry_multiplicity
  _atom_site_fract_x
  _atom_site_fract_y
  _atom_site_fract_z
  _atom_site_occupancy
  _atom_site_charge
Ag  Ag1       1.0  0.54781  0.21949  0.30739  1.0000 0.2982314627
Ag  Ag2       1.0  0.45219  0.78051  0.69261  1.0000 0.2982314627
Ag  Ag3       1.0  0.90731  0.81585  0.20883  1.0000 0.2982314627
Ag  Ag4       1.0  0.09269  0.18415  0.79117  1.0000 0.2982314627
H   H1        1.0  0.60720  0.00990  0.38950  1.0000 0.102280433
H   H2        1.0  0.63990  0.88330  0.36210  1.0000 0.1305476162
H   H3        1.0  0.61140  0.04920  0.11280  1.0000 0.1305476162
H   H4        1.0  0.58230  0.17170  0.14660  1.0000 0.1099893707
H   H5        1.0  0.69580  0.77100  0.13790  1.0000 0.1099893707
H   H6        1.0  0.57290  0.77570  0.16050  1.0000 0.119579326
H   H7        1.0  0.39960  0.39770  0.22060  1.0000 0.119579326
H   H8        1.0  0.40150  0.53810  0.10130  1.0000 0.1305476162
H   H9        1.0  0.71110  0.49940  0.04170  1.0000 0.1386686713
H   H10       1.0  0.69960  0.35800  0.16170  1.0000 0.1099893707
H   H11       1.0  0.73460  0.74370  0.83400  1.0000 0.119579326
H   H12       1.0  0.61460  0.75650  0.83600  1.0000 0.1099893707
H   H13       1.0  0.63120  0.06980  0.48070  1.0000 0.1099893707
H   H14       1.0  0.64670  0.04830  0.61600  1.0000 0.1305476162
H   H15       1.0  0.52770  0.30810  0.55520  1.0000 0.1386686713
H   H16       1.0  0.50800  0.31940  0.42520  1.0000 0.1099893707
H   H17       1.0  0.69090  0.08990  0.81910  1.0000 0.119579326
H   H18       1.0  0.56870  0.09780  0.85320  1.0000 0.102280433
H   H19       1.0  0.64340  0.91950  0.79320  1.0000 0.1305476162
H   H20       1.0  0.65340  0.71840  0.03560  1.0000 0.119579326
H   H21       1.0  0.61670  0.98100  0.99430  1.0000 0.1305476162
H   H22       1.0  0.39280  0.99010  0.61050  1.0000 0.102280433
H   H23       1.0  0.36010  0.11670  0.63790  1.0000 0.1305476162
H   H24       1.0  0.38860  0.95080  0.88720  1.0000 0.1305476162
H   H25       1.0  0.41770  0.82830  0.85340  1.0000 0.1099893707
H   H26       1.0  0.30420  0.22900  0.86210  1.0000 0.1099893707
H   H27       1.0  0.42710  0.22430  0.83950  1.0000 0.119579326
H   H28       1.0  0.60040  0.60230  0.77940  1.0000 0.119579326
H   H29       1.0  0.59850  0.46190  0.89870  1.0000 0.1305476162
H   H30       1.0  0.28890  0.50060  0.95830  1.0000 0.1386686713
H   H31       1.0  0.30040  0.64200  0.83830  1.0000 0.1099893707
H   H32       1.0  0.26540  0.25630  0.16600  1.0000 0.119579326
H   H33       1.0  0.38540  0.24350  0.16400  1.0000 0.1099893707
H   H34       1.0  0.36880  0.93020  0.51930  1.0000 0.1099893707
H   H35       1.0  0.35330  0.95170  0.38400  1.0000 0.1305476162
H   H36       1.0  0.47230  0.69190  0.44480  1.0000 0.1386686713
H   H37       1.0  0.49200  0.68060  0.57480  1.0000 0.1099893707
H   H38       1.0  0.30910  0.91010  0.18090  1.0000 0.119579326
H   H39       1.0  0.43130  0.90220  0.14680  1.0000 0.102280433
H   H40       1.0  0.35660  0.08050  0.20680  1.0000 0.1305476162
H   H41       1.0  0.34660  0.28160  0.96440  1.0000 0.119579326
H   H42       1.0  0.38330  0.01900  0.00570  1.0000 0.1305476162
H   H43       1.0  0.91740  0.69910  0.10650  1.0000 0.1099893707
H   H44       1.0  0.92380  0.71440  0.96930  1.0000 0.1386686713
H   H45       1.0  0.87130  0.98660  0.88690  1.0000 0.1386686713
H   H46       1.0  0.86610  0.96330  0.02720  1.0000 0.1099893707
H   H47       1.0  0.94590  0.93840  0.65500  1.0000 0.102280433
H   H48       1.0  0.82330  0.93820  0.68310  1.0000 0.1099893707
H   H49       1.0  0.90370  0.87030  0.35950  1.0000 0.102280433
H   H50       1.0  0.87260  0.99090  0.39550  1.0000 0.1305476162
H   H51       1.0  0.83950  0.15950  0.14780  1.0000 0.1386686713
H   H52       1.0  0.87390  0.03450  0.11730  1.0000 0.1099893707
H   H53       1.0  0.91380  0.26220  0.34970  1.0000 0.119579326
H   H54       1.0  0.79100  0.26470  0.37630  1.0000 0.1099893707
H   H55       1.0  0.99390  0.61580  0.30650  1.0000 0.119579326
H   H56       1.0  0.95760  0.47960  0.43140  1.0000 0.1305476162
H   H57       1.0  0.73270  0.62120  0.53740  1.0000 0.1386686713
H   H58       1.0  0.77160  0.75070  0.40850  1.0000 0.102280433
H   H59       1.0  0.88080  0.26990  0.68230  1.0000 0.1099893707
H   H60       1.0  0.76370  0.29360  0.67230  1.0000 0.119579326
H   H61       1.0  0.84000  0.31530  0.47720  1.0000 0.119579326
H   H62       1.0  0.87730  0.05360  0.51490  1.0000 0.119579326
H   H63       1.0  0.86230  0.11050  0.71620  1.0000 0.1305476162
H   H64       1.0  0.08260  0.30090  0.89350  1.0000 0.1099893707
H   H65       1.0  0.07620  0.28560  0.03070  1.0000 0.1386686713
H   H66       1.0  0.12870  0.01340  0.11310  1.0000 0.1386686713
H   H67       1.0  0.13390  0.03670  0.97280  1.0000 0.1099893707
H   H68       1.0  0.05410  0.06160  0.34500  1.0000 0.102280433
H   H69       1.0  0.17670  0.06180  0.31690  1.0000 0.1099893707
H   H70       1.0  0.09630  0.12970  0.64050  1.0000 0.102280433
H   H71       1.0  0.12740  0.00910  0.60450  1.0000 0.1305476162
H   H72       1.0  0.16050  0.84050  0.85220  1.0000 0.1386686713
H   H73       1.0  0.12610  0.96550  0.88270  1.0000 0.1099893707
H   H74       1.0  0.08620  0.73780  0.65030  1.0000 0.119579326
H   H75       1.0  0.20900  0.73530  0.62370  1.0000 0.1099893707
H   H76       1.0  0.00610  0.38420  0.69350  1.0000 0.119579326
H   H77       1.0  0.04240  0.52040  0.56860  1.0000 0.1305476162
H   H78       1.0  0.26730  0.37880  0.46260  1.0000 0.1386686713
H   H79       1.0  0.22840  0.24930  0.59150  1.0000 0.102280433
H   H80       1.0  0.11920  0.73010  0.31770  1.0000 0.1099893707
H   H81       1.0  0.23630  0.70640  0.32770  1.0000 0.119579326
H   H82       1.0  0.16000  0.68470  0.52280  1.0000 0.119579326
H   H83       1.0  0.12270  0.94640  0.48510  1.0000 0.119579326
H   H84       1.0  0.13770  0.88950  0.28380  1.0000 0.1305476162
C   C1        1.0  0.60760  0.01790  0.33270  1.0000 0.0696203628
C   C2        1.0  0.62680  0.94200  0.31720  1.0000 -0.1484217571
C   C3        1.0  0.62670  0.95320  0.23490  1.0000 -0.0004214003
C   C4        1.0  0.61040  0.03970  0.17030  1.0000 -0.1595241786
C   C5        1.0  0.59270  0.11210  0.19130  1.0000 0.0790597486
C   C6        1.0  0.64220  0.86960  0.22040  1.0000 0.4899976278
C   C7        1.0  0.63280  0.81130  0.12380  1.0000 -0.0841450592
C   C8        1.0  0.46360  0.41830  0.18310  1.0000 0.0790597486
C   C9        1.0  0.46410  0.50250  0.11270  1.0000 -0.1484217571
C   C10       1.0  0.55630  0.53500  0.05880  1.0000 -0.0085022616
C   C11       1.0  0.64610  0.47960  0.07740  1.0000 -0.1595241786
C   C12       1.0  0.63830  0.39550  0.14890  1.0000 0.0696203628
C   C13       1.0  0.55810  0.62630  0.98220  1.0000 0.4899976278
C   C14       1.0  0.66520  0.74050  0.87230  1.0000 -0.0729011057
C   C15       1.0  0.60890  0.11870  0.49650  1.0000 0.0790597486
C   C16       1.0  0.61910  0.10520  0.57740  1.0000 -0.1433357736
C   C17       1.0  0.58840  0.17590  0.60090  1.0000 -0.0085022616
C   C18       1.0  0.54820  0.25740  0.54180  1.0000 -0.1484217571
C   C19       1.0  0.53840  0.26410  0.46380  1.0000 0.0696203628
C   C20       1.0  0.59630  0.16850  0.68570  1.0000 0.4899976278
C   C21       1.0  0.62660  0.06610  0.82630  1.0000 -0.0729011057
C   C22       1.0  0.63040  0.96520  0.88450  1.0000 0.1099893707
C   C23       1.0  0.64130  0.90050  0.85330  1.0000 -0.2099203351
C   C24       1.0  0.64920  0.80830  0.90990  1.0000 0.1099893707
C   C25       1.0  0.64660  0.78140  0.99720  1.0000 -0.2159560053
C   C26       1.0  0.63400  0.84510  0.02970  1.0000 0.119579326
C   C27       1.0  0.62570  0.93690  0.97270  1.0000 -0.2099203351
C   C28       1.0  0.16940  0.21130  0.40520  1.0000 0.4743547092
C   C29       1.0  0.39240  0.98210  0.66730  1.0000 0.0696203628
C   C30       1.0  0.37320  0.05800  0.68280  1.0000 -0.1433357736
C   C31       1.0  0.37330  0.04680  0.76510  1.0000 -0.0004214003
C   C32       1.0  0.38960  0.96030  0.82970  1.0000 -0.1595241786
C   C33       1.0  0.40730  0.88790  0.80870  1.0000 0.0790597486
C   C34       1.0  0.35780  0.13040  0.77960  1.0000 0.4899976278
C   C35       1.0  0.36720  0.18870  0.87620  1.0000 -0.0841450592
C   C36       1.0  0.53640  0.58170  0.81690  1.0000 0.0790597486
C   C37       1.0  0.53590  0.49750  0.88730  1.0000 -0.1484217571
C   C38       1.0  0.44370  0.46500  0.94120  1.0000 -0.0085022616
C   C39       1.0  0.35390  0.52040  0.92260  1.0000 -0.1595241786
C   C40       1.0  0.36170  0.60450  0.85110  1.0000 0.0696203628
C   C41       1.0  0.44190  0.37370  0.01780  1.0000 0.4899976278
C   C42       1.0  0.33480  0.25950  0.12770  1.0000 -0.0729011057
C   C43       1.0  0.39110  0.88130  0.50350  1.0000 0.0790597486
C   C44       1.0  0.38090  0.89480  0.42260  1.0000 -0.1433357736
C   C45       1.0  0.41160  0.82410  0.39910  1.0000 -0.0085022616
C   C46       1.0  0.45180  0.74260  0.45820  1.0000 -0.1484217571
C   C47       1.0  0.46160  0.73590  0.53620  1.0000 0.0696203628
C   C48       1.0  0.40370  0.83150  0.31430  1.0000 0.4899976278
C   C49       1.0  0.37340  0.93390  0.17370  1.0000 -0.0729011057
C   C50       1.0  0.36960  0.03480  0.11550  1.0000 0.119579326
C   C51       1.0  0.35870  0.09950  0.14670  1.0000 -0.2099203351
C   C52       1.0  0.35080  0.19170  0.09010  1.0000 0.1099893707
C   C53       1.0  0.35340  0.21860  0.00280  1.0000 -0.2099203351
C   C54       1.0  0.36600  0.15490  0.97030  1.0000 0.119579326
C   C55       1.0  0.37430  0.06310  0.02730  1.0000 -0.2099203351
C   C56       1.0  0.83060  0.78870  0.59480  1.0000 0.4743547092
C   C57       1.0  0.90770  0.75830  0.06110  1.0000 0.0696203628
C   C58       1.0  0.91150  0.76680  0.97980  1.0000 -0.1484217571
C   C59       1.0  0.89730  0.85330  0.91190  1.0000 -0.0085022616
C   C60       1.0  0.88070  0.92660  0.93110  1.0000 -0.1433357736
C   C61       1.0  0.87780  0.91200  0.01510  1.0000 0.0874809797
C   C62       1.0  0.90010  0.86280  0.82380  1.0000 0.4899976278
C   C63       1.0  0.88210  0.96610  0.68050  1.0000 -0.0729011057
C   C64       1.0  0.89070  0.92990  0.31590  1.0000 0.0790597486
C   C65       1.0  0.87290  0.00120  0.33790  1.0000 -0.1595241786
C   C66       1.0  0.85530  0.08850  0.27410  1.0000 0.006890003
C   C67       1.0  0.85370  0.10060  0.19190  1.0000 -0.1484217571
C   C68       1.0  0.87300  0.02560  0.17460  1.0000 0.0696203628
C   C69       1.0  0.84030  0.17110  0.29050  1.0000 0.497274225
C   C70       1.0  0.85530  0.22530  0.38750  1.0000 -0.0729011057
C   C71       1.0  0.93940  0.61640  0.35380  1.0000 0.0874809797
C   C72       1.0  0.91860  0.53500  0.42780  1.0000 -0.1595241786
C   C73       1.0  0.83910  0.53690  0.49650  1.0000 0.006890003
C   C74       1.0  0.78550  0.61820  0.49010  1.0000 -0.1484217571
C   C75       1.0  0.81040  0.69490  0.41370  1.0000 0.0696203628
C   C76       1.0  0.80940  0.45130  0.57760  1.0000 0.497274225
C   C77       1.0  0.83580  0.29010  0.64050  1.0000 -0.0729011057
C   C78       1.0  0.85130  0.22320  0.60140  1.0000 0.119579326
C   C79       1.0  0.84860  0.25220  0.51450  1.0000 -0.2159560053
C   C80       1.0  0.85850  0.18870  0.48160  1.0000 0.102280433
C   C81       1.0  0.87020  0.09700  0.53690  1.0000 -0.2099203351
C   C82       1.0  0.87180  0.06770  0.62400  1.0000 0.1099893707
C   C83       1.0  0.86190  0.13050  0.65630  1.0000 -0.2099203351
C   C84       1.0  0.09230  0.24170  0.93890  1.0000 0.0696203628
C   C85       1.0  0.08850  0.23320  0.02020  1.0000 -0.1484217571
C   C86       1.0  0.10270  0.14670  0.08810  1.0000 -0.0085022616
C   C87       1.0  0.11930  0.07340  0.06890  1.0000 -0.1433357736
C   C88       1.0  0.12220  0.08800  0.98490  1.0000 0.0874809797
C   C89       1.0  0.09990  0.13720  0.17620  1.0000 0.4899976278
C   C90       1.0  0.11790  0.03390  0.31950  1.0000 -0.0729011057
C   C91       1.0  0.10930  0.07010  0.68410  1.0000 0.0790597486
C   C92       1.0  0.12710  0.99880  0.66210  1.0000 -0.1595241786
C   C93       1.0  0.14470  0.91150  0.72590  1.0000 0.006890003
C   C94       1.0  0.14630  0.89940  0.80810  1.0000 -0.1484217571
C   C95       1.0  0.12700  0.97440  0.82540  1.0000 0.0696203628
C   C96       1.0  0.15970  0.82890  0.70950  1.0000 0.497274225
C   C97       1.0  0.14470  0.77470  0.61250  1.0000 -0.0729011057
C   C98       1.0  0.06060  0.38360  0.64620  1.0000 0.0874809797
C   C99       1.0  0.08140  0.46500  0.57220  1.0000 -0.1595241786
C   C100      1.0  0.16090  0.46310  0.50350  1.0000 0.006890003
C   C101      1.0  0.21450  0.38180  0.50990  1.0000 -0.1484217571
C   C102      1.0  0.18960  0.30510  0.58630  1.0000 0.0696203628
C   C103      1.0  0.19060  0.54870  0.42240  1.0000 0.497274225
C   C104      1.0  0.16420  0.70990  0.35950  1.0000 -0.0729011057
C   C105      1.0  0.14870  0.77680  0.39860  1.0000 0.119579326
C   C106      1.0  0.15140  0.74780  0.48550  1.0000 -0.2159560053
C   C107      1.0  0.14150  0.81130  0.51840  1.0000 0.102280433
C   C108      1.0  0.12980  0.90300  0.46310  1.0000 -0.2099203351
C   C109      1.0  0.12820  0.93230  0.37600  1.0000 0.1099893707
C   C110      1.0  0.13810  0.86950  0.34370  1.0000 -0.2099203351
C   C111      1.0  0.27660  0.74910  0.08470  1.0000 0.497274225
C   C112      1.0  0.72340  0.25090  0.91530  1.0000 0.497274225
S   S1        1.0  0.30072  0.16742  0.40483  1.0000 0.9694922964
S   S2        1.0  0.69928  0.83258  0.59517  1.0000 0.9694922964
S   S3        1.0  0.15636  0.80910  0.10958  1.0000 0.9694922964
S   S4        1.0  0.84364  0.19090  0.89042  1.0000 0.9694922964
N   N1        1.0  0.58950  0.10260  0.27140  1.0000 -0.1920984735
N   N2        1.0  0.54860  0.36390  0.20130  1.0000 -0.1834931218
N   N3        1.0  0.56990  0.19600  0.43950  1.0000 -0.1920984735
N   N4        1.0  0.41050  0.89740  0.72860  1.0000 -0.1920984735
N   N5        1.0  0.45140  0.63610  0.79870  1.0000 -0.1834931218
N   N6        1.0  0.43010  0.80400  0.56050  1.0000 -0.1920984735
N   N7        1.0  0.89070  0.82980  0.08000  1.0000 -0.1834931218
N   N8        1.0  0.89060  0.94000  0.23590  1.0000 -0.2099203351
N   N9        1.0  0.88640  0.69570  0.34560  1.0000 -0.1920984735
N   N10       1.0  0.10930  0.17020  0.92000  1.0000 -0.1834931218
N   N11       1.0  0.10940  0.06000  0.76410  1.0000 -0.2099203351
N   N12       1.0  0.11360  0.30430  0.65440  1.0000 -0.1920984735
O   O1        1.0  0.66170  0.79420  0.27460  1.0000 -0.4603004902
O   O2        1.0  0.62700  0.88890  0.14240  1.0000 -0.2099203351
O   O3        1.0  0.48290  0.67340  0.96020  1.0000 -0.4514494946
O   O4        1.0  0.65430  0.64899  0.94090  1.0000 -0.2159560053
O   O5        1.0  0.58680  0.23160  0.70300  1.0000 -0.4318522265
O   O6        1.0  0.61360  0.08218  0.74170  1.0000 -0.2099203351
O   O7        1.0  0.35220  0.24820  0.35420  1.0000 -0.5479941715
O   O8        1.0  0.30780  0.12240  0.49160  1.0000 -0.5340622415
O   O9        1.0  0.32180  0.11400  0.35670  1.0000 -0.5592947552
O   O10       1.0  0.33830  0.20580  0.72540  1.0000 -0.4603004902
O   O11       1.0  0.37300  0.11110  0.85760  1.0000 -0.2099203351
O   O12       1.0  0.51710  0.32660  0.03980  1.0000 -0.4514494946
O   O13       1.0  0.34570  0.35101  0.05910  1.0000 -0.2159560053
O   O14       1.0  0.41320  0.76840  0.29700  1.0000 -0.4318522265
O   O15       1.0  0.38640  0.91782  0.25830  1.0000 -0.2099203351
O   O16       1.0  0.64780  0.75180  0.64580  1.0000 -0.5479941715
O   O17       1.0  0.69220  0.87760  0.50840  1.0000 -0.5340622415
O   O18       1.0  0.67820  0.88600  0.64330  1.0000 -0.5592947552
O   O19       1.0  0.91530  0.80000  0.80480  1.0000 -0.4514494946
O   O20       1.0  0.88470  0.94950  0.76790  1.0000 -0.2099203351
O   O21       1.0  0.81500  0.24580  0.24080  1.0000 -0.4724234988
O   O22       1.0  0.86030  0.14980  0.36730  1.0000 -0.2159560053
O   O23       1.0  0.74630  0.45040  0.64100  1.0000 -0.4603004902
O   O24       1.0  0.86090  0.37810  0.56930  1.0000 -0.2356493522
O   O25       1.0  0.08470  0.20000  0.19520  1.0000 -0.4514494946
O   O26       1.0  0.11530  0.05050  0.23210  1.0000 -0.2099203351
O   O27       1.0  0.18500  0.75420  0.75920  1.0000 -0.4724234988
O   O28       1.0  0.13970  0.85020  0.63270  1.0000 -0.2159560053
O   O29       1.0  0.25370  0.54960  0.35900  1.0000 -0.4514494946
O   O30       1.0  0.13910  0.62190  0.43070  1.0000 -0.2356493522
O   O31       1.0  0.08880  0.73770  0.16640  1.0000 -0.5592947552
O   O32       1.0  0.17900  0.85490  0.15300  1.0000 -0.5671465745
O   O33       1.0  0.13360  0.86830  0.02620  1.0000 -0.5592947552
O   O34       1.0  0.91120  0.26230  0.83360  1.0000 -0.5592947552
O   O35       1.0  0.82100  0.14510  0.84700  1.0000 -0.5671465745
O   O36       1.0  0.86640  0.13170  0.97380  1.0000 -0.5592947552
F   F1        1.0  0.11130  0.13630  0.44590  1.0000 -0.1834931218
F   F2        1.0  0.14770  0.25120  0.32820  1.0000 -0.1595241786
F   F3        1.0  0.13230  0.25570  0.44840  1.0000 -0.1595241786
F   F4        1.0  0.88870  0.86370  0.55410  1.0000 -0.1834931218
F   F5        1.0  0.85230  0.74880  0.67180  1.0000 -0.1595241786
F   F6        1.0  0.86770  0.74430  0.55160  1.0000 -0.1595241786
F   F7        1.0  0.26610  0.70580  0.03930  1.0000 -0.1920984735
F   F8        1.0  0.30820  0.68740  0.15500  1.0000 -0.1595241786
F   F9        1.0  0.34990  0.80440  0.03500  1.0000 -0.1834931218
F   F10       1.0  0.73390  0.29420  0.96070  1.0000 -0.1920984735
F   F11       1.0  0.69180  0.31260  0.84500  1.0000 -0.1595241786
F   F12       1.0  0.65010  0.19560  0.96500  1.0000 -0.1834931218
