# DDEC6 charges by PACMAN v1.1 (https://github.com/mtap-research/PACMAN-charge/)
data_2017[Ag][srs]3[ION]34
_chemical_formula_sum              "Ag6 H120 C144 N40 Cl6 O24"
_cell_length_a       18.4859
_cell_length_b       18.4859
_cell_length_c       18.4859
_cell_angle_alpha    109.471
_cell_angle_beta     109.471
_cell_angle_gamma    109.471

_symmetry_space_group_name_H-M    "P 1"
_symmetry_Int_Tables_number       1

loop_
  _symmetry_equiv_pos_as_xyz
  'x, y, z'

loop_
  _atom_site_type_symbol
  _atom_site_label
  _atom_site_symmetry_multiplicity
  _atom_site_fract_x
  _atom_site_fract_y
  _atom_site_fract_z
  _atom_site_occupancy
  _atom_site_charge
Ag  Ag1       1.0  0.95701  0.25000  0.20701  1.0000 0.2590879239
Ag  Ag2       1.0  0.54299  0.75000  0.29299  1.0000 0.2590879239
Ag  Ag3       1.0  0.20701  0.95701  0.25000  1.0000 0.2590879239
Ag  Ag4       1.0  0.29299  0.54299  0.75000  1.0000 0.2590879239
Ag  Ag5       1.0  0.25000  0.20701  0.95701  1.0000 0.2590879239
Ag  Ag6       1.0  0.75000  0.29299  0.54299  1.0000 0.2590879239
H   H1        1.0  0.03320  0.45400  0.10200  1.0000 0.1232406012
H   H2        1.0  0.98690  0.31960  0.09810  1.0000 0.1015545164
H   H3        1.0  0.75010  0.21920  0.88810  1.0000 0.1257078529
H   H4        1.0  0.79250  0.35370  0.89560  1.0000 0.1232406012
H   H5        1.0  0.78090  0.11930  0.93360  1.0000 0.1097082402
H   H6        1.0  0.79630  0.91390  0.00880  1.0000 0.1532774381
H   H7        1.0  0.83390  0.87850  0.11960  1.0000 0.1097082402
H   H8        1.0  0.91490  0.99320  0.27150  1.0000 0.1257078529
H   H9        1.0  0.96010  0.13550  0.30000  1.0000 0.1015545164
H   H10       1.0  0.79540  0.02600  0.97540  1.0000 0.2789398195
H   H11       1.0  0.85200  0.93120  0.39800  1.0000 0.1232406012
H   H12       1.0  0.72150  0.88880  0.40190  1.0000 0.1015545164
H   H13       1.0  0.83110  0.86200  0.61190  1.0000 0.1257078529
H   H14       1.0  0.95810  0.89690  0.60440  1.0000 0.1232406012
H   H15       1.0  0.68570  0.84730  0.56640  1.0000 0.1097082402
H   H16       1.0  0.40510  0.78750  0.49120  1.0000 0.1532774381
H   H17       1.0  0.25890  0.71430  0.38040  1.0000 0.1097082402
H   H18       1.0  0.22170  0.64340  0.22850  1.0000 0.1257078529
H   H19       1.0  0.33550  0.66010  0.20000  1.0000 0.1015545164
H   H20       1.0  0.55060  0.82000  0.52460  1.0000 0.2789398195
H   H21       1.0  0.64800  0.04600  0.07920  1.0000 0.1232406012
H   H22       1.0  0.77850  0.18040  0.16730  1.0000 0.1015545164
H   H23       1.0  0.66890  0.28080  0.03090  1.0000 0.1257078529
H   H24       1.0  0.54190  0.14630  0.93880  1.0000 0.1232406012
H   H25       1.0  0.81430  0.38070  0.16160  1.0000 0.1097082402
H   H26       1.0  0.09490  0.58610  0.38240  1.0000 0.1532774381
H   H27       1.0  0.24110  0.62150  0.45540  1.0000 0.1097082402
H   H28       1.0  0.27830  0.50680  0.42170  1.0000 0.1257078529
H   H29       1.0  0.16450  0.36450  0.32460  1.0000 0.1015545164
H   H30       1.0  0.94940  0.47400  0.26940  1.0000 0.2789398195
H   H31       1.0  0.46680  0.56880  0.42080  1.0000 0.1232406012
H   H32       1.0  0.51310  0.61120  0.33270  1.0000 0.1015545164
H   H33       1.0  0.74990  0.63800  0.46910  1.0000 0.1257078529
H   H34       1.0  0.70750  0.60310  0.56120  1.0000 0.1232406012
H   H35       1.0  0.71910  0.65270  0.33840  1.0000 0.1097082402
H   H36       1.0  0.70370  0.71250  0.11760  1.0000 0.1532774381
H   H37       1.0  0.66610  0.78570  0.04460  1.0000 0.1097082402
H   H38       1.0  0.58510  0.85660  0.07830  1.0000 0.1257078529
H   H39       1.0  0.53990  0.83990  0.17540  1.0000 0.1015545164
H   H40       1.0  0.70460  0.68000  0.23060  1.0000 0.2789398195
H   H41       1.0  0.10200  0.03320  0.45400  1.0000 0.1232406012
H   H42       1.0  0.09810  0.98690  0.31960  1.0000 0.1015545164
H   H43       1.0  0.88810  0.75010  0.21920  1.0000 0.1257078529
H   H44       1.0  0.89560  0.79250  0.35370  1.0000 0.1232406012
H   H45       1.0  0.93360  0.78090  0.11930  1.0000 0.1097082402
H   H46       1.0  0.00880  0.79630  0.91390  1.0000 0.1532774381
H   H47       1.0  0.11960  0.83390  0.87850  1.0000 0.1097082402
H   H48       1.0  0.27150  0.91490  0.99320  1.0000 0.1257078529
H   H49       1.0  0.30000  0.96010  0.13550  1.0000 0.1015545164
H   H50       1.0  0.97540  0.79540  0.02600  1.0000 0.2789398195
H   H51       1.0  0.39800  0.85200  0.93120  1.0000 0.1232406012
H   H52       1.0  0.40190  0.72150  0.88880  1.0000 0.1015545164
H   H53       1.0  0.61190  0.83110  0.86200  1.0000 0.1257078529
H   H54       1.0  0.60440  0.95810  0.89690  1.0000 0.1232406012
H   H55       1.0  0.56640  0.68570  0.84730  1.0000 0.1097082402
H   H56       1.0  0.49120  0.40510  0.78750  1.0000 0.1532774381
H   H57       1.0  0.38040  0.25890  0.71430  1.0000 0.1097082402
H   H58       1.0  0.22850  0.22170  0.64340  1.0000 0.1257078529
H   H59       1.0  0.20000  0.33550  0.66010  1.0000 0.1015545164
H   H60       1.0  0.52460  0.55060  0.82000  1.0000 0.2789398195
H   H61       1.0  0.07920  0.64800  0.04600  1.0000 0.1232406012
H   H62       1.0  0.16730  0.77850  0.18040  1.0000 0.1015545164
H   H63       1.0  0.03090  0.66890  0.28080  1.0000 0.1257078529
H   H64       1.0  0.93880  0.54190  0.14630  1.0000 0.1232406012
H   H65       1.0  0.16160  0.81430  0.38070  1.0000 0.1097082402
H   H66       1.0  0.38240  0.09490  0.58610  1.0000 0.1532774381
H   H67       1.0  0.45540  0.24110  0.62150  1.0000 0.1097082402
H   H68       1.0  0.42170  0.27830  0.50680  1.0000 0.1257078529
H   H69       1.0  0.32460  0.16450  0.36450  1.0000 0.1015545164
H   H70       1.0  0.26940  0.94940  0.47400  1.0000 0.2789398195
H   H71       1.0  0.42080  0.46680  0.56880  1.0000 0.1232406012
H   H72       1.0  0.33270  0.51310  0.61120  1.0000 0.1015545164
H   H73       1.0  0.46910  0.74990  0.63800  1.0000 0.1257078529
H   H74       1.0  0.56120  0.70750  0.60310  1.0000 0.1232406012
H   H75       1.0  0.33840  0.71910  0.65270  1.0000 0.1097082402
H   H76       1.0  0.11760  0.70370  0.71250  1.0000 0.1532774381
H   H77       1.0  0.04460  0.66610  0.78570  1.0000 0.1097082402
H   H78       1.0  0.07830  0.58510  0.85660  1.0000 0.1257078529
H   H79       1.0  0.17540  0.53990  0.83990  1.0000 0.1015545164
H   H80       1.0  0.23060  0.70460  0.68000  1.0000 0.2789398195
H   H81       1.0  0.45400  0.10200  0.03320  1.0000 0.1232406012
H   H82       1.0  0.31960  0.09810  0.98690  1.0000 0.1015545164
H   H83       1.0  0.21920  0.88810  0.75010  1.0000 0.1257078529
H   H84       1.0  0.35370  0.89560  0.79250  1.0000 0.1232406012
H   H85       1.0  0.11930  0.93360  0.78090  1.0000 0.1097082402
H   H86       1.0  0.91390  0.00880  0.79630  1.0000 0.1532774381
H   H87       1.0  0.87850  0.11960  0.83390  1.0000 0.1097082402
H   H88       1.0  0.99320  0.27150  0.91490  1.0000 0.1257078529
H   H89       1.0  0.13550  0.30000  0.96010  1.0000 0.1015545164
H   H90       1.0  0.02600  0.97540  0.79540  1.0000 0.2789398195
H   H91       1.0  0.93120  0.39800  0.85200  1.0000 0.1232406012
H   H92       1.0  0.88880  0.40190  0.72150  1.0000 0.1015545164
H   H93       1.0  0.86200  0.61190  0.83110  1.0000 0.1257078529
H   H94       1.0  0.89690  0.60440  0.95810  1.0000 0.1232406012
H   H95       1.0  0.84730  0.56640  0.68570  1.0000 0.1097082402
H   H96       1.0  0.78750  0.49120  0.40510  1.0000 0.1532774381
H   H97       1.0  0.71430  0.38040  0.25890  1.0000 0.1097082402
H   H98       1.0  0.64340  0.22850  0.22170  1.0000 0.1257078529
H   H99       1.0  0.66010  0.20000  0.33550  1.0000 0.1015545164
H   H100      1.0  0.82000  0.52460  0.55060  1.0000 0.2789398195
H   H101      1.0  0.04600  0.07920  0.64800  1.0000 0.1232406012
H   H102      1.0  0.18040  0.16730  0.77850  1.0000 0.1015545164
H   H103      1.0  0.28080  0.03090  0.66890  1.0000 0.1257078529
H   H104      1.0  0.14630  0.93880  0.54190  1.0000 0.1232406012
H   H105      1.0  0.38070  0.16160  0.81430  1.0000 0.1097082402
H   H106      1.0  0.58610  0.38240  0.09490  1.0000 0.1532774381
H   H107      1.0  0.62150  0.45540  0.24110  1.0000 0.1097082402
H   H108      1.0  0.50680  0.42170  0.27830  1.0000 0.1257078529
H   H109      1.0  0.36450  0.32460  0.16450  1.0000 0.1015545164
H   H110      1.0  0.47400  0.26940  0.94940  1.0000 0.2789398195
H   H111      1.0  0.56880  0.42080  0.46680  1.0000 0.1232406012
H   H112      1.0  0.61120  0.33270  0.51310  1.0000 0.1015545164
H   H113      1.0  0.63800  0.46910  0.74990  1.0000 0.1257078529
H   H114      1.0  0.60310  0.56120  0.70750  1.0000 0.1232406012
H   H115      1.0  0.65270  0.33840  0.71910  1.0000 0.1097082402
H   H116      1.0  0.71250  0.11760  0.70370  1.0000 0.1532774381
H   H117      1.0  0.78570  0.04460  0.66610  1.0000 0.1097082402
H   H118      1.0  0.85660  0.07830  0.58510  1.0000 0.1257078529
H   H119      1.0  0.83990  0.17540  0.53990  1.0000 0.1015545164
H   H120      1.0  0.68000  0.23060  0.70460  1.0000 0.2789398195
C   C1        1.0  0.91750  0.41830  0.99760  1.0000 0.1776777543
C   C2        1.0  0.97550  0.40670  0.05900  1.0000 -0.2012072503
C   C3        1.0  0.94800  0.32620  0.05620  1.0000 -0.1379743778
C   C4        1.0  0.86420  0.25530  0.99290  1.0000 0.0593226421
C   C5        1.0  0.80710  0.26700  0.93210  1.0000 -0.1204189932
C   C6        1.0  0.83300  0.34690  0.93590  1.0000 -0.1843293396
C   C7        1.0  0.83210  0.16790  0.98600  1.0000 -0.0170072797
C   C8        1.0  0.85860  0.04780  0.09280  1.0000 0.3332660235
C   C9        1.0  0.82980  0.95850  0.06870  1.0000 -0.2310638167
C   C10       1.0  0.85140  0.93760  0.13420  1.0000 -0.0119733158
C   C11       1.0  0.90070  0.00580  0.22510  1.0000 -0.2012072503
C   C12       1.0  0.92590  0.08960  0.24070  1.0000 0.0656252838
C   C13       1.0  0.92070  0.91990  0.50240  1.0000 0.1776777543
C   C14       1.0  0.84770  0.91650  0.44100  1.0000 -0.2012072503
C   C15       1.0  0.77000  0.89180  0.44380  1.0000 -0.1379743778
C   C16       1.0  0.76240  0.87130  0.50710  1.0000 0.0593226421
C   C17       1.0  0.83490  0.87500  0.56790  1.0000 -0.1204189932
C   C18       1.0  0.91100  0.89710  0.56410  1.0000 -0.1843293396
C   C19       1.0  0.68190  0.84610  0.51400  1.0000 -0.0170072797
C   C20       1.0  0.45500  0.76580  0.40720  1.0000 0.3332660235
C   C21       1.0  0.38980  0.76110  0.43130  1.0000 -0.2310638167
C   C22       1.0  0.30340  0.71720  0.36580  1.0000 -0.0119733158
C   C23       1.0  0.28070  0.67560  0.27490  1.0000 -0.2012072503
C   C24       1.0  0.34890  0.68520  0.25930  1.0000 0.0656252838
C   C25       1.0  0.57930  0.08170  0.99920  1.0000 0.1776777543
C   C26       1.0  0.65230  0.09330  0.06880  1.0000 -0.2012072503
C   C27       1.0  0.73000  0.17380  0.12180  1.0000 -0.1379743778
C   C28       1.0  0.73760  0.24470  0.10890  1.0000 0.0593226421
C   C29       1.0  0.66510  0.23300  0.04010  1.0000 -0.1204189932
C   C30       1.0  0.58900  0.15310  0.98610  1.0000 -0.1843293396
C   C31       1.0  0.81810  0.33210  0.16420  1.0000 -0.0170072797
C   C32       1.0  0.04500  0.45220  0.31080  1.0000 0.3332660235
C   C33       1.0  0.11020  0.54150  0.37130  1.0000 -0.2310638167
C   C34       1.0  0.19660  0.56240  0.41380  1.0000 -0.0119733158
C   C35       1.0  0.21930  0.49420  0.39490  1.0000 -0.2012072503
C   C36       1.0  0.15110  0.41040  0.33630  1.0000 0.0656252838
C   C37       1.0  0.58250  0.58010  0.50080  1.0000 0.1776777543
C   C38       1.0  0.52450  0.58350  0.43120  1.0000 -0.2012072503
C   C39       1.0  0.55200  0.60820  0.37820  1.0000 -0.1379743778
C   C40       1.0  0.63580  0.62870  0.39110  1.0000 0.0593226421
C   C41       1.0  0.69290  0.62500  0.45990  1.0000 -0.1204189932
C   C42       1.0  0.66700  0.60290  0.51390  1.0000 -0.1843293396
C   C43       1.0  0.66790  0.65390  0.33580  1.0000 -0.0170072797
C   C44       1.0  0.64140  0.73420  0.18920  1.0000 0.3332660235
C   C45       1.0  0.67020  0.73890  0.12870  1.0000 -0.2310638167
C   C46       1.0  0.64860  0.78280  0.08620  1.0000 -0.0119733158
C   C47       1.0  0.59930  0.82440  0.10510  1.0000 -0.2012072503
C   C48       1.0  0.57410  0.81480  0.16370  1.0000 0.0656252838
C   C49       1.0  0.99760  0.91750  0.41830  1.0000 0.1776777543
C   C50       1.0  0.05900  0.97550  0.40670  1.0000 -0.2012072503
C   C51       1.0  0.05620  0.94800  0.32620  1.0000 -0.1379743778
C   C52       1.0  0.99290  0.86420  0.25530  1.0000 0.0593226421
C   C53       1.0  0.93210  0.80710  0.26700  1.0000 -0.1204189932
C   C54       1.0  0.93590  0.83300  0.34690  1.0000 -0.1843293396
C   C55       1.0  0.98600  0.83210  0.16790  1.0000 -0.0170072797
C   C56       1.0  0.09280  0.85860  0.04780  1.0000 0.3332660235
C   C57       1.0  0.06870  0.82980  0.95850  1.0000 -0.2310638167
C   C58       1.0  0.13420  0.85140  0.93760  1.0000 -0.0119733158
C   C59       1.0  0.22510  0.90070  0.00580  1.0000 -0.2012072503
C   C60       1.0  0.24070  0.92590  0.08960  1.0000 0.0656252838
C   C61       1.0  0.50240  0.92070  0.91990  1.0000 0.1776777543
C   C62       1.0  0.44100  0.84770  0.91650  1.0000 -0.2012072503
C   C63       1.0  0.44380  0.77000  0.89180  1.0000 -0.1379743778
C   C64       1.0  0.50710  0.76240  0.87130  1.0000 0.0593226421
C   C65       1.0  0.56790  0.83490  0.87500  1.0000 -0.1204189932
C   C66       1.0  0.56410  0.91100  0.89710  1.0000 -0.1843293396
C   C67       1.0  0.51400  0.68190  0.84610  1.0000 -0.0170072797
C   C68       1.0  0.40720  0.45500  0.76580  1.0000 0.3332660235
C   C69       1.0  0.43130  0.38980  0.76110  1.0000 -0.2310638167
C   C70       1.0  0.36580  0.30340  0.71720  1.0000 -0.0119733158
C   C71       1.0  0.27490  0.28070  0.67560  1.0000 -0.2012072503
C   C72       1.0  0.25930  0.34890  0.68520  1.0000 0.0656252838
C   C73       1.0  0.99920  0.57930  0.08170  1.0000 0.1776777543
C   C74       1.0  0.06880  0.65230  0.09330  1.0000 -0.2012072503
C   C75       1.0  0.12180  0.73000  0.17380  1.0000 -0.1379743778
C   C76       1.0  0.10890  0.73760  0.24470  1.0000 0.0593226421
C   C77       1.0  0.04010  0.66510  0.23300  1.0000 -0.1204189932
C   C78       1.0  0.98610  0.58900  0.15310  1.0000 -0.1843293396
C   C79       1.0  0.16420  0.81810  0.33210  1.0000 -0.0170072797
C   C80       1.0  0.31080  0.04500  0.45220  1.0000 0.3332660235
C   C81       1.0  0.37130  0.11020  0.54150  1.0000 -0.2310638167
C   C82       1.0  0.41380  0.19660  0.56240  1.0000 -0.0119733158
C   C83       1.0  0.39490  0.21930  0.49420  1.0000 -0.2012072503
C   C84       1.0  0.33630  0.15110  0.41040  1.0000 0.0656252838
C   C85       1.0  0.50080  0.58250  0.58010  1.0000 0.1776777543
C   C86       1.0  0.43120  0.52450  0.58350  1.0000 -0.2012072503
C   C87       1.0  0.37820  0.55200  0.60820  1.0000 -0.1379743778
C   C88       1.0  0.39110  0.63580  0.62870  1.0000 0.0593226421
C   C89       1.0  0.45990  0.69290  0.62500  1.0000 -0.1204189932
C   C90       1.0  0.51390  0.66700  0.60290  1.0000 -0.1843293396
C   C91       1.0  0.33580  0.66790  0.65390  1.0000 -0.0170072797
C   C92       1.0  0.18920  0.64140  0.73420  1.0000 0.3332660235
C   C93       1.0  0.12870  0.67020  0.73890  1.0000 -0.2310638167
C   C94       1.0  0.08620  0.64860  0.78280  1.0000 -0.0119733158
C   C95       1.0  0.10510  0.59930  0.82440  1.0000 -0.2012072503
C   C96       1.0  0.16370  0.57410  0.81480  1.0000 0.0656252838
C   C97       1.0  0.41830  0.99760  0.91750  1.0000 0.1776777543
C   C98       1.0  0.40670  0.05900  0.97550  1.0000 -0.2012072503
C   C99       1.0  0.32620  0.05620  0.94800  1.0000 -0.1379743778
C   C100      1.0  0.25530  0.99290  0.86420  1.0000 0.0593226421
C   C101      1.0  0.26700  0.93210  0.80710  1.0000 -0.1204189932
C   C102      1.0  0.34690  0.93590  0.83300  1.0000 -0.1843293396
C   C103      1.0  0.16790  0.98600  0.83210  1.0000 -0.0170072797
C   C104      1.0  0.04780  0.09280  0.85860  1.0000 0.3332660235
C   C105      1.0  0.95850  0.06870  0.82980  1.0000 -0.2310638167
C   C106      1.0  0.93760  0.13420  0.85140  1.0000 -0.0119733158
C   C107      1.0  0.00580  0.22510  0.90070  1.0000 -0.2012072503
C   C108      1.0  0.08960  0.24070  0.92590  1.0000 0.0656252838
C   C109      1.0  0.91990  0.50240  0.92070  1.0000 0.1776777543
C   C110      1.0  0.91650  0.44100  0.84770  1.0000 -0.2012072503
C   C111      1.0  0.89180  0.44380  0.77000  1.0000 -0.1379743778
C   C112      1.0  0.87130  0.50710  0.76240  1.0000 0.0593226421
C   C113      1.0  0.87500  0.56790  0.83490  1.0000 -0.1204189932
C   C114      1.0  0.89710  0.56410  0.91100  1.0000 -0.1843293396
C   C115      1.0  0.84610  0.51400  0.68190  1.0000 -0.0170072797
C   C116      1.0  0.76580  0.40720  0.45500  1.0000 0.3332660235
C   C117      1.0  0.76110  0.43130  0.38980  1.0000 -0.2310638167
C   C118      1.0  0.71720  0.36580  0.30340  1.0000 -0.0119733158
C   C119      1.0  0.67560  0.27490  0.28070  1.0000 -0.2012072503
C   C120      1.0  0.68520  0.25930  0.34890  1.0000 0.0656252838
C   C121      1.0  0.08170  0.99920  0.57930  1.0000 0.1776777543
C   C122      1.0  0.09330  0.06880  0.65230  1.0000 -0.2012072503
C   C123      1.0  0.17380  0.12180  0.73000  1.0000 -0.1379743778
C   C124      1.0  0.24470  0.10890  0.73760  1.0000 0.0593226421
C   C125      1.0  0.23300  0.04010  0.66510  1.0000 -0.1204189932
C   C126      1.0  0.15310  0.98610  0.58900  1.0000 -0.1843293396
C   C127      1.0  0.33210  0.16420  0.81810  1.0000 -0.0170072797
C   C128      1.0  0.45220  0.31080  0.04500  1.0000 0.3332660235
C   C129      1.0  0.54150  0.37130  0.11020  1.0000 -0.2310638167
C   C130      1.0  0.56240  0.41380  0.19660  1.0000 -0.0119733158
C   C131      1.0  0.49420  0.39490  0.21930  1.0000 -0.2012072503
C   C132      1.0  0.41040  0.33630  0.15110  1.0000 0.0656252838
C   C133      1.0  0.58010  0.50080  0.58250  1.0000 0.1776777543
C   C134      1.0  0.58350  0.43120  0.52450  1.0000 -0.2012072503
C   C135      1.0  0.60820  0.37820  0.55200  1.0000 -0.1379743778
C   C136      1.0  0.62870  0.39110  0.63580  1.0000 0.0593226421
C   C137      1.0  0.62500  0.45990  0.69290  1.0000 -0.1204189932
C   C138      1.0  0.60290  0.51390  0.66700  1.0000 -0.1843293396
C   C139      1.0  0.65390  0.33580  0.66790  1.0000 -0.0170072797
C   C140      1.0  0.73420  0.18920  0.64140  1.0000 0.3332660235
C   C141      1.0  0.73890  0.12870  0.67020  1.0000 -0.2310638167
C   C142      1.0  0.78280  0.08620  0.64860  1.0000 -0.0119733158
C   C143      1.0  0.82440  0.10510  0.59930  1.0000 -0.2012072503
C   C144      1.0  0.81480  0.16370  0.57410  1.0000 0.0656252838
N   N1        1.0  0.86990  0.15473  0.04723  1.0000 -0.1275501513
N   N2        1.0  0.83460  0.06840  0.02960  1.0000 -0.2053284053
N   N3        1.0  0.90560  0.11190  0.17790  1.0000 -0.2745888792
N   N4        1.0  0.60750  0.82267  0.45277  1.0000 -0.1275501513
N   N5        1.0  0.53880  0.80500  0.47040  1.0000 -0.2053284053
N   N6        1.0  0.43400  0.72770  0.32210  1.0000 -0.27510588
N   N7        1.0  0.89250  0.34527  0.21517  1.0000 -0.1275501513
N   N8        1.0  0.96120  0.43160  0.26620  1.0000 -0.2053284053
N   N9        1.0  0.06600  0.38810  0.29370  1.0000 -0.27510588
N   N10       1.0  0.63010  0.67733  0.28483  1.0000 -0.1275501513
N   N11       1.0  0.66540  0.69500  0.23380  1.0000 -0.2053284053
N   N12       1.0  0.59440  0.77230  0.20630  1.0000 -0.27510588
N   N13       1.0  0.04723  0.86990  0.15473  1.0000 -0.1275501513
N   N14       1.0  0.02960  0.83460  0.06840  1.0000 -0.2053284053
N   N15       1.0  0.17790  0.90560  0.11190  1.0000 -0.27510588
N   N16       1.0  0.45277  0.60750  0.82267  1.0000 -0.1275501513
N   N17       1.0  0.47040  0.53880  0.80500  1.0000 -0.2053284053
N   N18       1.0  0.32210  0.43400  0.72770  1.0000 -0.27510588
N   N19       1.0  0.21517  0.89250  0.34527  1.0000 -0.1275501513
N   N20       1.0  0.26620  0.96120  0.43160  1.0000 -0.2053284053
N   N21       1.0  0.29370  0.06600  0.38810  1.0000 -0.2745888792
N   N22       1.0  0.28483  0.63010  0.67733  1.0000 -0.1275501513
N   N23       1.0  0.23380  0.66540  0.69500  1.0000 -0.2053284053
N   N24       1.0  0.20630  0.59440  0.77230  1.0000 -0.27510588
N   N25       1.0  0.15473  0.04723  0.86990  1.0000 -0.1275501513
N   N26       1.0  0.06840  0.02960  0.83460  1.0000 -0.2053284053
N   N27       1.0  0.11190  0.17790  0.90560  1.0000 -0.27510588
N   N28       1.0  0.82267  0.45277  0.60750  1.0000 -0.1275501513
N   N29       1.0  0.80500  0.47040  0.53880  1.0000 -0.2053284053
N   N30       1.0  0.72770  0.32210  0.43400  1.0000 -0.27510588
N   N31       1.0  0.34527  0.21517  0.89250  1.0000 -0.1275501513
N   N32       1.0  0.43160  0.26620  0.96120  1.0000 -0.2012072503
N   N33       1.0  0.38810  0.29370  0.06600  1.0000 -0.27510588
N   N34       1.0  0.67733  0.28483  0.63010  1.0000 -0.1275501513
N   N35       1.0  0.69500  0.23380  0.66540  1.0000 -0.2053284053
N   N36       1.0  0.77230  0.20630  0.59440  1.0000 -0.2745888792
N   N37       1.0  0.94500  0.50000  0.00000  1.0000 -0.1669811793
N   N38       1.0  0.00000  0.94500  0.50000  1.0000 -0.1669811793
N   N39       1.0  0.50000  0.00000  0.94500  1.0000 -0.1669811793
N   N40       1.0  0.55500  0.55500  0.55500  1.0000 -0.1669811793
Cl  Cl1       1.0  0.55892  0.25000  0.80892  1.0000 1.2516138987
Cl  Cl2       1.0  0.94108  0.75000  0.69108  1.0000 1.2516138987
Cl  Cl3       1.0  0.25000  0.80892  0.55892  1.0000 1.2516138987
Cl  Cl4       1.0  0.75000  0.69108  0.94108  1.0000 1.2516138987
Cl  Cl5       1.0  0.80892  0.55892  0.25000  1.0000 1.2516138987
Cl  Cl6       1.0  0.69108  0.94108  0.75000  1.0000 1.2516138987
O   O1        1.0  0.57090  0.32330  0.79720  1.0000 -0.4877642605
O   O2        1.0  0.62070  0.22670  0.79700  1.0000 -0.4877642605
O   O3        1.0  0.47390  0.17670  0.74760  1.0000 -0.4877642605
O   O4        1.0  0.57030  0.27330  0.89400  1.0000 -0.4877642605
O   O5        1.0  0.92910  0.72630  0.75240  1.0000 -0.4877642605
O   O6        1.0  0.87930  0.67630  0.60600  1.0000 -0.4877642605
O   O7        1.0  0.02610  0.77370  0.70280  1.0000 -0.4877642605
O   O8        1.0  0.92970  0.82370  0.70300  1.0000 -0.4877642605
O   O9        1.0  0.32330  0.79720  0.57090  1.0000 -0.4877642605
O   O10       1.0  0.22670  0.79700  0.62070  1.0000 -0.4877642605
O   O11       1.0  0.17670  0.74760  0.47390  1.0000 -0.4877642605
O   O12       1.0  0.27330  0.89400  0.57030  1.0000 -0.4877642605
O   O13       1.0  0.72630  0.75240  0.92910  1.0000 -0.4877642605
O   O14       1.0  0.67630  0.60600  0.87930  1.0000 -0.4877642605
O   O15       1.0  0.77370  0.70280  0.02610  1.0000 -0.4877642605
O   O16       1.0  0.82370  0.70300  0.92970  1.0000 -0.4877642605
O   O17       1.0  0.79720  0.57090  0.32330  1.0000 -0.4877642605
O   O18       1.0  0.79700  0.62070  0.22670  1.0000 -0.4877642605
O   O19       1.0  0.74760  0.47390  0.17670  1.0000 -0.4877642605
O   O20       1.0  0.89400  0.57030  0.27330  1.0000 -0.4877642605
O   O21       1.0  0.75240  0.92910  0.72630  1.0000 -0.4877642605
O   O22       1.0  0.60600  0.87930  0.67630  1.0000 -0.4877642605
O   O23       1.0  0.70280  0.02610  0.77370  1.0000 -0.4877642605
O   O24       1.0  0.70300  0.92970  0.82370  1.0000 -0.4877642605
