# DDEC6 charges by PACMAN v1.1 (https://github.com/mtap-research/PACMAN-charge/)
data_2017[Yb][sqc]3[ION]1
_chemical_formula_sum              "Yb2 H62 C60 N6 Cl6 O16"
_cell_length_a       9.4755
_cell_length_b       13.0729
_cell_length_c       18.4582
_cell_angle_alpha    107.506
_cell_angle_beta     96.574
_cell_angle_gamma    98.231

_symmetry_space_group_name_H-M    "P 1"
_symmetry_Int_Tables_number       1

loop_
  _symmetry_equiv_pos_as_xyz
  'x, y, z'

loop_
  _atom_site_type_symbol
  _atom_site_label
  _atom_site_symmetry_multiplicity
  _atom_site_fract_x
  _atom_site_fract_y
  _atom_site_fract_z
  _atom_site_occupancy
  _atom_site_charge
Yb  Yb1       1.0  0.76572  0.49406  0.99720  1.0000 2.147321489
Yb  Yb2       1.0  0.23428  0.50594  0.00280  1.0000 2.147321489
H   H1        1.0  0.58020  0.29020  0.95710  1.0000 0.4309249188
H   H2        1.0  0.60230  0.33960  0.04710  1.0000 0.4057324197
H   H3        1.0  0.76400  0.72900  0.01990  1.0000 0.2925864051
H   H4        1.0  0.67750  0.69470  0.96430  1.0000 0.2925864051
H   H5        1.0  0.23450  0.39700  0.75050  1.0000 0.1387778573
H   H6        1.0  0.23510  0.33280  0.61940  1.0000 0.121465889
H   H7        1.0  0.65250  0.33770  0.65610  1.0000 0.121465889
H   H8        1.0  0.66000  0.39950  0.78790  1.0000 0.1574833895
H   H9        1.0  0.49790  0.35040  0.52750  1.0000 0.1311748639
H   H10       1.0  0.50760  0.23310  0.53100  1.0000 0.121465889
H   H11       1.0  0.89850  0.33100  0.41040  1.0000 0.121465889
H   H12       1.0  0.03320  0.42620  0.44180  1.0000 0.121465889
H   H13       1.0  0.79140  0.36280  0.30430  1.0000 0.1387778573
H   H14       1.0  0.79030  0.39110  0.18720  1.0000 0.1574833895
H   H15       1.0  0.21740  0.39190  0.21050  1.0000 0.1574833895
H   H16       1.0  0.20650  0.35770  0.32500  1.0000 0.1311748639
H   H17       1.0  0.07770  0.94560  0.44030  1.0000 0.121465889
H   H18       1.0  0.93340  0.97350  0.40770  1.0000 0.121465889
H   H19       1.0  0.25680  0.94410  0.33480  1.0000 0.1387778573
H   H20       1.0  0.27990  0.82210  0.22010  1.0000 0.1574833895
H   H21       1.0  0.84790  0.73540  0.17300  1.0000 0.1574833895
H   H22       1.0  0.83680  0.85380  0.29180  1.0000 0.1311748639
H   H23       1.0  0.33340  0.07420  0.55280  1.0000 0.1483839518
H   H24       1.0  0.42670  0.07090  0.48760  1.0000 0.1483839518
H   H25       1.0  0.28430  0.98450  0.47180  1.0000 0.1311748639
H   H26       1.0  0.84820  0.04960  0.35020  1.0000 0.1311748639
H   H27       1.0  0.88990  0.12220  0.29930  1.0000 0.1387778573
H   H28       1.0  0.81760  0.16890  0.37150  1.0000 0.1387778573
H   H29       1.0  0.32560  0.45730  0.45390  1.0000 0.1483839518
H   H30       1.0  0.36290  0.45640  0.53870  1.0000 0.1387778573
H   H31       1.0  0.21250  0.47970  0.50980  1.0000 0.1311748639
H   H32       1.0  0.41980  0.70980  0.04290  1.0000 0.4309249188
H   H33       1.0  0.39770  0.66040  0.95290  1.0000 0.4047637846
H   H34       1.0  0.23600  0.27100  0.98010  1.0000 0.2925864051
H   H35       1.0  0.32250  0.30530  0.03570  1.0000 0.2925864051
H   H36       1.0  0.76550  0.60300  0.24950  1.0000 0.1387778573
H   H37       1.0  0.76490  0.66720  0.38060  1.0000 0.121465889
H   H38       1.0  0.34750  0.66230  0.34390  1.0000 0.121465889
H   H39       1.0  0.34000  0.60050  0.21210  1.0000 0.1574833895
H   H40       1.0  0.50210  0.64960  0.47250  1.0000 0.1311748639
H   H41       1.0  0.49240  0.76690  0.46900  1.0000 0.121465889
H   H42       1.0  0.10150  0.66900  0.58960  1.0000 0.121465889
H   H43       1.0  0.96680  0.57380  0.55820  1.0000 0.121465889
H   H44       1.0  0.20860  0.63720  0.69570  1.0000 0.1387778573
H   H45       1.0  0.20970  0.60890  0.81280  1.0000 0.1574833895
H   H46       1.0  0.78260  0.60810  0.78950  1.0000 0.1574833895
H   H47       1.0  0.79350  0.64230  0.67500  1.0000 0.1311748639
H   H48       1.0  0.92230  0.05440  0.55970  1.0000 0.121465889
H   H49       1.0  0.06660  0.02650  0.59230  1.0000 0.121465889
H   H50       1.0  0.74320  0.05590  0.66520  1.0000 0.1387778573
H   H51       1.0  0.72010  0.17790  0.77990  1.0000 0.1574833895
H   H52       1.0  0.15210  0.26460  0.82700  1.0000 0.1574833895
H   H53       1.0  0.16320  0.14620  0.70820  1.0000 0.1311748639
H   H54       1.0  0.66667  0.92580  0.44720  1.0000 0.1483839518
H   H55       1.0  0.57330  0.92910  0.51240  1.0000 0.1483839518
H   H56       1.0  0.71570  0.01550  0.52820  1.0000 0.1311748639
H   H57       1.0  0.15180  0.95040  0.64980  1.0000 0.1311748639
H   H58       1.0  0.11010  0.87780  0.70070  1.0000 0.1387778573
H   H59       1.0  0.18240  0.83110  0.62850  1.0000 0.1387778573
H   H60       1.0  0.67440  0.54270  0.54610  1.0000 0.1483839518
H   H61       1.0  0.63710  0.54360  0.46130  1.0000 0.1387778573
H   H62       1.0  0.78750  0.52030  0.49020  1.0000 0.1311748639
C   C1        1.0  0.44600  0.44080  0.86940  1.0000 0.6524923409
C   C2        1.0  0.44630  0.40370  0.78350  1.0000 0.0582571592
C   C3        1.0  0.32000  0.38440  0.73230  1.0000 -0.1433188353
C   C4        1.0  0.32050  0.34640  0.65390  1.0000 0.0281034534
C   C5        1.0  0.56800  0.34910  0.67590  1.0000 0.0281034534
C   C6        1.0  0.57300  0.38630  0.75460  1.0000 -0.1117115986
C   C7        1.0  0.45020  0.29010  0.54160  1.0000 -0.1675729339
C   C8        1.0  0.30190  0.24670  0.49300  1.0000 -0.0335679033
C   C9        1.0  0.22500  0.31880  0.46930  1.0000 0.0804686549
C   C10       1.0  0.08790  0.27580  0.42360  1.0000 -0.0401058874
C   C11       1.0  0.99750  0.35390  0.40480  1.0000 -0.1675729339
C   C12       1.0  0.87710  0.36880  0.28450  1.0000 0.0189705604
C   C13       1.0  0.87600  0.38600  0.21480  1.0000 -0.1308770065
C   C14       1.0  0.00420  0.39570  0.18590  1.0000 0.0405165901
C   C15       1.0  0.00890  0.42370  0.11210  1.0000 0.6426749792
C   C16       1.0  0.13000  0.38570  0.22860  1.0000 -0.1308770065
C   C17       1.0  0.12350  0.36650  0.29710  1.0000 0.0189705604
C   C18       1.0  0.02930  0.16440  0.39990  1.0000 0.0804686549
C   C19       1.0  0.10750  0.09420  0.42410  1.0000 -0.0401058874
C   C20       1.0  0.03490  0.97640  0.40330  1.0000 -0.1675729339
C   C21       1.0  0.17440  0.89920  0.30220  1.0000 0.011728027
C   C22       1.0  0.18910  0.82760  0.23360  1.0000 -0.1308770065
C   C23       1.0  0.06440  0.76300  0.18440  1.0000 0.0405165901
C   C24       1.0  0.07380  0.67650  0.11000  1.0000 0.6426749792
C   C25       1.0  0.93260  0.77530  0.20600  1.0000 -0.1308770065
C   C26       1.0  0.92620  0.84700  0.27670  1.0000 0.0189705604
C   C27       1.0  0.24420  0.13460  0.47130  1.0000 0.0804686549
C   C28       1.0  0.33010  0.05910  0.49840  1.0000 -0.4715985839
C   C29       1.0  0.88320  0.12250  0.35080  1.0000 -0.4519616996
C   C30       1.0  0.28710  0.43890  0.49530  1.0000 -0.4715985839
C   C31       1.0  0.55400  0.55920  0.13060  1.0000 0.6524923409
C   C32       1.0  0.55370  0.59630  0.21650  1.0000 0.0582571592
C   C33       1.0  0.68000  0.61560  0.26770  1.0000 -0.1433188353
C   C34       1.0  0.67950  0.65360  0.34610  1.0000 0.0281034534
C   C35       1.0  0.43200  0.65090  0.32410  1.0000 0.0281034534
C   C36       1.0  0.42700  0.61370  0.24540  1.0000 -0.1117115986
C   C37       1.0  0.54980  0.70990  0.45840  1.0000 -0.1675729339
C   C38       1.0  0.69810  0.75330  0.50700  1.0000 -0.0335679033
C   C39       1.0  0.77500  0.68120  0.53070  1.0000 0.0804686549
C   C40       1.0  0.91210  0.72420  0.57640  1.0000 -0.0401058874
C   C41       1.0  0.00250  0.64610  0.59520  1.0000 -0.1675729339
C   C42       1.0  0.12290  0.63120  0.71550  1.0000 0.011728027
C   C43       1.0  0.12400  0.61400  0.78520  1.0000 -0.1308770065
C   C44       1.0  0.99580  0.60430  0.81410  1.0000 0.0405165901
C   C45       1.0  0.99110  0.57630  0.88790  1.0000 0.6426749792
C   C46       1.0  0.87000  0.61430  0.77140  1.0000 -0.1308770065
C   C47       1.0  0.87650  0.63350  0.70290  1.0000 0.0189705604
C   C48       1.0  0.97070  0.83560  0.60010  1.0000 0.0804686549
C   C49       1.0  0.89250  0.90580  0.57590  1.0000 -0.0401058874
C   C50       1.0  0.96510  0.02360  0.59670  1.0000 -0.1675729339
C   C51       1.0  0.82560  0.10080  0.69780  1.0000 0.011728027
C   C52       1.0  0.81090  0.17240  0.76640  1.0000 -0.1308770065
C   C53       1.0  0.93560  0.23700  0.81560  1.0000 0.0405165901
C   C54       1.0  0.92620  0.32350  0.89000  1.0000 0.6426749792
C   C55       1.0  0.06740  0.22470  0.79400  1.0000 -0.1308770065
C   C56       1.0  0.07380  0.15300  0.72330  1.0000 0.0189705604
C   C57       1.0  0.75580  0.86540  0.52870  1.0000 0.0804686549
C   C58       1.0  0.66990  0.94090  0.50160  1.0000 -0.4715985839
C   C59       1.0  0.11680  0.87750  0.64920  1.0000 -0.4519616996
C   C60       1.0  0.71290  0.56110  0.50470  1.0000 -0.4715985839
N   N1        1.0  0.44340  0.32910  0.62760  1.0000 0.121465889
N   N2        1.0  0.99870  0.36040  0.32450  1.0000 0.1125489029
N   N3        1.0  0.04610  0.90700  0.32380  1.0000 0.121465889
N   N4        1.0  0.55660  0.67090  0.37240  1.0000 0.121465889
N   N5        1.0  0.00130  0.63960  0.67550  1.0000 0.1125489029
N   N6        1.0  0.95390  0.09300  0.67620  1.0000 0.121465889
Cl  Cl1       1.0  0.42540  0.10480  0.69750  1.0000 -0.6759660576
Cl  Cl2       1.0  0.53110  0.68890  0.85200  1.0000 -0.6101740484
Cl  Cl3       1.0  0.50500  0.62610  0.67300  1.0000 -0.6101740484
Cl  Cl4       1.0  0.57460  0.89520  0.30250  1.0000 -0.6759660576
Cl  Cl5       1.0  0.46890  0.31110  0.14800  1.0000 -0.6101740484
Cl  Cl6       1.0  0.49500  0.37390  0.32700  1.0000 -0.6101740484
O   O1        1.0  0.56470  0.46320  0.91180  1.0000 -0.6381570582
O   O2        1.0  0.61110  0.33830  0.00310  1.0000 -0.7821381127
O   O3        1.0  0.70440  0.66810  0.99830  1.0000 -0.743234608
O   O4        1.0  0.32600  0.44530  0.88991  1.0000 -0.6381570582
O   O5        1.0  0.13150  0.45090  0.09790  1.0000 -0.6381570582
O   O6        1.0  0.88940  0.41680  0.07360  1.0000 -0.6381570582
O   O7        1.0  0.19630  0.66110  0.09650  1.0000 -0.6287467216
O   O8        1.0  0.95680  0.62420  0.06890  1.0000 -0.6732006704
O   O9        1.0  0.43530  0.53680  0.08820  1.0000 -0.6381570582
O   O10       1.0  0.38890  0.66170  0.99690  1.0000 -0.7821381127
O   O11       1.0  0.29560  0.33190  0.00170  1.0000 -0.743234608
O   O12       1.0  0.67400  0.55470  0.11009  1.0000 -0.6381570582
O   O13       1.0  0.86850  0.54910  0.90210  1.0000 -0.6381570582
O   O14       1.0  0.11060  0.58320  0.92640  1.0000 -0.6381570582
O   O15       1.0  0.80370  0.33890  0.90350  1.0000 -0.6287467216
O   O16       1.0  0.04320  0.37580  0.93110  1.0000 -0.6732006704
