# DDEC6 charges by PACMAN v1.1 (https://github.com/mtap-research/PACMAN-charge/)
data_2017[Co][bnn]3[ION]2
_chemical_formula_sum              "Co8 H152 C192 S8 N24 O48 F24"
_cell_length_a       11.4251
_cell_length_b       25.3667
_cell_length_c       20.4567
_cell_angle_alpha    90
_cell_angle_beta     91.269
_cell_angle_gamma    90

_symmetry_space_group_name_H-M    "P 1"
_symmetry_Int_Tables_number       1

loop_
  _symmetry_equiv_pos_as_xyz
  'x, y, z'

loop_
  _atom_site_type_symbol
  _atom_site_label
  _atom_site_symmetry_multiplicity
  _atom_site_fract_x
  _atom_site_fract_y
  _atom_site_fract_z
  _atom_site_occupancy
  _atom_site_charge
Co  Co1       1.0  0.52703  0.86819  0.22427  1.0000 0.7952472561
Co  Co2       1.0  0.51756  0.87007  0.72583  1.0000 0.8108460301
Co  Co3       1.0  0.52890  0.78456  0.97600  1.0000 0.7944883102
Co  Co4       1.0  0.53270  0.78764  0.47642  1.0000 0.7843154067
Co  Co5       1.0  0.47297  0.36819  0.77573  1.0000 0.7944883102
Co  Co6       1.0  0.48244  0.37007  0.27417  1.0000 0.8108460301
Co  Co7       1.0  0.47110  0.28456  0.02400  1.0000 0.7944883102
Co  Co8       1.0  0.46730  0.28764  0.52358  1.0000 0.7843154067
H   H1        1.0  0.60200  0.88100  0.02360  1.0000 0.3599600413
H   H2        1.0  0.49300  0.76900  0.77720  1.0000 0.3599600413
H   H3        1.0  0.59400  0.88800  0.52360  1.0000 0.3599600413
H   H4        1.0  0.46700  0.77400  0.27400  1.0000 0.3599600413
H   H5        1.0  0.73650  0.79750  0.88400  1.0000 0.1015484073
H   H6        1.0  0.12060  0.79630  0.07490  1.0000 0.1299841421
H   H7        1.0  0.73660  0.84650  0.13320  1.0000 0.1015484073
H   H8        1.0  0.93710  0.79270  0.87990  1.0000 0.1299841421
H   H9        1.0  0.11960  0.75600  0.88380  1.0000 0.1390036726
H   H10       1.0  0.31980  0.76510  0.88680  1.0000 0.1101705972
H   H11       1.0  0.73860  0.75230  0.06710  1.0000 0.1015484073
H   H12       1.0  0.93560  0.85170  0.13020  1.0000 0.1299841421
H   H13       1.0  0.32140  0.85730  0.31770  1.0000 0.1015484073
H   H14       1.0  0.31610  0.89080  0.13000  1.0000 0.1015484073
H   H15       1.0  0.73740  0.89080  0.82360  1.0000 0.1101705972
H   H16       1.0  0.94370  0.75360  0.07330  1.0000 0.1390036726
H   H17       1.0  0.62210  0.92370  0.42810  1.0000 0.1015484073
H   H18       1.0  0.30930  0.84750  0.81570  1.0000 0.1101705972
H   H19       1.0  0.12060  0.86110  0.32110  1.0000 0.1299841421
H   H20       1.0  0.31960  0.80490  0.07260  1.0000 0.1101705972
H   H21       1.0  0.57410  0.93310  0.10100  1.0000 0.1101705972
H   H22       1.0  0.48020  0.72470  0.68600  1.0000 0.1015484073
H   H23       1.0  0.11390  0.89510  0.12720  1.0000 0.1390036726
H   H24       1.0  0.45850  0.98010  0.26720  1.0000 0.1101705972
H   H25       1.0  0.56700  0.01460  0.06340  1.0000 0.1299841421
H   H26       1.0  0.51710  0.07140  0.73700  1.0000 0.1299841421
H   H27       1.0  0.46470  0.06650  0.23430  1.0000 0.1299841421
H   H28       1.0  0.93020  0.88910  0.82290  1.0000 0.1390036726
H   H29       1.0  0.52450  0.98600  0.77400  1.0000 0.1201965847
H   H30       1.0  0.92550  0.86660  0.62910  1.0000 0.1299841421
H   H31       1.0  0.12180  0.79900  0.57710  1.0000 0.1299841421
H   H32       1.0  0.12550  0.76700  0.38250  1.0000 0.1390036726
H   H33       1.0  0.10930  0.85030  0.82070  1.0000 0.1299841421
H   H34       1.0  0.94260  0.80110  0.38100  1.0000 0.1390036726
H   H35       1.0  0.62000  0.92100  0.93000  1.0000 0.1015484073
H   H36       1.0  0.32660  0.77020  0.38900  1.0000 0.1101705972
H   H37       1.0  0.94150  0.90200  0.31610  1.0000 0.1390036726
H   H38       1.0  0.58350  0.09190  0.02820  1.0000 0.1299841421
H   H39       1.0  0.72230  0.86610  0.63050  1.0000 0.1101705972
H   H40       1.0  0.32530  0.80920  0.57310  1.0000 0.1101705972
H   H41       1.0  0.49270  0.01460  0.55320  1.0000 0.1201965847
H   H42       1.0  0.45670  0.72750  0.18430  1.0000 0.1015484073
H   H43       1.0  0.74540  0.89650  0.31660  1.0000 0.1101705972
H   H44       1.0  0.49640  0.93080  0.59360  1.0000 0.1015484073
H   H45       1.0  0.41890  0.14170  0.69180  1.0000 0.1299841421
H   H46       1.0  0.10620  0.89880  0.63030  1.0000 0.1390036726
H   H47       1.0  0.41930  0.13860  0.19280  1.0000 0.1299841421
H   H48       1.0  0.32600  0.89000  0.97890  1.0000 0.1101705972
H   H49       1.0  0.41060  0.22650  0.64690  1.0000 0.1015484073
H   H50       1.0  0.56820  0.09230  0.52590  1.0000 0.1299841421
H   H51       1.0  0.74380  0.77470  0.75040  1.0000 0.1101705972
H   H52       1.0  0.32730  0.89420  0.47810  1.0000 0.1101705972
H   H53       1.0  0.73860  0.76460  0.24440  1.0000 0.1101705972
H   H54       1.0  0.90210  0.70960  0.24910  1.0000 0.1299841421
H   H55       1.0  0.17220  0.95640  0.47640  1.0000 0.1299841421
H   H56       1.0  0.17960  0.95290  0.98960  1.0000 0.1299841421
H   H57       1.0  0.74040  0.80130  0.38370  1.0000 0.1015484073
H   H58       1.0  0.30630  0.89440  0.63270  1.0000 0.1015484073
H   H59       1.0  0.89110  0.62660  0.20140  1.0000 0.1201965847
H   H60       1.0  0.54120  0.00410  0.91970  1.0000 0.1201965847
H   H61       1.0  0.55370  0.17720  0.48560  1.0000 0.1101705972
H   H62       1.0  0.53400  0.00420  0.39520  1.0000 0.1201965847
H   H63       1.0  0.40610  0.22260  0.14540  1.0000 0.1015484073
H   H64       1.0  0.56390  0.17600  0.98850  1.0000 0.1101705972
H   H65       1.0  0.94930  0.76670  0.57350  1.0000 0.1299841421
H   H66       1.0  0.55850  0.65100  0.14320  1.0000 0.1201965847
H   H67       1.0  0.74470  0.76240  0.56820  1.0000 0.1015484073
H   H68       1.0  0.60660  0.66460  0.62740  1.0000 0.1101705972
H   H69       1.0  0.72690  0.60060  0.15020  1.0000 0.1201965847
H   H70       1.0  0.95080  0.66130  0.67780  1.0000 0.1201965847
H   H71       1.0  0.79190  0.62630  0.61940  1.0000 0.1101705972
H   H72       1.0  0.38170  0.06500  0.39890  1.0000 0.1101705972
H   H73       1.0  0.92090  0.73070  0.75140  1.0000 0.1201965847
H   H74       1.0  0.19670  0.03810  0.43140  1.0000 0.1201965847
H   H75       1.0  0.21780  0.03860  0.98190  1.0000 0.1201965847
H   H76       1.0  0.39470  0.06760  0.93410  1.0000 0.1015484073
H   H77       1.0  0.39800  0.38100  0.97640  1.0000 0.3599600413
H   H78       1.0  0.50700  0.26900  0.22280  1.0000 0.3599600413
H   H79       1.0  0.40600  0.38800  0.47640  1.0000 0.3599600413
H   H80       1.0  0.53300  0.27400  0.72600  1.0000 0.3599600413
H   H81       1.0  0.26350  0.29750  0.11600  1.0000 0.1015484073
H   H82       1.0  0.87940  0.29630  0.92510  1.0000 0.1299841421
H   H83       1.0  0.26340  0.34650  0.86680  1.0000 0.1015484073
H   H84       1.0  0.06290  0.29270  0.12010  1.0000 0.1299841421
H   H85       1.0  0.88040  0.25600  0.11620  1.0000 0.1390036726
H   H86       1.0  0.68020  0.26510  0.11320  1.0000 0.1101705972
H   H87       1.0  0.26140  0.25230  0.93290  1.0000 0.1015484073
H   H88       1.0  0.06440  0.35170  0.86980  1.0000 0.1299841421
H   H89       1.0  0.67860  0.35730  0.68230  1.0000 0.1015484073
H   H90       1.0  0.68390  0.39080  0.87000  1.0000 0.1015484073
H   H91       1.0  0.26260  0.39080  0.17640  1.0000 0.1101705972
H   H92       1.0  0.05630  0.25360  0.92670  1.0000 0.1390036726
H   H93       1.0  0.37790  0.42370  0.57190  1.0000 0.1015484073
H   H94       1.0  0.69070  0.34750  0.18430  1.0000 0.1101705972
H   H95       1.0  0.87940  0.36110  0.67890  1.0000 0.1299841421
H   H96       1.0  0.68040  0.30490  0.92740  1.0000 0.1101705972
H   H97       1.0  0.42590  0.43310  0.89900  1.0000 0.1101705972
H   H98       1.0  0.51980  0.22470  0.31400  1.0000 0.1015484073
H   H99       1.0  0.88610  0.39510  0.87280  1.0000 0.1299841421
H   H100      1.0  0.54150  0.48010  0.73280  1.0000 0.1101705972
H   H101      1.0  0.43300  0.51460  0.93660  1.0000 0.1299841421
H   H102      1.0  0.48290  0.57140  0.26300  1.0000 0.1299841421
H   H103      1.0  0.53530  0.56650  0.76570  1.0000 0.1299841421
H   H104      1.0  0.06980  0.38910  0.17710  1.0000 0.1390036726
H   H105      1.0  0.47550  0.48600  0.22600  1.0000 0.1201965847
H   H106      1.0  0.07450  0.36660  0.37090  1.0000 0.1299841421
H   H107      1.0  0.87820  0.29900  0.42290  1.0000 0.1299841421
H   H108      1.0  0.87450  0.26700  0.61750  1.0000 0.1390036726
H   H109      1.0  0.89070  0.35030  0.17930  1.0000 0.1299841421
H   H110      1.0  0.05740  0.30110  0.61900  1.0000 0.1390036726
H   H111      1.0  0.38000  0.42100  0.07000  1.0000 0.1015484073
H   H112      1.0  0.67340  0.27020  0.61100  1.0000 0.1101705972
H   H113      1.0  0.05850  0.40200  0.68390  1.0000 0.1390036726
H   H114      1.0  0.41650  0.59190  0.97180  1.0000 0.1299841421
H   H115      1.0  0.27770  0.36610  0.36950  1.0000 0.1101705972
H   H116      1.0  0.67470  0.30920  0.42690  1.0000 0.1101705972
H   H117      1.0  0.50730  0.51460  0.44680  1.0000 0.1201965847
H   H118      1.0  0.54330  0.22750  0.81570  1.0000 0.1015484073
H   H119      1.0  0.25460  0.39650  0.68340  1.0000 0.1101705972
H   H120      1.0  0.50360  0.43080  0.40640  1.0000 0.1015484073
H   H121      1.0  0.58110  0.64170  0.30820  1.0000 0.1299841421
H   H122      1.0  0.89380  0.39880  0.36970  1.0000 0.1390036726
H   H123      1.0  0.58070  0.63860  0.80720  1.0000 0.1299841421
H   H124      1.0  0.67400  0.39000  0.02110  1.0000 0.1101705972
H   H125      1.0  0.58940  0.72650  0.35310  1.0000 0.1015484073
H   H126      1.0  0.43180  0.59230  0.47410  1.0000 0.1299841421
H   H127      1.0  0.25620  0.27470  0.24960  1.0000 0.1101705972
H   H128      1.0  0.67270  0.39420  0.52190  1.0000 0.1101705972
H   H129      1.0  0.26140  0.26460  0.75560  1.0000 0.1101705972
H   H130      1.0  0.09790  0.20960  0.75090  1.0000 0.1299841421
H   H131      1.0  0.82780  0.45640  0.52360  1.0000 0.1299841421
H   H132      1.0  0.82040  0.45290  0.01040  1.0000 0.1299841421
H   H133      1.0  0.25960  0.30130  0.61630  1.0000 0.1015484073
H   H134      1.0  0.69370  0.39440  0.36730  1.0000 0.1015484073
H   H135      1.0  0.10890  0.12660  0.79860  1.0000 0.1201965847
H   H136      1.0  0.45880  0.50410  0.08030  1.0000 0.1201965847
H   H137      1.0  0.44630  0.67720  0.51440  1.0000 0.1101705972
H   H138      1.0  0.46600  0.50420  0.60480  1.0000 0.1201965847
H   H139      1.0  0.59390  0.72260  0.85460  1.0000 0.1015484073
H   H140      1.0  0.43610  0.67600  0.01150  1.0000 0.1101705972
H   H141      1.0  0.05070  0.26670  0.42650  1.0000 0.1299841421
H   H142      1.0  0.44150  0.15100  0.85680  1.0000 0.1201965847
H   H143      1.0  0.25530  0.26240  0.43180  1.0000 0.1015484073
H   H144      1.0  0.39340  0.16460  0.37260  1.0000 0.1101705972
H   H145      1.0  0.27310  0.10060  0.84980  1.0000 0.1201965847
H   H146      1.0  0.04920  0.16130  0.32220  1.0000 0.1201965847
H   H147      1.0  0.20810  0.12630  0.38060  1.0000 0.1101705972
H   H148      1.0  0.61830  0.56500  0.60110  1.0000 0.1101705972
H   H149      1.0  0.07910  0.23070  0.24860  1.0000 0.1201965847
H   H150      1.0  0.80330  0.53810  0.56860  1.0000 0.1201965847
H   H151      1.0  0.78220  0.53860  0.01810  1.0000 0.1201965847
H   H152      1.0  0.60530  0.56760  0.06590  1.0000 0.1015484073
C   C1        1.0  0.77900  0.78770  0.92250  1.0000 0.0917655662
C   C2        1.0  0.15960  0.79020  0.03510  1.0000 -0.1600530243
C   C3        1.0  0.96830  0.78160  0.47530  1.0000 0.1101705972
C   C4        1.0  0.09220  0.77740  0.97770  1.0000 0.1101705972
C   C5        1.0  0.77860  0.85810  0.17110  1.0000 0.0798729413
C   C6        1.0  0.53000  0.86660  0.37410  1.0000 0.5562010997
C   C7        1.0  0.89890  0.78620  0.91990  1.0000 -0.1796352497
C   C8        1.0  0.15790  0.76660  0.92340  1.0000 -0.1897767903
C   C9        1.0  0.53290  0.78630  0.62760  1.0000 0.5805546188
C   C10       1.0  0.27850  0.77090  0.92590  1.0000 0.0917655662
C   C11       1.0  0.78060  0.76240  0.02950  1.0000 0.0917655662
C   C12       1.0  0.96500  0.87740  0.22400  1.0000 0.1015484073
C   C13       1.0  0.89730  0.86100  0.16930  1.0000 -0.1796352497
C   C14       1.0  0.09760  0.78310  0.47790  1.0000 0.1201965847
C   C15       1.0  0.27890  0.86480  0.27830  1.0000 0.0917655662
C   C16       1.0  0.27550  0.88420  0.16920  1.0000 0.0798729413
C   C17       1.0  0.08360  0.87380  0.72490  1.0000 0.1299841421
C   C18       1.0  0.95430  0.87590  0.72770  1.0000 0.0917655662
C   C19       1.0  0.77470  0.88460  0.78330  1.0000 0.0612291892
C   C20       1.0  0.90300  0.76210  0.03370  1.0000 -0.1796352497
C   C21       1.0  0.54710  0.90390  0.43290  1.0000 -0.0147670812
C   C22       1.0  0.26610  0.85750  0.77750  1.0000 0.1015484073
C   C23       1.0  0.15820  0.86690  0.28080  1.0000 -0.1796352497
C   C24       1.0  0.96330  0.77520  0.97630  1.0000 0.1201965847
C   C25       1.0  0.27830  0.79400  0.03410  1.0000 0.0706716756
C   C26       1.0  0.50440  0.10550  0.11600  1.0000 0.1201965847
C   C27       1.0  0.55000  0.96020  0.13000  1.0000 0.0798729413
C   C28       1.0  0.54350  0.75200  0.68780  1.0000 -0.019203607
C   C29       1.0  0.50100  0.05240  0.63940  1.0000 0.1101705972
C   C30       1.0  0.15430  0.88690  0.16700  1.0000 -0.1796352497
C   C31       1.0  0.51120  0.05140  0.14120  1.0000 0.1101705972
C   C32       1.0  0.48700  0.98750  0.22480  1.0000 0.0706716756
C   C33       1.0  0.54500  0.00910  0.10740  1.0000 -0.2017077114
C   C34       1.0  0.51250  0.04300  0.70690  1.0000 -0.1897767903
C   C35       1.0  0.48400  0.03930  0.20460  1.0000 -0.2017077114
C   C36       1.0  0.88910  0.88380  0.78250  1.0000 -0.1600530243
C   C37       1.0  0.51710  0.99190  0.72820  1.0000 0.0706716756
C   C38       1.0  0.52300  0.86660  0.87600  1.0000 0.5659524196
C   C39       1.0  0.09120  0.87750  0.22460  1.0000 0.1101705972
C   C40       1.0  0.88710  0.87040  0.66960  1.0000 -0.1796352497
C   C41       1.0  0.52890  0.78530  0.12700  1.0000 0.5805546188
C   C42       1.0  0.16130  0.79440  0.53710  1.0000 -0.1796352497
C   C43       1.0  0.16330  0.77450  0.42330  1.0000 -0.1897767903
C   C44       1.0  0.14740  0.85900  0.78140  1.0000 -0.1897767903
C   C45       1.0  0.90450  0.79310  0.42060  1.0000 -0.1600530243
C   C46       1.0  0.54440  0.90180  0.93540  1.0000 -0.019203607
C   C47       1.0  0.28420  0.77690  0.42760  1.0000 0.1015484073
C   C48       1.0  0.90130  0.89030  0.27760  1.0000 -0.1702578074
C   C49       1.0  0.54660  0.11810  0.05380  1.0000 -0.1897767903
C   C50       1.0  0.76540  0.87040  0.67040  1.0000 0.0798729413
C   C51       1.0  0.28330  0.79840  0.53490  1.0000 0.0917655662
C   C52       1.0  0.49770  0.00950  0.59920  1.0000 -0.1796352497
C   C53       1.0  0.52790  0.75040  0.18720  1.0000 -0.019203607
C   C54       1.0  0.49440  0.10640  0.61320  1.0000 0.1201965847
C   C55       1.0  0.78440  0.88710  0.27770  1.0000 0.0612291892
C   C56       1.0  0.50140  0.95940  0.62360  1.0000 0.0798729413
C   C57       1.0  0.44730  0.14780  0.64920  1.0000 -0.1796352497
C   C58       1.0  0.14660  0.88760  0.66900  1.0000 -0.1796352497
C   C59       1.0  0.45020  0.14500  0.15080  1.0000 -0.1796352497
C   C60       1.0  0.45000  0.94110  0.94640  1.0000 0.0706716756
C   C61       1.0  0.34130  0.92590  0.96920  1.0000 -0.1294739849
C   C62       1.0  0.44230  0.19870  0.62180  1.0000 0.1015484073
C   C63       1.0  0.53430  0.11900  0.55210  1.0000 -0.1897767903
C   C64       1.0  0.44730  0.94280  0.43740  1.0000 0.0706716756
C   C65       1.0  0.63220  0.71550  0.19210  1.0000 0.0706716756
C   C66       1.0  0.65780  0.72540  0.68920  1.0000 0.0612291892
C   C67       1.0  0.75220  0.74390  0.72460  1.0000 -0.1399196144
C   C68       1.0  0.33930  0.92860  0.46100  1.0000 -0.1399196144
C   C69       1.0  0.73490  0.73090  0.22420  1.0000 -0.1399196144
C   C70       1.0  0.83200  0.69820  0.22760  1.0000 -0.0874821476
C   C71       1.0  0.24600  0.96590  0.45950  1.0000 -0.0796870149
C   C72       1.0  0.25600  0.96380  0.97770  1.0000 -0.0796870149
C   C73       1.0  0.78320  0.79320  0.42280  1.0000 0.0706716756
C   C74       1.0  0.26470  0.88490  0.67060  1.0000 0.0706716756
C   C75       1.0  0.82550  0.64960  0.19940  1.0000 -0.1009950669
C   C76       1.0  0.46710  0.99320  0.93500  1.0000 -0.1600530243
C   C77       1.0  0.52570  0.17010  0.52810  1.0000 0.0917655662
C   C78       1.0  0.46100  0.99400  0.41260  1.0000 -0.1495578183
C   C79       1.0  0.44270  0.19530  0.12150  1.0000 0.0917655662
C   C80       1.0  0.53420  0.16840  0.03050  1.0000 0.0917655662
C   C81       1.0  0.90810  0.77230  0.53320  1.0000 -0.1897767903
C   C82       1.0  0.62740  0.66410  0.16430  1.0000 -0.1600530243
C   C83       1.0  0.78530  0.77150  0.52980  1.0000 0.1015484073
C   C84       1.0  0.67180  0.67940  0.65040  1.0000 -0.1495578183
C   C85       1.0  0.72800  0.63470  0.16960  1.0000 -0.1073662291
C   C86       1.0  0.87500  0.67630  0.68190  1.0000 -0.0874821476
C   C87       1.0  0.78150  0.65630  0.64660  1.0000 -0.1073662291
C   C88       1.0  0.37000  0.02980  0.41320  1.0000 -0.1009950669
C   C89       1.0  0.85850  0.71890  0.72360  1.0000 -0.0796870149
C   C90       1.0  0.26100  0.01440  0.43450  1.0000 -0.1073662291
C   C91       1.0  0.27600  0.01370  0.97000  1.0000 -0.1073662291
C   C92       1.0  0.38200  0.03160  0.94440  1.0000 -0.1009950669
C   C93       1.0  0.22100  0.28770  0.07750  1.0000 0.0917655662
C   C94       1.0  0.84040  0.29020  0.96490  1.0000 -0.1600530243
C   C95       1.0  0.03170  0.28160  0.52470  1.0000 0.1101705972
C   C96       1.0  0.90780  0.27740  0.02230  1.0000 0.1101705972
C   C97       1.0  0.22140  0.35810  0.82890  1.0000 0.0798729413
C   C98       1.0  0.47000  0.36660  0.62590  1.0000 0.5562010997
C   C99       1.0  0.10110  0.28620  0.08010  1.0000 -0.1796352497
C   C100      1.0  0.84210  0.26660  0.07660  1.0000 -0.1897767903
C   C101      1.0  0.46710  0.28630  0.37240  1.0000 0.5805546188
C   C102      1.0  0.72150  0.27090  0.07410  1.0000 0.0917655662
C   C103      1.0  0.21940  0.26240  0.97050  1.0000 0.0917655662
C   C104      1.0  0.03500  0.37740  0.77600  1.0000 0.1015484073
C   C105      1.0  0.10270  0.36100  0.83070  1.0000 -0.1796352497
C   C106      1.0  0.90240  0.28310  0.52210  1.0000 0.1201965847
C   C107      1.0  0.72110  0.36480  0.72170  1.0000 0.0917655662
C   C108      1.0  0.72450  0.38420  0.83080  1.0000 0.0798729413
C   C109      1.0  0.91640  0.37380  0.27510  1.0000 0.1299841421
C   C110      1.0  0.04570  0.37590  0.27230  1.0000 0.0917655662
C   C111      1.0  0.22530  0.38460  0.21670  1.0000 0.0612291892
C   C112      1.0  0.09700  0.26210  0.96630  1.0000 -0.1796352497
C   C113      1.0  0.45290  0.40390  0.56710  1.0000 -0.0147670812
C   C114      1.0  0.73390  0.35750  0.22250  1.0000 0.1015484073
C   C115      1.0  0.84180  0.36690  0.71920  1.0000 -0.1796352497
C   C116      1.0  0.03670  0.27520  0.02370  1.0000 0.1201965847
C   C117      1.0  0.72170  0.29400  0.96590  1.0000 0.0706716756
C   C118      1.0  0.49560  0.60550  0.88400  1.0000 0.1201965847
C   C119      1.0  0.45000  0.46020  0.87000  1.0000 0.0798729413
C   C120      1.0  0.45650  0.25200  0.31220  1.0000 -0.019203607
C   C121      1.0  0.49900  0.55240  0.36060  1.0000 0.1101705972
C   C122      1.0  0.84570  0.38690  0.83300  1.0000 -0.1796352497
C   C123      1.0  0.48880  0.55140  0.85880  1.0000 0.1101705972
C   C124      1.0  0.51300  0.48750  0.77520  1.0000 0.0706716756
C   C125      1.0  0.45500  0.50910  0.89260  1.0000 -0.2017077114
C   C126      1.0  0.48750  0.54300  0.29310  1.0000 -0.1897767903
C   C127      1.0  0.51600  0.53930  0.79540  1.0000 -0.2017077114
C   C128      1.0  0.11090  0.38380  0.21750  1.0000 -0.1600530243
C   C129      1.0  0.48290  0.49190  0.27180  1.0000 0.0706716756
C   C130      1.0  0.47700  0.36660  0.12400  1.0000 0.5659524196
C   C131      1.0  0.90880  0.37750  0.77540  1.0000 0.1101705972
C   C132      1.0  0.11290  0.37040  0.33040  1.0000 -0.1796352497
C   C133      1.0  0.47110  0.28530  0.87300  1.0000 0.5805546188
C   C134      1.0  0.83870  0.29440  0.46290  1.0000 -0.1796352497
C   C135      1.0  0.83670  0.27450  0.57670  1.0000 -0.1897767903
C   C136      1.0  0.85260  0.35900  0.21860  1.0000 -0.1897767903
C   C137      1.0  0.09550  0.29310  0.57940  1.0000 -0.1600530243
C   C138      1.0  0.45560  0.40180  0.06460  1.0000 -0.019203607
C   C139      1.0  0.71580  0.27690  0.57240  1.0000 0.1015484073
C   C140      1.0  0.09870  0.39030  0.72240  1.0000 -0.1702578074
C   C141      1.0  0.45340  0.61810  0.94620  1.0000 -0.1897767903
C   C142      1.0  0.23460  0.37040  0.32960  1.0000 0.0798729413
C   C143      1.0  0.71670  0.29840  0.46510  1.0000 0.0917655662
C   C144      1.0  0.50230  0.50950  0.40080  1.0000 -0.1796352497
C   C145      1.0  0.47210  0.25040  0.81280  1.0000 -0.019203607
C   C146      1.0  0.50560  0.60640  0.38680  1.0000 0.1201965847
C   C147      1.0  0.21560  0.38710  0.72230  1.0000 0.0612291892
C   C148      1.0  0.49860  0.45940  0.37640  1.0000 0.0798729413
C   C149      1.0  0.55270  0.64780  0.35080  1.0000 -0.1796352497
C   C150      1.0  0.85340  0.38760  0.33100  1.0000 -0.1796352497
C   C151      1.0  0.54980  0.64500  0.84920  1.0000 -0.1796352497
C   C152      1.0  0.55000  0.44110  0.05360  1.0000 0.0706716756
C   C153      1.0  0.65870  0.42590  0.03080  1.0000 -0.1294739849
C   C154      1.0  0.55770  0.69870  0.37820  1.0000 0.1015484073
C   C155      1.0  0.46570  0.61900  0.44790  1.0000 -0.1897767903
C   C156      1.0  0.55270  0.44280  0.56260  1.0000 0.0706716756
C   C157      1.0  0.36780  0.21550  0.80790  1.0000 0.0706716756
C   C158      1.0  0.34220  0.22540  0.31080  1.0000 0.0612291892
C   C159      1.0  0.24780  0.24390  0.27540  1.0000 -0.1399196144
C   C160      1.0  0.66070  0.42860  0.53900  1.0000 -0.1399196144
C   C161      1.0  0.26510  0.23090  0.77580  1.0000 -0.1399196144
C   C162      1.0  0.16800  0.19820  0.77240  1.0000 -0.0874821476
C   C163      1.0  0.75400  0.46590  0.54050  1.0000 -0.0796870149
C   C164      1.0  0.74400  0.46380  0.02230  1.0000 -0.0796870149
C   C165      1.0  0.21680  0.29320  0.57720  1.0000 0.0706716756
C   C166      1.0  0.73530  0.38490  0.32940  1.0000 0.0706716756
C   C167      1.0  0.17450  0.14960  0.80060  1.0000 -0.1009950669
C   C168      1.0  0.53290  0.49320  0.06500  1.0000 -0.1600530243
C   C169      1.0  0.47430  0.67010  0.47190  1.0000 0.0917655662
C   C170      1.0  0.53900  0.49400  0.58740  1.0000 -0.1495578183
C   C171      1.0  0.55730  0.69530  0.87850  1.0000 0.0917655662
C   C172      1.0  0.46580  0.66840  0.96950  1.0000 0.0917655662
C   C173      1.0  0.09190  0.27230  0.46680  1.0000 -0.1897767903
C   C174      1.0  0.37260  0.16410  0.83570  1.0000 -0.1600530243
C   C175      1.0  0.21470  0.27150  0.47020  1.0000 0.1015484073
C   C176      1.0  0.32820  0.17940  0.34960  1.0000 -0.1495578183
C   C177      1.0  0.27200  0.13470  0.83040  1.0000 -0.1073662291
C   C178      1.0  0.12500  0.17630  0.31810  1.0000 -0.0874821476
C   C179      1.0  0.21850  0.15630  0.35340  1.0000 -0.1073662291
C   C180      1.0  0.63000  0.52980  0.58680  1.0000 -0.1009950669
C   C181      1.0  0.14150  0.21890  0.27640  1.0000 -0.0796870149
C   C182      1.0  0.73900  0.51440  0.56550  1.0000 -0.1073662291
C   C183      1.0  0.72400  0.51370  0.03000  1.0000 -0.1073662291
C   C184      1.0  0.61800  0.53160  0.05560  1.0000 -0.1009950669
C   C185      1.0  0.73600  0.14830  0.28490  1.0000 0.4990046018
C   C186      1.0  0.77700  0.15710  0.76840  1.0000 0.4743996256
C   C187      1.0  0.12950  0.48990  0.98350  1.0000 0.5070337349
C   C188      1.0  0.18100  0.50310  0.49380  1.0000 0.4990046018
C   C189      1.0  0.26400  0.64830  0.71510  1.0000 0.4990046018
C   C190      1.0  0.22300  0.65710  0.23160  1.0000 0.4743996256
C   C191      1.0  0.87050  0.98990  0.01650  1.0000 0.5070337349
C   C192      1.0  0.81900  0.00310  0.50620  1.0000 0.4990046018
S   S1        1.0  0.75830  0.21670  0.26090  1.0000 1.0006430341
S   S2        1.0  0.78270  0.22680  0.75910  1.0000 1.0006430341
S   S3        1.0  0.13160  0.42022  0.00260  1.0000 1.0006430341
S   S4        1.0  0.13570  0.43100  0.50320  1.0000 1.0132104748
S   S5        1.0  0.24170  0.71670  0.73910  1.0000 1.0006430341
S   S6        1.0  0.21730  0.72680  0.24090  1.0000 1.0006430341
S   S7        1.0  0.86840  0.92022  0.99740  1.0000 1.0006430341
S   S8        1.0  0.86430  0.93100  0.49680  1.0000 1.0132104748
N   N1        1.0  0.33960  0.87250  0.22420  1.0000 -0.2503441489
N   N2        1.0  0.33980  0.78270  0.97950  1.0000 -0.2503441489
N   N3        1.0  0.71790  0.87110  0.22500  1.0000 -0.2627983099
N   N4        1.0  0.71870  0.77620  0.97520  1.0000 -0.2388681825
N   N5        1.0  0.32600  0.86890  0.72480  1.0000 -0.2333638712
N   N6        1.0  0.34350  0.78750  0.48070  1.0000 -0.2388681825
N   N7        1.0  0.52490  0.94690  0.18950  1.0000 -0.2333638712
N   N8        1.0  0.72260  0.78270  0.47660  1.0000 -0.2388681825
N   N9        1.0  0.51170  0.94840  0.68810  1.0000 -0.2503441489
N   N10       1.0  0.70600  0.87670  0.72770  1.0000 -0.2751290208
N   N11       1.0  0.48020  0.20970  0.56170  1.0000 -0.2503441489
N   N12       1.0  0.48330  0.20730  0.06270  1.0000 -0.2503441489
N   N13       1.0  0.66040  0.37250  0.77580  1.0000 -0.2503441489
N   N14       1.0  0.66020  0.28270  0.02050  1.0000 -0.2503441489
N   N15       1.0  0.28210  0.37110  0.77500  1.0000 -0.2627983099
N   N16       1.0  0.28130  0.27620  0.02480  1.0000 -0.2388681825
N   N17       1.0  0.67400  0.36890  0.27520  1.0000 -0.2333638712
N   N18       1.0  0.65650  0.28750  0.51930  1.0000 -0.2388681825
N   N19       1.0  0.47510  0.44690  0.81050  1.0000 -0.2333638712
N   N20       1.0  0.27740  0.28270  0.52340  1.0000 -0.2388681825
N   N21       1.0  0.48830  0.44840  0.31190  1.0000 -0.2503441489
N   N22       1.0  0.29400  0.37670  0.27230  1.0000 -0.2744418687
N   N23       1.0  0.51980  0.70970  0.43830  1.0000 -0.2503441489
N   N24       1.0  0.51670  0.70730  0.93730  1.0000 -0.2503441489
O   O1        1.0  0.55620  0.86670  0.99200  1.0000 -0.5007289059
O   O2        1.0  0.52010  0.81930  0.38160  1.0000 -0.5092137462
O   O3        1.0  0.52730  0.83530  0.13220  1.0000 -0.550845499
O   O4        1.0  0.52670  0.78540  0.74390  1.0000 -0.5092137462
O   O5        1.0  0.51920  0.83720  0.63380  1.0000 -0.5693256861
O   O6        1.0  0.55470  0.87190  0.49160  1.0000 -0.5007289059
O   O7        1.0  0.52880  0.89170  0.31970  1.0000 -0.550845499
O   O8        1.0  0.51370  0.81830  0.88080  1.0000 -0.5322809524
O   O9        1.0  0.51550  0.89280  0.82180  1.0000 -0.5615582906
O   O10       1.0  0.51760  0.78400  0.24380  1.0000 -0.5092137462
O   O11       1.0  0.53700  0.76420  0.57150  1.0000 -0.5615582906
O   O12       1.0  0.53250  0.76110  0.07160  1.0000 -0.5615582906
O   O13       1.0  0.44380  0.36670  0.00800  1.0000 -0.5007289059
O   O14       1.0  0.47990  0.31930  0.61840  1.0000 -0.5092137462
O   O15       1.0  0.47270  0.33530  0.86780  1.0000 -0.550845499
O   O16       1.0  0.47330  0.28540  0.25610  1.0000 -0.5092137462
O   O17       1.0  0.48080  0.33720  0.36620  1.0000 -0.5693256861
O   O18       1.0  0.44530  0.37190  0.50840  1.0000 -0.5007289059
O   O19       1.0  0.47120  0.39170  0.68030  1.0000 -0.550845499
O   O20       1.0  0.48630  0.31830  0.11920  1.0000 -0.5322809524
O   O21       1.0  0.48450  0.39280  0.17820  1.0000 -0.5615582906
O   O22       1.0  0.48240  0.28400  0.75620  1.0000 -0.5092137462
O   O23       1.0  0.46300  0.26420  0.42850  1.0000 -0.5615582906
O   O24       1.0  0.46750  0.26110  0.92840  1.0000 -0.5615582906
O   O25       1.0  0.65800  0.22830  0.21850  1.0000 -0.5615582906
O   O26       1.0  0.75600  0.24260  0.32530  1.0000 -0.5615582906
O   O27       1.0  0.86830  0.21770  0.23080  1.0000 -0.5322809524
O   O28       1.0  0.68010  0.23780  0.71770  1.0000 -0.5693256861
O   O29       1.0  0.77360  0.24340  0.82620  1.0000 -0.550845499
O   O30       1.0  0.89350  0.23810  0.73190  1.0000 -0.550845499
O   O31       1.0  0.23270  0.40070  0.96830  1.0000 -0.5615582906
O   O32       1.0  0.14930  0.42030  0.07220  1.0000 -0.5433735705
O   O33       1.0  0.01880  0.40120  0.97990  1.0000 -0.550845499
O   O34       1.0  0.23120  0.40480  0.47120  1.0000 -0.5433735705
O   O35       1.0  0.02330  0.42660  0.47220  1.0000 -0.5322809524
O   O36       1.0  0.13840  0.42550  0.57250  1.0000 -0.5322809524
O   O37       1.0  0.34200  0.72830  0.78150  1.0000 -0.5615582906
O   O38       1.0  0.24400  0.74260  0.67470  1.0000 -0.5615582906
O   O39       1.0  0.13170  0.71770  0.76920  1.0000 -0.5322809524
O   O40       1.0  0.31990  0.73780  0.28230  1.0000 -0.5693256861
O   O41       1.0  0.22640  0.74340  0.17380  1.0000 -0.550845499
O   O42       1.0  0.10650  0.73810  0.26810  1.0000 -0.550845499
O   O43       1.0  0.76730  0.90070  0.03170  1.0000 -0.550845499
O   O44       1.0  0.85070  0.92030  0.92780  1.0000 -0.5433735705
O   O45       1.0  0.98120  0.90120  0.02010  1.0000 -0.550845499
O   O46       1.0  0.76880  0.90480  0.52880  1.0000 -0.5433735705
O   O47       1.0  0.97670  0.92660  0.52780  1.0000 -0.5322809524
O   O48       1.0  0.86160  0.92550  0.42750  1.0000 -0.5322809524
F   F1        1.0  0.73530  0.11810  0.22900  1.0000 -0.1897767903
F   F2        1.0  0.63450  0.14080  0.31020  1.0000 -0.1897767903
F   F3        1.0  0.81890  0.13090  0.32360  1.0000 -0.1897767903
F   F4        1.0  0.67480  0.14190  0.79790  1.0000 -0.1897767903
F   F5        1.0  0.86170  0.13650  0.80600  1.0000 -0.1897767903
F   F6        1.0  0.77030  0.13100  0.71400  1.0000 -0.1702578074
F   F7        1.0  0.23030  0.51230  0.00380  1.0000 -0.2076634572
F   F8        1.0  0.03760  0.51200  0.00870  1.0000 -0.2076634572
F   F9        1.0  0.12510  0.49510  0.91720  1.0000 -0.1897767903
F   F10       1.0  0.18120  0.51320  0.43370  1.0000 -0.1796352497
F   F11       1.0  0.27840  0.51120  0.52380  1.0000 -0.2076634572
F   F12       1.0  0.08950  0.52910  0.52120  1.0000 -0.2017077114
F   F13       1.0  0.26470  0.61810  0.77100  1.0000 -0.1897767903
F   F14       1.0  0.36550  0.64080  0.68980  1.0000 -0.1897767903
F   F15       1.0  0.18110  0.63090  0.67640  1.0000 -0.1897767903
F   F16       1.0  0.32520  0.64190  0.20210  1.0000 -0.1897767903
F   F17       1.0  0.13830  0.63650  0.19400  1.0000 -0.1897767903
F   F18       1.0  0.22970  0.63100  0.28600  1.0000 -0.1702578074
F   F19       1.0  0.76970  0.01230  0.99620  1.0000 -0.2076634572
F   F20       1.0  0.96240  0.01200  0.99130  1.0000 -0.2076634572
F   F21       1.0  0.87490  0.99510  0.08280  1.0000 -0.1897767903
F   F22       1.0  0.81880  0.01320  0.56630  1.0000 -0.1796352497
F   F23       1.0  0.72160  0.01120  0.47620  1.0000 -0.2076634572
F   F24       1.0  0.91050  0.02910  0.47880  1.0000 -0.2017077114
