# DDEC6 charges by PACMAN v1.1 (https://github.com/mtap-research/PACMAN-charge/)
data_2017[Ag][srs]3[ION]11
_chemical_formula_sum              "Ag6 H108 C144 Br12 N40 Cl6 O24"
_cell_length_a       18.4597
_cell_length_b       18.4597
_cell_length_c       18.4597
_cell_angle_alpha    109.471
_cell_angle_beta     109.471
_cell_angle_gamma    109.471

_symmetry_space_group_name_H-M    "P 1"
_symmetry_Int_Tables_number       1

loop_
  _symmetry_equiv_pos_as_xyz
  'x, y, z'

loop_
  _atom_site_type_symbol
  _atom_site_label
  _atom_site_symmetry_multiplicity
  _atom_site_fract_x
  _atom_site_fract_y
  _atom_site_fract_z
  _atom_site_occupancy
  _atom_site_charge
Ag  Ag1       1.0  0.25000  0.71264  0.46264  1.0000 0.2882475078
Ag  Ag2       1.0  0.75000  0.78736  0.03736  1.0000 0.2882475078
Ag  Ag3       1.0  0.78736  0.03736  0.75000  1.0000 0.2882475078
Ag  Ag4       1.0  0.71264  0.46264  0.25000  1.0000 0.2882475078
Ag  Ag5       1.0  0.46264  0.25000  0.71264  1.0000 0.2882475078
Ag  Ag6       1.0  0.03736  0.75000  0.78736  1.0000 0.2882475078
H   H1        1.0  0.06100  0.60390  0.14950  1.0000 0.1283984866
H   H2        1.0  0.11000  0.60290  0.28250  1.0000 0.1096438065
H   H3        1.0  0.13380  0.39130  0.17030  1.0000 0.1283984866
H   H4        1.0  0.09370  0.39680  0.04150  1.0000 0.1206995175
H   H5        1.0  0.15350  0.43800  0.31670  1.0000 0.1206995175
H   H6        1.0  0.21190  0.50730  0.59600  1.0000 0.1570048004
H   H7        1.0  0.28600  0.61510  0.74290  1.0000 0.1096438065
H   H8        1.0  0.35420  0.76550  0.78370  1.0000 0.1283984866
H   H9        1.0  0.18180  0.47660  0.45000  1.0000 0.2847448259
H   H10       1.0  0.95440  0.91150  0.35050  1.0000 0.1283984866
H   H11       1.0  0.82040  0.82750  0.21750  1.0000 0.1096438065
H   H12       1.0  0.72100  0.96350  0.32970  1.0000 0.1283984866
H   H13       1.0  0.85530  0.05220  0.45850  1.0000 0.1206995175
H   H14       1.0  0.62130  0.83680  0.18330  1.0000 0.1206995175
H   H15       1.0  0.41130  0.61590  0.90400  1.0000 0.1570048004
H   H16       1.0  0.37220  0.54310  0.75710  1.0000 0.1096438065
H   H17       1.0  0.48180  0.57050  0.71630  1.0000 0.1283984866
H   H18       1.0  0.52660  0.73180  0.05000  1.0000 0.2847448259
H   H19       1.0  0.43900  0.58850  0.54290  1.0000 0.1283984866
H   H20       1.0  0.39000  0.67250  0.49290  1.0000 0.1096438065
H   H21       1.0  0.36620  0.53650  0.25750  1.0000 0.1283984866
H   H22       1.0  0.40630  0.44780  0.30310  1.0000 0.1206995175
H   H23       1.0  0.34650  0.66320  0.28450  1.0000 0.1206995175
H   H24       1.0  0.28810  0.88410  0.29540  1.0000 0.1570048004
H   H25       1.0  0.21400  0.95690  0.32910  1.0000 0.1096438065
H   H26       1.0  0.14580  0.92950  0.41130  1.0000 0.1283984866
H   H27       1.0  0.31820  0.76820  0.29480  1.0000 0.2847448259
H   H28       1.0  0.54560  0.89610  0.95710  1.0000 0.1283984866
H   H29       1.0  0.67960  0.89710  0.00710  1.0000 0.1096438065
H   H30       1.0  0.77900  0.10870  0.24250  1.0000 0.1283984866
H   H31       1.0  0.64470  0.10320  0.19690  1.0000 0.1206995175
H   H32       1.0  0.87870  0.06200  0.21550  1.0000 0.1206995175
H   H33       1.0  0.08870  0.99270  0.20460  1.0000 0.1570048004
H   H34       1.0  0.12780  0.88490  0.17090  1.0000 0.1096438065
H   H35       1.0  0.01820  0.73450  0.08870  1.0000 0.1283984866
H   H36       1.0  0.97340  0.02340  0.20520  1.0000 0.2847448259
H   H37       1.0  0.89610  0.95710  0.54560  1.0000 0.1283984866
H   H38       1.0  0.89710  0.00710  0.67960  1.0000 0.1096438065
H   H39       1.0  0.10870  0.24250  0.77900  1.0000 0.1283984866
H   H40       1.0  0.10320  0.19690  0.64470  1.0000 0.1206995175
H   H41       1.0  0.06200  0.21550  0.87870  1.0000 0.1206995175
H   H42       1.0  0.99270  0.20460  0.08870  1.0000 0.1570048004
H   H43       1.0  0.88490  0.17090  0.12780  1.0000 0.1096438065
H   H44       1.0  0.73450  0.08870  0.01820  1.0000 0.1283984866
H   H45       1.0  0.02340  0.20520  0.97340  1.0000 0.2847448259
H   H46       1.0  0.58850  0.54290  0.43900  1.0000 0.1283984866
H   H47       1.0  0.67250  0.49290  0.39000  1.0000 0.1096438065
H   H48       1.0  0.53650  0.25750  0.36620  1.0000 0.1283984866
H   H49       1.0  0.44780  0.30310  0.40630  1.0000 0.1206995175
H   H50       1.0  0.66320  0.28450  0.34650  1.0000 0.1206995175
H   H51       1.0  0.88410  0.29540  0.28810  1.0000 0.1570048004
H   H52       1.0  0.95690  0.32910  0.21400  1.0000 0.1096438065
H   H53       1.0  0.92950  0.41130  0.14580  1.0000 0.1283984866
H   H54       1.0  0.76820  0.29480  0.31820  1.0000 0.2847448259
H   H55       1.0  0.91150  0.35050  0.95440  1.0000 0.1283984866
H   H56       1.0  0.82750  0.21750  0.82040  1.0000 0.1096438065
H   H57       1.0  0.96350  0.32970  0.72100  1.0000 0.1283984866
H   H58       1.0  0.05220  0.45850  0.85530  1.0000 0.1206995175
H   H59       1.0  0.83680  0.18330  0.62130  1.0000 0.1206995175
H   H60       1.0  0.61590  0.90400  0.41130  1.0000 0.1570048004
H   H61       1.0  0.54310  0.75710  0.37220  1.0000 0.1096438065
H   H62       1.0  0.57050  0.71630  0.48180  1.0000 0.1283984866
H   H63       1.0  0.73180  0.05000  0.52660  1.0000 0.2847448259
H   H64       1.0  0.60390  0.14950  0.06100  1.0000 0.1283984866
H   H65       1.0  0.60290  0.28250  0.11000  1.0000 0.1096438065
H   H66       1.0  0.39130  0.17030  0.13380  1.0000 0.1283984866
H   H67       1.0  0.39680  0.04150  0.09370  1.0000 0.1206995175
H   H68       1.0  0.43800  0.31670  0.15350  1.0000 0.1206995175
H   H69       1.0  0.50730  0.59600  0.21190  1.0000 0.1570048004
H   H70       1.0  0.61510  0.74290  0.28600  1.0000 0.1096438065
H   H71       1.0  0.76550  0.78370  0.35420  1.0000 0.1283984866
H   H72       1.0  0.47660  0.45000  0.18180  1.0000 0.2847448259
H   H73       1.0  0.54290  0.43900  0.58850  1.0000 0.1283984866
H   H74       1.0  0.49290  0.39000  0.67250  1.0000 0.1096438065
H   H75       1.0  0.25750  0.36620  0.53650  1.0000 0.1283984866
H   H76       1.0  0.30310  0.40630  0.44780  1.0000 0.1206995175
H   H77       1.0  0.28450  0.34650  0.66320  1.0000 0.1206995175
H   H78       1.0  0.29540  0.28810  0.88410  1.0000 0.1570048004
H   H79       1.0  0.32910  0.21400  0.95690  1.0000 0.1096438065
H   H80       1.0  0.41130  0.14580  0.92950  1.0000 0.1283984866
H   H81       1.0  0.29480  0.31820  0.76820  1.0000 0.2847448259
H   H82       1.0  0.95710  0.54560  0.89610  1.0000 0.1283984866
H   H83       1.0  0.00710  0.67960  0.89710  1.0000 0.1096438065
H   H84       1.0  0.24250  0.77900  0.10870  1.0000 0.1283984866
H   H85       1.0  0.19690  0.64470  0.10320  1.0000 0.1206995175
H   H86       1.0  0.21550  0.87870  0.06200  1.0000 0.1206995175
H   H87       1.0  0.20460  0.08870  0.99270  1.0000 0.1570048004
H   H88       1.0  0.17090  0.12780  0.88490  1.0000 0.1096438065
H   H89       1.0  0.08870  0.01820  0.73450  1.0000 0.1283984866
H   H90       1.0  0.20520  0.97340  0.02340  1.0000 0.2847448259
H   H91       1.0  0.14950  0.06100  0.60390  1.0000 0.1283984866
H   H92       1.0  0.28250  0.11000  0.60290  1.0000 0.1096438065
H   H93       1.0  0.17030  0.13380  0.39130  1.0000 0.1283984866
H   H94       1.0  0.04150  0.09370  0.39680  1.0000 0.1206995175
H   H95       1.0  0.31670  0.15350  0.43800  1.0000 0.1206995175
H   H96       1.0  0.59600  0.21190  0.50730  1.0000 0.1570048004
H   H97       1.0  0.74290  0.28600  0.61510  1.0000 0.1096438065
H   H98       1.0  0.78370  0.35420  0.76550  1.0000 0.1283984866
H   H99       1.0  0.45000  0.18180  0.47660  1.0000 0.2847448259
H   H100      1.0  0.35050  0.95440  0.91150  1.0000 0.1283984866
H   H101      1.0  0.21750  0.82040  0.82750  1.0000 0.1096438065
H   H102      1.0  0.32970  0.72100  0.96350  1.0000 0.1283984866
H   H103      1.0  0.45850  0.85530  0.05220  1.0000 0.1206995175
H   H104      1.0  0.18330  0.62130  0.83680  1.0000 0.1206995175
H   H105      1.0  0.90400  0.41130  0.61590  1.0000 0.1570048004
H   H106      1.0  0.75710  0.37220  0.54310  1.0000 0.1096438065
H   H107      1.0  0.71630  0.48180  0.57050  1.0000 0.1283984866
H   H108      1.0  0.05000  0.52660  0.73180  1.0000 0.2847448259
C   C1        1.0  0.07173  0.49963  0.08138  1.0000 0.1729830759
C   C2        1.0  0.07675  0.56142  0.15391  1.0000 -0.1914006738
C   C3        1.0  0.10516  0.56006  0.23314  1.0000 -0.1334820792
C   C4        1.0  0.12632  0.49710  0.24034  1.0000 0.060305205
C   C5        1.0  0.12035  0.43521  0.16672  1.0000 -0.113391747
C   C6        1.0  0.09520  0.43766  0.08964  1.0000 -0.176632452
C   C7        1.0  0.15415  0.49049  0.32110  1.0000 -0.0049858993
C   C8        1.0  0.23666  0.59448  0.54920  1.0000 0.350998801
C   C9        1.0  0.23950  0.56770  0.61300  1.0000 -0.2304837585
C   C10       1.0  0.28310  0.63150  0.69940  1.0000 0.0048047935
C   C11       1.0  0.32330  0.72070  0.72400  1.0000 -0.222475456
C   C12       1.0  0.31580  0.74030  0.65790  1.0000 0.2331816549
C   C13       1.0  0.91825  0.99035  0.41862  1.0000 0.1729830759
C   C14       1.0  0.90751  0.92284  0.34609  1.0000 -0.1914006738
C   C15       1.0  0.82692  0.87202  0.26686  1.0000 -0.1334820792
C   C16       1.0  0.75676  0.88598  0.25966  1.0000 0.060305205
C   C17       1.0  0.76849  0.95363  0.33328  1.0000 -0.113391747
C   C18       1.0  0.84802  0.00556  0.41036  1.0000 -0.176632452
C   C19       1.0  0.66939  0.83305  0.17890  1.0000 -0.0049858993
C   C20       1.0  0.54528  0.68746  0.95080  1.0000 0.350998801
C   C21       1.0  0.45470  0.62650  0.88700  1.0000 -0.2304837585
C   C22       1.0  0.43210  0.58370  0.80060  1.0000 0.0048047935
C   C23       1.0  0.49670  0.59930  0.77600  1.0000 -0.222475456
C   C24       1.0  0.58240  0.65790  0.84210  1.0000 0.2331816549
C   C25       1.0  0.42827  0.50965  0.42790  1.0000 0.1729830759
C   C26       1.0  0.42325  0.57716  0.48467  1.0000 -0.1914006738
C   C27       1.0  0.39484  0.62798  0.45490  1.0000 -0.1334820792
C   C28       1.0  0.37368  0.61402  0.37078  1.0000 0.060305205
C   C29       1.0  0.37965  0.54637  0.31486  1.0000 -0.113391747
C   C30       1.0  0.40480  0.49444  0.34246  1.0000 -0.176632452
C   C31       1.0  0.34585  0.66695  0.33634  1.0000 -0.0049858993
C   C32       1.0  0.26334  0.81254  0.35782  1.0000 0.350998801
C   C33       1.0  0.26050  0.87350  0.32820  1.0000 -0.2304837585
C   C34       1.0  0.21690  0.91630  0.34840  1.0000 0.0048047935
C   C35       1.0  0.17670  0.90070  0.39740  1.0000 -0.222475456
C   C36       1.0  0.18420  0.84210  0.42450  1.0000 0.2331816549
C   C37       1.0  0.58175  0.00037  0.07210  1.0000 0.1729830759
C   C38       1.0  0.59249  0.93858  0.01533  1.0000 -0.1914006738
C   C39       1.0  0.67308  0.93994  0.04510  1.0000 -0.1334820792
C   C40       1.0  0.74324  0.00290  0.12922  1.0000 0.060305205
C   C41       1.0  0.73151  0.06479  0.18514  1.0000 -0.113391747
C   C42       1.0  0.65198  0.06234  0.15754  1.0000 -0.176632452
C   C43       1.0  0.83061  0.00951  0.16366  1.0000 -0.0049858993
C   C44       1.0  0.95472  0.90552  0.14218  1.0000 0.350998801
C   C45       1.0  0.04530  0.93230  0.17180  1.0000 -0.2304837585
C   C46       1.0  0.06790  0.86850  0.15160  1.0000 0.0048047935
C   C47       1.0  0.00330  0.77930  0.10260  1.0000 -0.222475456
C   C48       1.0  0.91760  0.75970  0.07550  1.0000 0.2331816549
C   C49       1.0  0.00037  0.07210  0.58175  1.0000 0.1729830759
C   C50       1.0  0.93858  0.01533  0.59249  1.0000 -0.1914006738
C   C51       1.0  0.93994  0.04510  0.67308  1.0000 -0.1334820792
C   C52       1.0  0.00290  0.12922  0.74324  1.0000 0.060305205
C   C53       1.0  0.06479  0.18514  0.73151  1.0000 -0.113391747
C   C54       1.0  0.06234  0.15754  0.65198  1.0000 -0.176632452
C   C55       1.0  0.00951  0.16366  0.83061  1.0000 -0.0053113298
C   C56       1.0  0.90552  0.14218  0.95472  1.0000 0.350998801
C   C57       1.0  0.93230  0.17180  0.04530  1.0000 -0.2304837585
C   C58       1.0  0.86850  0.15160  0.06790  1.0000 0.0048047935
C   C59       1.0  0.77930  0.10260  0.00330  1.0000 -0.222475456
C   C60       1.0  0.75970  0.07550  0.91760  1.0000 0.2331816549
C   C61       1.0  0.50965  0.42790  0.42827  1.0000 0.1729830759
C   C62       1.0  0.57716  0.48467  0.42325  1.0000 -0.1914006738
C   C63       1.0  0.62798  0.45490  0.39484  1.0000 -0.1334820792
C   C64       1.0  0.61402  0.37078  0.37368  1.0000 0.060305205
C   C65       1.0  0.54637  0.31486  0.37965  1.0000 -0.113391747
C   C66       1.0  0.49444  0.34246  0.40480  1.0000 -0.176632452
C   C67       1.0  0.66695  0.33634  0.34585  1.0000 -0.0049858993
C   C68       1.0  0.81254  0.35782  0.26334  1.0000 0.350998801
C   C69       1.0  0.87350  0.32820  0.26050  1.0000 -0.2304837585
C   C70       1.0  0.91630  0.34840  0.21690  1.0000 0.0048047935
C   C71       1.0  0.90070  0.39740  0.17670  1.0000 -0.222475456
C   C72       1.0  0.84210  0.42450  0.18420  1.0000 0.2331816549
C   C73       1.0  0.99035  0.41862  0.91825  1.0000 0.1729830759
C   C74       1.0  0.92284  0.34609  0.90751  1.0000 -0.1914006738
C   C75       1.0  0.87202  0.26686  0.82692  1.0000 -0.1334820792
C   C76       1.0  0.88598  0.25966  0.75676  1.0000 0.060305205
C   C77       1.0  0.95363  0.33328  0.76849  1.0000 -0.113391747
C   C78       1.0  0.00556  0.41036  0.84802  1.0000 -0.176632452
C   C79       1.0  0.83305  0.17890  0.66939  1.0000 -0.0049858993
C   C80       1.0  0.68746  0.95080  0.54528  1.0000 0.350998801
C   C81       1.0  0.62650  0.88700  0.45470  1.0000 -0.2304837585
C   C82       1.0  0.58370  0.80060  0.43210  1.0000 0.0048047935
C   C83       1.0  0.59930  0.77600  0.49670  1.0000 -0.222475456
C   C84       1.0  0.65790  0.84210  0.58240  1.0000 0.2331816549
C   C85       1.0  0.49963  0.08138  0.07173  1.0000 0.1729830759
C   C86       1.0  0.56142  0.15391  0.07675  1.0000 -0.1914006738
C   C87       1.0  0.56006  0.23314  0.10516  1.0000 -0.1334820792
C   C88       1.0  0.49710  0.24034  0.12632  1.0000 0.060305205
C   C89       1.0  0.43521  0.16672  0.12035  1.0000 -0.113391747
C   C90       1.0  0.43766  0.08964  0.09520  1.0000 -0.176632452
C   C91       1.0  0.49049  0.32110  0.15415  1.0000 -0.0049858993
C   C92       1.0  0.59448  0.54920  0.23666  1.0000 0.350998801
C   C93       1.0  0.56770  0.61300  0.23950  1.0000 -0.2304837585
C   C94       1.0  0.63150  0.69940  0.28310  1.0000 0.0048047935
C   C95       1.0  0.72070  0.72400  0.32330  1.0000 -0.222475456
C   C96       1.0  0.74030  0.65790  0.31580  1.0000 0.2331816549
C   C97       1.0  0.42790  0.42827  0.50965  1.0000 0.1729830759
C   C98       1.0  0.48467  0.42325  0.57716  1.0000 -0.1914006738
C   C99       1.0  0.45490  0.39484  0.62798  1.0000 -0.1334820792
C   C100      1.0  0.37078  0.37368  0.61402  1.0000 0.060305205
C   C101      1.0  0.31486  0.37965  0.54637  1.0000 -0.113391747
C   C102      1.0  0.34246  0.40480  0.49444  1.0000 -0.176632452
C   C103      1.0  0.33634  0.34585  0.66695  1.0000 -0.0049858993
C   C104      1.0  0.35782  0.26334  0.81254  1.0000 0.350998801
C   C105      1.0  0.32820  0.26050  0.87350  1.0000 -0.2304837585
C   C106      1.0  0.34840  0.21690  0.91630  1.0000 0.0048047935
C   C107      1.0  0.39740  0.17670  0.90070  1.0000 -0.222475456
C   C108      1.0  0.42450  0.18420  0.84210  1.0000 0.2331816549
C   C109      1.0  0.07210  0.58175  0.00037  1.0000 0.1729830759
C   C110      1.0  0.01533  0.59249  0.93858  1.0000 -0.1914006738
C   C111      1.0  0.04510  0.67308  0.93994  1.0000 -0.1334820792
C   C112      1.0  0.12922  0.74324  0.00290  1.0000 0.060305205
C   C113      1.0  0.18514  0.73151  0.06479  1.0000 -0.113391747
C   C114      1.0  0.15754  0.65198  0.06234  1.0000 -0.176632452
C   C115      1.0  0.16366  0.83061  0.00951  1.0000 -0.0049858993
C   C116      1.0  0.14218  0.95472  0.90552  1.0000 0.350998801
C   C117      1.0  0.17180  0.04530  0.93230  1.0000 -0.2304837585
C   C118      1.0  0.15160  0.06790  0.86850  1.0000 0.0048047935
C   C119      1.0  0.10260  0.00330  0.77930  1.0000 -0.222475456
C   C120      1.0  0.07550  0.91760  0.75970  1.0000 0.2331816549
C   C121      1.0  0.08138  0.07173  0.49963  1.0000 0.1729830759
C   C122      1.0  0.15391  0.07675  0.56142  1.0000 -0.1914006738
C   C123      1.0  0.23314  0.10516  0.56006  1.0000 -0.1334820792
C   C124      1.0  0.24034  0.12632  0.49710  1.0000 0.060305205
C   C125      1.0  0.16672  0.12035  0.43521  1.0000 -0.113391747
C   C126      1.0  0.08964  0.09520  0.43766  1.0000 -0.176632452
C   C127      1.0  0.32110  0.15415  0.49049  1.0000 -0.0049858993
C   C128      1.0  0.54920  0.23666  0.59448  1.0000 0.350998801
C   C129      1.0  0.61300  0.23950  0.56770  1.0000 -0.2304837585
C   C130      1.0  0.69940  0.28310  0.63150  1.0000 0.0048047935
C   C131      1.0  0.72400  0.32330  0.72070  1.0000 -0.222475456
C   C132      1.0  0.65790  0.31580  0.74030  1.0000 0.2331816549
C   C133      1.0  0.41862  0.91825  0.99035  1.0000 0.1729830759
C   C134      1.0  0.34609  0.90751  0.92284  1.0000 -0.1914006738
C   C135      1.0  0.26686  0.82692  0.87202  1.0000 -0.1334820792
C   C136      1.0  0.25966  0.75676  0.88598  1.0000 0.060305205
C   C137      1.0  0.33328  0.76849  0.95363  1.0000 -0.113391747
C   C138      1.0  0.41036  0.84802  0.00556  1.0000 -0.176632452
C   C139      1.0  0.17890  0.66939  0.83305  1.0000 -0.0049858993
C   C140      1.0  0.95080  0.54528  0.68746  1.0000 0.350998801
C   C141      1.0  0.88700  0.45470  0.62650  1.0000 -0.2304837585
C   C142      1.0  0.80060  0.43210  0.58370  1.0000 0.0048047935
C   C143      1.0  0.77600  0.49670  0.59930  1.0000 -0.222475456
C   C144      1.0  0.84210  0.58240  0.65790  1.0000 0.2331816549
Br  Br1       1.0  0.36536  0.85963  0.68583  1.0000 -0.0928148123
Br  Br2       1.0  0.67380  0.67953  0.81417  1.0000 -0.0928148123
Br  Br3       1.0  0.13464  0.82047  0.49427  1.0000 -0.0928148123
Br  Br4       1.0  0.82620  0.64037  0.00573  1.0000 -0.0928148123
Br  Br5       1.0  0.64037  0.00573  0.82620  1.0000 -0.0928148123
Br  Br6       1.0  0.82047  0.49427  0.13464  1.0000 -0.0928148123
Br  Br7       1.0  0.67953  0.81417  0.67380  1.0000 -0.0928148123
Br  Br8       1.0  0.85963  0.68583  0.36536  1.0000 -0.0928148123
Br  Br9       1.0  0.49427  0.13464  0.82047  1.0000 -0.0928148123
Br  Br10      1.0  0.00573  0.82620  0.64037  1.0000 -0.0928148123
Br  Br11      1.0  0.68583  0.36536  0.85963  1.0000 -0.0928148123
Br  Br12      1.0  0.81417  0.67380  0.67953  1.0000 -0.0928148123
N   N1        1.0  0.17895  0.55178  0.39625  1.0000 -0.1161851056
N   N2        1.0  0.19660  0.53116  0.46324  1.0000 -0.1995142579
N   N3        1.0  0.27410  0.68038  0.57196  1.0000 -0.3254584253
N   N4        1.0  0.65553  0.78270  0.10375  1.0000 -0.1161851056
N   N5        1.0  0.56792  0.73336  0.03676  1.0000 -0.1995142579
N   N6        1.0  0.60842  0.70214  0.92804  1.0000 -0.3248292387
N   N7        1.0  0.32105  0.71730  0.37283  1.0000 -0.1161851056
N   N8        1.0  0.30340  0.76664  0.33456  1.0000 -0.1995142579
N   N9        1.0  0.22590  0.79786  0.40628  1.0000 -0.3254584253
N   N10       1.0  0.84447  0.94822  0.12717  1.0000 -0.1161851056
N   N11       1.0  0.93208  0.96884  0.16544  1.0000 -0.1995142579
N   N12       1.0  0.89158  0.81962  0.09372  1.0000 -0.3248292387
N   N13       1.0  0.94822  0.12717  0.84447  1.0000 -0.1161851056
N   N14       1.0  0.96884  0.16544  0.93208  1.0000 -0.1995142579
N   N15       1.0  0.81962  0.09372  0.89158  1.0000 -0.3248292387
N   N16       1.0  0.71730  0.37283  0.32105  1.0000 -0.1161851056
N   N17       1.0  0.76664  0.33456  0.30340  1.0000 -0.1995142579
N   N18       1.0  0.79786  0.40628  0.22590  1.0000 -0.3248292387
N   N19       1.0  0.78270  0.10375  0.65553  1.0000 -0.1161851056
N   N20       1.0  0.73336  0.03676  0.56792  1.0000 -0.1995142579
N   N21       1.0  0.70214  0.92804  0.60842  1.0000 -0.3248292387
N   N22       1.0  0.55178  0.39625  0.17895  1.0000 -0.1161851056
N   N23       1.0  0.53116  0.46324  0.19660  1.0000 -0.1995142579
N   N24       1.0  0.68038  0.57196  0.27410  1.0000 -0.3248292387
N   N25       1.0  0.37283  0.32105  0.71730  1.0000 -0.1161851056
N   N26       1.0  0.33456  0.30340  0.76664  1.0000 -0.1995142579
N   N27       1.0  0.40628  0.22590  0.79786  1.0000 -0.3254584253
N   N28       1.0  0.12717  0.84447  0.94822  1.0000 -0.1161851056
N   N29       1.0  0.16544  0.93208  0.96884  1.0000 -0.1995142579
N   N30       1.0  0.09372  0.89158  0.81962  1.0000 -0.3254584253
N   N31       1.0  0.39625  0.17895  0.55178  1.0000 -0.1161851056
N   N32       1.0  0.46324  0.19660  0.53116  1.0000 -0.1995142579
N   N33       1.0  0.57196  0.27410  0.68038  1.0000 -0.3248292387
N   N34       1.0  0.10375  0.65553  0.78270  1.0000 -0.1161851056
N   N35       1.0  0.03676  0.56792  0.73336  1.0000 -0.1995142579
N   N36       1.0  0.92804  0.60842  0.70214  1.0000 -0.3248292387
N   N37       1.0  0.04220  0.50000  0.00000  1.0000 -0.1678234816
N   N38       1.0  0.00000  0.04220  0.50000  1.0000 -0.1678234816
N   N39       1.0  0.45780  0.45780  0.45780  1.0000 -0.1678234816
N   N40       1.0  0.50000  0.00000  0.04220  1.0000 -0.1678234816
Cl  Cl1       1.0  0.75000  0.18714  0.43714  1.0000 1.2754011969
Cl  Cl2       1.0  0.25000  0.31286  0.06286  1.0000 1.2754011969
Cl  Cl3       1.0  0.43714  0.75000  0.18714  1.0000 1.2754011969
Cl  Cl4       1.0  0.06286  0.25000  0.31286  1.0000 1.2754011969
Cl  Cl5       1.0  0.31286  0.06286  0.25000  1.0000 1.2754011969
Cl  Cl6       1.0  0.18714  0.43714  0.75000  1.0000 1.2754011969
O   O1        1.0  0.67673  0.20168  0.42593  1.0000 -0.5120606006
O   O2        1.0  0.72390  0.09930  0.42480  1.0000 -0.5172955275
O   O3        1.0  0.82327  0.24920  0.52495  1.0000 -0.5120606006
O   O4        1.0  0.77610  0.20090  0.37540  1.0000 -0.5172955275
O   O5        1.0  0.22425  0.29832  0.97505  1.0000 -0.5120606006
O   O6        1.0  0.32550  0.40070  0.12460  1.0000 -0.5172955275
O   O7        1.0  0.27575  0.25080  0.07407  1.0000 -0.5120606006
O   O8        1.0  0.17450  0.29910  0.07520  1.0000 -0.5172955275
O   O9        1.0  0.52495  0.82327  0.24920  1.0000 -0.5120606006
O   O10       1.0  0.37540  0.77610  0.20090  1.0000 -0.5172955275
O   O11       1.0  0.42593  0.67673  0.20168  1.0000 -0.5120606006
O   O12       1.0  0.42480  0.72390  0.09930  1.0000 -0.5172955275
O   O13       1.0  0.07407  0.27575  0.25080  1.0000 -0.5120606006
O   O14       1.0  0.07520  0.17450  0.29910  1.0000 -0.5172955275
O   O15       1.0  0.97505  0.22425  0.29832  1.0000 -0.5120606006
O   O16       1.0  0.12460  0.32550  0.40070  1.0000 -0.5172955275
O   O17       1.0  0.29832  0.97505  0.22425  1.0000 -0.5120606006
O   O18       1.0  0.40070  0.12460  0.32550  1.0000 -0.5172955275
O   O19       1.0  0.25080  0.07407  0.27575  1.0000 -0.5120606006
O   O20       1.0  0.29910  0.07520  0.17450  1.0000 -0.5172955275
O   O21       1.0  0.20168  0.42593  0.67673  1.0000 -0.5120606006
O   O22       1.0  0.09930  0.42480  0.72390  1.0000 -0.5172955275
O   O23       1.0  0.24920  0.52495  0.82327  1.0000 -0.5120606006
O   O24       1.0  0.20090  0.37540  0.77610  1.0000 -0.5172955275
