# DDEC6 charges by PACMAN v1.1 (https://github.com/mtap-research/PACMAN-charge/)
data_2017[In][pts]3[ION]1
_chemical_formula_sum              "In2 H32 C68 S8 I3 O16"
_cell_length_a       7.5491
_cell_length_b       30.567
_cell_length_c       12.423
_cell_angle_alpha    90
_cell_angle_beta     90.801
_cell_angle_gamma    90

_symmetry_space_group_name_H-M    "P 1"
_symmetry_Int_Tables_number       1

loop_
  _symmetry_equiv_pos_as_xyz
  'x, y, z'

loop_
  _atom_site_type_symbol
  _atom_site_label
  _atom_site_symmetry_multiplicity
  _atom_site_fract_x
  _atom_site_fract_y
  _atom_site_fract_z
  _atom_site_occupancy
  _atom_site_charge
In  In1       1.0  0.50000  0.80861  0.50000  1.0000 1.3193536043
In  In2       1.0  0.50000  0.19139  0.50000  1.0000 1.3193536043
H   H1        1.0  0.73182  0.68188  0.67729  1.0000 0.1324717907
H   H2        1.0  0.73632  0.62340  0.80237  1.0000 0.1193668463
H   H3        1.0  0.27570  0.66810  0.92592  1.0000 0.1193668463
H   H4        1.0  0.28758  0.72730  0.80534  1.0000 0.1324717907
H   H5        1.0  0.36409  0.91491  0.22969  1.0000 0.1193668463
H   H6        1.0  0.18251  0.96185  0.14160  1.0000 0.1087316364
H   H7        1.0  0.76712  0.92075  0.30305  1.0000 0.1324717907
H   H8        1.0  0.94026  0.87352  0.40132  1.0000 0.1449103147
H   H9        1.0  0.26818  0.68188  0.32271  1.0000 0.1324717907
H   H10       1.0  0.26368  0.62340  0.19763  1.0000 0.1193668463
H   H11       1.0  0.72430  0.66810  0.07408  1.0000 0.1193668463
H   H12       1.0  0.71242  0.72730  0.19466  1.0000 0.1324717907
H   H13       1.0  0.63591  0.91491  0.77031  1.0000 0.1193668463
H   H14       1.0  0.81749  0.96185  0.85840  1.0000 0.1087316364
H   H15       1.0  0.23288  0.92075  0.69695  1.0000 0.1324717907
H   H16       1.0  0.05974  0.87352  0.59868  1.0000 0.1449103147
H   H17       1.0  0.26818  0.31812  0.32271  1.0000 0.1324717907
H   H18       1.0  0.26368  0.37660  0.19763  1.0000 0.1193668463
H   H19       1.0  0.72430  0.33190  0.07408  1.0000 0.1193668463
H   H20       1.0  0.71242  0.27270  0.19466  1.0000 0.1324717907
H   H21       1.0  0.63591  0.08509  0.77031  1.0000 0.1193668463
H   H22       1.0  0.81749  0.03815  0.85840  1.0000 0.1087316364
H   H23       1.0  0.23288  0.07925  0.69695  1.0000 0.1324717907
H   H24       1.0  0.05974  0.12648  0.59868  1.0000 0.1449103147
H   H25       1.0  0.73182  0.31812  0.67729  1.0000 0.1324717907
H   H26       1.0  0.73632  0.37660  0.80237  1.0000 0.1193668463
H   H27       1.0  0.27570  0.33190  0.92592  1.0000 0.1193668463
H   H28       1.0  0.28758  0.27270  0.80534  1.0000 0.1324717907
H   H29       1.0  0.36409  0.08509  0.22969  1.0000 0.1193668463
H   H30       1.0  0.18251  0.03815  0.14160  1.0000 0.1087316364
H   H31       1.0  0.76712  0.07925  0.30305  1.0000 0.1324717907
H   H32       1.0  0.94026  0.12648  0.40132  1.0000 0.1449103147
C   C1        1.0  0.49510  0.74690  0.65170  1.0000 0.5218968183
C   C2        1.0  0.50590  0.71002  0.73120  1.0000 -0.0081979399
C   C3        1.0  0.64290  0.67920  0.72790  1.0000 -0.0730484411
C   C4        1.0  0.64550  0.64400  0.80220  1.0000 -0.1492661558
C   C5        1.0  0.50530  0.64120  0.87570  1.0000 0.0991827004
C   C6        1.0  0.36860  0.67100  0.87800  1.0000 -0.1389039144
C   C7        1.0  0.37590  0.70610  0.80380  1.0000 -0.0781971648
C   C8        1.0  0.49760  0.60320  0.94870  1.0000 -0.0319244097
C   C9        1.0  0.30010  0.86120  0.39190  1.0000 0.5218968183
C   C10       1.0  0.17660  0.89010  0.32780  1.0000 0.0129236899
C   C11       1.0  0.24480  0.91640  0.24700  1.0000 -0.0951369017
C   C12       1.0  0.13520  0.94390  0.19430  1.0000 -0.1492661558
C   C13       1.0  0.95490  0.94690  0.21440  1.0000 0.0834148448
C   C14       1.0  0.88820  0.91980  0.29040  1.0000 -0.1235428872
C   C15       1.0  0.98990  0.89140  0.34920  1.0000 -0.0730484411
C   C16       1.0  0.83680  0.97800  0.15640  1.0000 -0.0781971648
C   C17       1.0  0.50490  0.74690  0.34830  1.0000 0.5218968183
C   C18       1.0  0.49410  0.71002  0.26880  1.0000 -0.0081979399
C   C19       1.0  0.35710  0.67920  0.27210  1.0000 -0.0730484411
C   C20       1.0  0.35450  0.64400  0.19780  1.0000 -0.1492661558
C   C21       1.0  0.49470  0.64120  0.12430  1.0000 0.0991827004
C   C22       1.0  0.63140  0.67100  0.12200  1.0000 -0.1389039144
C   C23       1.0  0.62410  0.70610  0.19620  1.0000 -0.0781971648
C   C24       1.0  0.50240  0.60320  0.05130  1.0000 -0.0319244097
C   C25       1.0  0.69990  0.86120  0.60810  1.0000 0.5218968183
C   C26       1.0  0.82340  0.89010  0.67220  1.0000 0.0129236899
C   C27       1.0  0.75520  0.91640  0.75300  1.0000 -0.0951369017
C   C28       1.0  0.86480  0.94390  0.80570  1.0000 -0.1492661558
C   C29       1.0  0.04510  0.94690  0.78560  1.0000 0.0834148448
C   C30       1.0  0.11180  0.91980  0.70960  1.0000 -0.1235428872
C   C31       1.0  0.01010  0.89140  0.65080  1.0000 -0.0730484411
C   C32       1.0  0.16320  0.97800  0.84360  1.0000 -0.0781971648
C   C33       1.0  0.50490  0.25310  0.34830  1.0000 0.5218968183
C   C34       1.0  0.49410  0.28998  0.26880  1.0000 -0.0081979399
C   C35       1.0  0.35710  0.32080  0.27210  1.0000 -0.0730484411
C   C36       1.0  0.35450  0.35600  0.19780  1.0000 -0.1492661558
C   C37       1.0  0.49470  0.35880  0.12430  1.0000 0.0991827004
C   C38       1.0  0.63140  0.32900  0.12200  1.0000 -0.1389039144
C   C39       1.0  0.62410  0.29390  0.19620  1.0000 -0.0781971648
C   C40       1.0  0.50240  0.39680  0.05130  1.0000 -0.0319244097
C   C41       1.0  0.69990  0.13880  0.60810  1.0000 0.5218968183
C   C42       1.0  0.82340  0.10990  0.67220  1.0000 0.0129236899
C   C43       1.0  0.75520  0.08360  0.75300  1.0000 -0.0951369017
C   C44       1.0  0.86480  0.05610  0.80570  1.0000 -0.1492661558
C   C45       1.0  0.04510  0.05310  0.78560  1.0000 0.0834148448
C   C46       1.0  0.11180  0.08020  0.70960  1.0000 -0.1235428872
C   C47       1.0  0.01010  0.10860  0.65080  1.0000 -0.0730484411
C   C48       1.0  0.16320  0.02200  0.84360  1.0000 -0.0730484411
C   C49       1.0  0.49510  0.25310  0.65170  1.0000 0.5218968183
C   C50       1.0  0.50590  0.28998  0.73120  1.0000 -0.0081979399
C   C51       1.0  0.64290  0.32080  0.72790  1.0000 -0.0730484411
C   C52       1.0  0.64550  0.35600  0.80220  1.0000 -0.1492661558
C   C53       1.0  0.50530  0.35880  0.87570  1.0000 0.0991827004
C   C54       1.0  0.36860  0.32900  0.87800  1.0000 -0.1389039144
C   C55       1.0  0.37590  0.29390  0.80380  1.0000 -0.0781971648
C   C56       1.0  0.49760  0.39680  0.94870  1.0000 -0.0319244097
C   C57       1.0  0.30010  0.13880  0.39190  1.0000 0.5218968183
C   C58       1.0  0.17660  0.10990  0.32780  1.0000 0.0129236899
C   C59       1.0  0.24480  0.08360  0.24700  1.0000 -0.0901360397
C   C60       1.0  0.13520  0.05610  0.19430  1.0000 -0.1492661558
C   C61       1.0  0.95490  0.05310  0.21440  1.0000 0.0834148448
C   C62       1.0  0.88820  0.08020  0.29040  1.0000 -0.1235428872
C   C63       1.0  0.98990  0.10860  0.34920  1.0000 -0.0730484411
C   C64       1.0  0.83680  0.02200  0.15640  1.0000 -0.0730484411
C   C65       1.0  0.50000  0.52320  0.00000  1.0000 -0.0901360397
C   C66       1.0  0.50000  0.47680  0.00000  1.0000 -0.0901360397
C   C67       1.0  0.56940  0.00000  0.03890  1.0000 -0.1235428872
C   C68       1.0  0.43060  0.00000  0.96110  1.0000 -0.1235428872
S   S1        1.0  0.50580  0.55257  0.88521  1.0000 0.1324717907
S   S2        1.0  0.66650  0.95197  0.08385  1.0000 0.0991827004
S   S3        1.0  0.49420  0.55257  0.11479  1.0000 0.1193668463
S   S4        1.0  0.33350  0.95197  0.91615  1.0000 0.0991827004
S   S5        1.0  0.49420  0.44743  0.11479  1.0000 0.1193668463
S   S6        1.0  0.33350  0.04803  0.91615  1.0000 0.0991827004
S   S7        1.0  0.50580  0.44743  0.88521  1.0000 0.1324717907
S   S8        1.0  0.66650  0.04803  0.08385  1.0000 0.0991827004
I   I1        1.0  0.00000  0.50000  0.00000  1.0000 0.0013912691
I   I2        1.0  0.00000  0.59785  0.00000  1.0000 -0.256359762
I   I3        1.0  0.00000  0.40215  0.00000  1.0000 -0.2538056135
O   O1        1.0  0.36620  0.76926  0.63490  1.0000 -0.4526018262
O   O2        1.0  0.62410  0.75303  0.59610  1.0000 -0.4574023842
O   O3        1.0  0.23430  0.83737  0.46470  1.0000 -0.4971546777
O   O4        1.0  0.45840  0.86046  0.37470  1.0000 -0.4971546777
O   O5        1.0  0.63380  0.76926  0.36510  1.0000 -0.4526018262
O   O6        1.0  0.37590  0.75303  0.40390  1.0000 -0.4574023842
O   O7        1.0  0.76570  0.83737  0.53530  1.0000 -0.4971546777
O   O8        1.0  0.54160  0.86046  0.62530  1.0000 -0.4971546777
O   O9        1.0  0.63380  0.23074  0.36510  1.0000 -0.4526018262
O   O10       1.0  0.37590  0.24697  0.40390  1.0000 -0.4574023842
O   O11       1.0  0.76570  0.16263  0.53530  1.0000 -0.4971546777
O   O12       1.0  0.54160  0.13954  0.62530  1.0000 -0.4971546777
O   O13       1.0  0.36620  0.23074  0.63490  1.0000 -0.4526018262
O   O14       1.0  0.62410  0.24697  0.59610  1.0000 -0.4574023842
O   O15       1.0  0.23430  0.16263  0.46470  1.0000 -0.4971546777
O   O16       1.0  0.45840  0.13954  0.37470  1.0000 -0.4971546777
