# DDEC6 charges by PACMAN v1.1 (https://github.com/mtap-research/PACMAN-charge/)
data_2017[Ag][srs]3[ION]9
_chemical_formula_sum              "Ag6 H108 C144 Br12 N40 Cl6 O24"
_cell_length_a       18.4627
_cell_length_b       18.4627
_cell_length_c       18.4627
_cell_angle_alpha    109.471
_cell_angle_beta     109.471
_cell_angle_gamma    109.471

_symmetry_space_group_name_H-M    "P 1"
_symmetry_Int_Tables_number       1

loop_
  _symmetry_equiv_pos_as_xyz
  'x, y, z'

loop_
  _atom_site_type_symbol
  _atom_site_label
  _atom_site_symmetry_multiplicity
  _atom_site_fract_x
  _atom_site_fract_y
  _atom_site_fract_z
  _atom_site_occupancy
  _atom_site_charge
Ag  Ag1       1.0  0.25000  0.71262  0.46262  1.0000 0.2969097839
Ag  Ag2       1.0  0.75000  0.78738  0.03738  1.0000 0.2969097839
Ag  Ag3       1.0  0.78738  0.03738  0.75000  1.0000 0.2969097839
Ag  Ag4       1.0  0.71262  0.46262  0.25000  1.0000 0.2969097839
Ag  Ag5       1.0  0.46262  0.25000  0.71262  1.0000 0.2969097839
Ag  Ag6       1.0  0.03738  0.75000  0.78738  1.0000 0.2969097839
H   H1        1.0  0.40520  0.44710  0.30250  1.0000 0.1283254632
H   H2        1.0  0.36670  0.53660  0.25750  1.0000 0.1283254632
H   H3        1.0  0.38990  0.67260  0.49290  1.0000 0.1112098776
H   H4        1.0  0.43850  0.58810  0.54260  1.0000 0.1283254632
H   H5        1.0  0.34690  0.66380  0.28490  1.0000 0.1169842825
H   H6        1.0  0.28860  0.88450  0.29590  1.0000 0.1575703964
H   H7        1.0  0.21450  0.95740  0.32990  1.0000 0.1112098776
H   H8        1.0  0.14590  0.92950  0.41040  1.0000 0.1283254632
H   H9        1.0  0.31840  0.76820  0.29480  1.0000 0.2842599795
H   H10       1.0  0.64460  0.10270  0.19750  1.0000 0.1283254632
H   H11       1.0  0.77910  0.10920  0.24250  1.0000 0.1283254632
H   H12       1.0  0.67970  0.89700  0.00710  1.0000 0.1112098776
H   H13       1.0  0.54550  0.89590  0.95740  1.0000 0.1283254632
H   H14       1.0  0.87890  0.06200  0.21510  1.0000 0.1169842825
H   H15       1.0  0.08860  0.99270  0.20410  1.0000 0.1575703964
H   H16       1.0  0.12750  0.88460  0.17010  1.0000 0.1112098776
H   H17       1.0  0.01910  0.73550  0.08960  1.0000 0.1283254632
H   H18       1.0  0.97340  0.02360  0.20520  1.0000 0.2842599795
H   H19       1.0  0.09480  0.39730  0.04190  1.0000 0.1283254632
H   H20       1.0  0.13330  0.39080  0.16990  1.0000 0.1283254632
H   H21       1.0  0.11010  0.60300  0.28270  1.0000 0.1112098776
H   H22       1.0  0.06150  0.60410  0.14960  1.0000 0.1283254632
H   H23       1.0  0.15310  0.43800  0.31690  1.0000 0.1169842825
H   H24       1.0  0.21140  0.50730  0.59590  1.0000 0.1575703964
H   H25       1.0  0.28550  0.61540  0.74290  1.0000 0.1112098776
H   H26       1.0  0.35410  0.76450  0.78360  1.0000 0.1283254632
H   H27       1.0  0.18160  0.47640  0.44980  1.0000 0.2842599795
H   H28       1.0  0.85540  0.05290  0.45810  1.0000 0.1283254632
H   H29       1.0  0.72090  0.96340  0.33010  1.0000 0.1283254632
H   H30       1.0  0.82030  0.82740  0.21730  1.0000 0.1112098776
H   H31       1.0  0.95450  0.91190  0.35040  1.0000 0.1283254632
H   H32       1.0  0.62110  0.83620  0.18310  1.0000 0.1169842825
H   H33       1.0  0.41140  0.61550  0.90410  1.0000 0.1575703964
H   H34       1.0  0.37250  0.54260  0.75710  1.0000 0.1112098776
H   H35       1.0  0.48090  0.57050  0.71640  1.0000 0.1283254632
H   H36       1.0  0.52660  0.73180  0.05020  1.0000 0.2842599795
H   H37       1.0  0.05290  0.45810  0.85540  1.0000 0.1283254632
H   H38       1.0  0.96340  0.33010  0.72090  1.0000 0.1283254632
H   H39       1.0  0.82740  0.21730  0.82030  1.0000 0.1112098776
H   H40       1.0  0.91190  0.35040  0.95450  1.0000 0.1283254632
H   H41       1.0  0.83620  0.18310  0.62110  1.0000 0.1169842825
H   H42       1.0  0.61550  0.90410  0.41140  1.0000 0.1575703964
H   H43       1.0  0.54260  0.75710  0.37250  1.0000 0.1112098776
H   H44       1.0  0.57050  0.71640  0.48090  1.0000 0.1283254632
H   H45       1.0  0.73180  0.05020  0.52660  1.0000 0.2842599795
H   H46       1.0  0.39730  0.04190  0.09480  1.0000 0.1283254632
H   H47       1.0  0.39080  0.16990  0.13330  1.0000 0.1283254632
H   H48       1.0  0.60300  0.28270  0.11010  1.0000 0.1112098776
H   H49       1.0  0.60410  0.14960  0.06150  1.0000 0.1283254632
H   H50       1.0  0.43800  0.31690  0.15310  1.0000 0.1169842825
H   H51       1.0  0.50730  0.59590  0.21140  1.0000 0.1575703964
H   H52       1.0  0.61540  0.74290  0.28550  1.0000 0.1112098776
H   H53       1.0  0.76450  0.78360  0.35410  1.0000 0.1283254632
H   H54       1.0  0.47640  0.44980  0.18160  1.0000 0.2842599795
H   H55       1.0  0.10270  0.19750  0.64460  1.0000 0.1283254632
H   H56       1.0  0.10920  0.24250  0.77910  1.0000 0.1283254632
H   H57       1.0  0.89700  0.00710  0.67970  1.0000 0.1112098776
H   H58       1.0  0.89590  0.95740  0.54550  1.0000 0.1283254632
H   H59       1.0  0.06200  0.21510  0.87890  1.0000 0.1169842825
H   H60       1.0  0.99270  0.20410  0.08860  1.0000 0.1575703964
H   H61       1.0  0.88460  0.17010  0.12750  1.0000 0.1112098776
H   H62       1.0  0.73550  0.08960  0.01910  1.0000 0.1283254632
H   H63       1.0  0.02360  0.20520  0.97340  1.0000 0.2842599795
H   H64       1.0  0.44710  0.30250  0.40520  1.0000 0.1283254632
H   H65       1.0  0.53660  0.25750  0.36670  1.0000 0.1283254632
H   H66       1.0  0.67260  0.49290  0.38990  1.0000 0.1112098776
H   H67       1.0  0.58810  0.54260  0.43850  1.0000 0.1283254632
H   H68       1.0  0.66380  0.28490  0.34690  1.0000 0.1169842825
H   H69       1.0  0.88450  0.29590  0.28860  1.0000 0.1575703964
H   H70       1.0  0.95740  0.32990  0.21450  1.0000 0.1112098776
H   H71       1.0  0.92950  0.41040  0.14590  1.0000 0.1283254632
H   H72       1.0  0.76820  0.29480  0.31840  1.0000 0.2842599795
H   H73       1.0  0.04190  0.09480  0.39730  1.0000 0.1283254632
H   H74       1.0  0.16990  0.13330  0.39080  1.0000 0.1283254632
H   H75       1.0  0.28270  0.11010  0.60300  1.0000 0.1112098776
H   H76       1.0  0.14960  0.06150  0.60410  1.0000 0.1283254632
H   H77       1.0  0.31690  0.15310  0.43800  1.0000 0.1169842825
H   H78       1.0  0.59590  0.21140  0.50730  1.0000 0.1575703964
H   H79       1.0  0.74290  0.28550  0.61540  1.0000 0.1112098776
H   H80       1.0  0.78360  0.35410  0.76450  1.0000 0.1283254632
H   H81       1.0  0.44980  0.18160  0.47640  1.0000 0.2842599795
H   H82       1.0  0.45810  0.85540  0.05290  1.0000 0.1283254632
H   H83       1.0  0.33010  0.72090  0.96340  1.0000 0.1283254632
H   H84       1.0  0.21730  0.82030  0.82740  1.0000 0.1112098776
H   H85       1.0  0.35040  0.95450  0.91190  1.0000 0.1283254632
H   H86       1.0  0.18310  0.62110  0.83620  1.0000 0.1169842825
H   H87       1.0  0.90410  0.41140  0.61550  1.0000 0.1575703964
H   H88       1.0  0.75710  0.37250  0.54260  1.0000 0.1112098776
H   H89       1.0  0.71640  0.48090  0.57050  1.0000 0.1283254632
H   H90       1.0  0.05020  0.52660  0.73180  1.0000 0.2842599795
H   H91       1.0  0.30250  0.40520  0.44710  1.0000 0.1283254632
H   H92       1.0  0.25750  0.36670  0.53660  1.0000 0.1283254632
H   H93       1.0  0.49290  0.38990  0.67260  1.0000 0.1112098776
H   H94       1.0  0.54260  0.43850  0.58810  1.0000 0.1283254632
H   H95       1.0  0.28490  0.34690  0.66380  1.0000 0.1169842825
H   H96       1.0  0.29590  0.28860  0.88450  1.0000 0.1575703964
H   H97       1.0  0.32990  0.21450  0.95740  1.0000 0.1112098776
H   H98       1.0  0.41040  0.14590  0.92950  1.0000 0.1283254632
H   H99       1.0  0.29480  0.31840  0.76820  1.0000 0.2842599795
H   H100      1.0  0.19750  0.64460  0.10270  1.0000 0.1283254632
H   H101      1.0  0.24250  0.77910  0.10920  1.0000 0.1283254632
H   H102      1.0  0.00710  0.67970  0.89700  1.0000 0.1112098776
H   H103      1.0  0.95740  0.54550  0.89590  1.0000 0.1283254632
H   H104      1.0  0.21510  0.87890  0.06200  1.0000 0.1169842825
H   H105      1.0  0.20410  0.08860  0.99270  1.0000 0.1575703964
H   H106      1.0  0.17010  0.12750  0.88460  1.0000 0.1112098776
H   H107      1.0  0.08960  0.01910  0.73550  1.0000 0.1283254632
H   H108      1.0  0.20520  0.97340  0.02360  1.0000 0.2842599795
C   C1        1.0  0.42876  0.50990  0.42814  1.0000 0.1736837373
C   C2        1.0  0.40450  0.49429  0.34219  1.0000 -0.1771895691
C   C3        1.0  0.37986  0.54627  0.31483  1.0000 -0.1178339684
C   C4        1.0  0.37382  0.61398  0.37098  1.0000 0.057908814
C   C5        1.0  0.39475  0.62801  0.45490  1.0000 -0.1355523571
C   C6        1.0  0.42317  0.57707  0.48464  1.0000 -0.1935747978
C   C7        1.0  0.34593  0.66723  0.33650  1.0000 -0.0076331972
C   C8        1.0  0.26342  0.81212  0.35750  1.0000 0.3452156231
C   C9        1.0  0.26090  0.87360  0.32850  1.0000 -0.2312223196
C   C10       1.0  0.21720  0.91650  0.34890  1.0000 -0.0007877062
C   C11       1.0  0.17700  0.90080  0.39680  1.0000 -0.2222654451
C   C12       1.0  0.18410  0.84180  0.42450  1.0000 0.2374682025
C   C13       1.0  0.58176  0.00062  0.07186  1.0000 0.1736837373
C   C14       1.0  0.65210  0.06231  0.15781  1.0000 -0.1771895691
C   C15       1.0  0.73144  0.06503  0.18517  1.0000 -0.1178339684
C   C16       1.0  0.74300  0.00284  0.12902  1.0000 0.057908814
C   C17       1.0  0.67311  0.93985  0.04510  1.0000 -0.1355523571
C   C18       1.0  0.59243  0.93853  0.01536  1.0000 -0.1935747978
C   C19       1.0  0.83073  0.00943  0.16350  1.0000 -0.0076331972
C   C20       1.0  0.95462  0.90592  0.14250  1.0000 0.3452156231
C   C21       1.0  0.04510  0.93240  0.17150  1.0000 -0.2312223196
C   C22       1.0  0.06760  0.86830  0.15110  1.0000 -0.0007877062
C   C23       1.0  0.00400  0.78020  0.10320  1.0000 -0.2222654451
C   C24       1.0  0.91730  0.75960  0.07550  1.0000 0.2374682025
C   C25       1.0  0.07124  0.49938  0.08114  1.0000 0.1736837373
C   C26       1.0  0.09550  0.43769  0.08979  1.0000 -0.1771895691
C   C27       1.0  0.12014  0.43497  0.16641  1.0000 -0.1178339684
C   C28       1.0  0.12618  0.49716  0.24016  1.0000 0.057908814
C   C29       1.0  0.10525  0.56015  0.23326  1.0000 -0.1355523571
C   C30       1.0  0.07683  0.56147  0.15390  1.0000 -0.1935747978
C   C31       1.0  0.15407  0.49057  0.32130  1.0000 -0.0076331972
C   C32       1.0  0.23658  0.59408  0.54870  1.0000 0.3452156231
C   C33       1.0  0.23910  0.56760  0.61270  1.0000 -0.2312223196
C   C34       1.0  0.28280  0.63170  0.69930  1.0000 -0.0007877062
C   C35       1.0  0.32300  0.71980  0.72380  1.0000 -0.2222654451
C   C36       1.0  0.31590  0.74040  0.65770  1.0000 0.2374682025
C   C37       1.0  0.91824  0.99010  0.41886  1.0000 0.1736837373
C   C38       1.0  0.84790  0.00571  0.41021  1.0000 -0.1771895691
C   C39       1.0  0.76856  0.95373  0.33359  1.0000 -0.1178339684
C   C40       1.0  0.75700  0.88602  0.25984  1.0000 0.057908814
C   C41       1.0  0.82689  0.87199  0.26674  1.0000 -0.1355523571
C   C42       1.0  0.90757  0.92293  0.34610  1.0000 -0.1935747978
C   C43       1.0  0.66927  0.83277  0.17870  1.0000 -0.0076331972
C   C44       1.0  0.54538  0.68788  0.95130  1.0000 0.3452156231
C   C45       1.0  0.45490  0.62640  0.88730  1.0000 -0.2312223196
C   C46       1.0  0.43240  0.58350  0.80070  1.0000 -0.0007877062
C   C47       1.0  0.49600  0.59920  0.77620  1.0000 -0.2222654451
C   C48       1.0  0.58270  0.65820  0.84230  1.0000 0.2374682025
C   C49       1.0  0.99010  0.41886  0.91824  1.0000 0.1736837373
C   C50       1.0  0.00571  0.41021  0.84790  1.0000 -0.1771895691
C   C51       1.0  0.95373  0.33359  0.76856  1.0000 -0.1178339684
C   C52       1.0  0.88602  0.25984  0.75700  1.0000 0.057908814
C   C53       1.0  0.87199  0.26674  0.82689  1.0000 -0.1348432704
C   C54       1.0  0.92293  0.34610  0.90757  1.0000 -0.1935747978
C   C55       1.0  0.83277  0.17870  0.66927  1.0000 -0.0076331972
C   C56       1.0  0.68788  0.95130  0.54538  1.0000 0.3452156231
C   C57       1.0  0.62640  0.88730  0.45490  1.0000 -0.2312223196
C   C58       1.0  0.58350  0.80070  0.43240  1.0000 -0.0007877062
C   C59       1.0  0.59920  0.77620  0.49600  1.0000 -0.2222654451
C   C60       1.0  0.65820  0.84230  0.58270  1.0000 0.2374682025
C   C61       1.0  0.49938  0.08114  0.07124  1.0000 0.1736837373
C   C62       1.0  0.43769  0.08979  0.09550  1.0000 -0.1771895691
C   C63       1.0  0.43497  0.16641  0.12014  1.0000 -0.1178339684
C   C64       1.0  0.49716  0.24016  0.12618  1.0000 0.057908814
C   C65       1.0  0.56015  0.23326  0.10525  1.0000 -0.1355523571
C   C66       1.0  0.56147  0.15390  0.07683  1.0000 -0.1935747978
C   C67       1.0  0.49057  0.32130  0.15407  1.0000 -0.0076331972
C   C68       1.0  0.59408  0.54870  0.23658  1.0000 0.3447200701
C   C69       1.0  0.56760  0.61270  0.23910  1.0000 -0.2312223196
C   C70       1.0  0.63170  0.69930  0.28280  1.0000 -0.0007877062
C   C71       1.0  0.71980  0.72380  0.32300  1.0000 -0.2222654451
C   C72       1.0  0.74040  0.65770  0.31590  1.0000 0.2374682025
C   C73       1.0  0.00062  0.07186  0.58176  1.0000 0.1736837373
C   C74       1.0  0.06231  0.15781  0.65210  1.0000 -0.1771895691
C   C75       1.0  0.06503  0.18517  0.73144  1.0000 -0.1178339684
C   C76       1.0  0.00284  0.12902  0.74300  1.0000 0.057908814
C   C77       1.0  0.93985  0.04510  0.67311  1.0000 -0.1348432704
C   C78       1.0  0.93853  0.01536  0.59243  1.0000 -0.1935747978
C   C79       1.0  0.00943  0.16350  0.83073  1.0000 -0.0076331972
C   C80       1.0  0.90592  0.14250  0.95462  1.0000 0.3452156231
C   C81       1.0  0.93240  0.17150  0.04510  1.0000 -0.2312223196
C   C82       1.0  0.86830  0.15110  0.06760  1.0000 -0.0007877062
C   C83       1.0  0.78020  0.10320  0.00400  1.0000 -0.2222654451
C   C84       1.0  0.75960  0.07550  0.91730  1.0000 0.2374682025
C   C85       1.0  0.50990  0.42814  0.42876  1.0000 0.1736837373
C   C86       1.0  0.49429  0.34219  0.40450  1.0000 -0.1771895691
C   C87       1.0  0.54627  0.31483  0.37986  1.0000 -0.1178339684
C   C88       1.0  0.61398  0.37098  0.37382  1.0000 0.057908814
C   C89       1.0  0.62801  0.45490  0.39475  1.0000 -0.1355523571
C   C90       1.0  0.57707  0.48464  0.42317  1.0000 -0.1935747978
C   C91       1.0  0.66723  0.33650  0.34593  1.0000 -0.0076331972
C   C92       1.0  0.81212  0.35750  0.26342  1.0000 0.3452156231
C   C93       1.0  0.87360  0.32850  0.26090  1.0000 -0.2312223196
C   C94       1.0  0.91650  0.34890  0.21720  1.0000 -0.0007877062
C   C95       1.0  0.90080  0.39680  0.17700  1.0000 -0.2222654451
C   C96       1.0  0.84180  0.42450  0.18410  1.0000 0.2374682025
C   C97       1.0  0.08114  0.07124  0.49938  1.0000 0.1736837373
C   C98       1.0  0.08979  0.09550  0.43769  1.0000 -0.1771895691
C   C99       1.0  0.16641  0.12014  0.43497  1.0000 -0.1178339684
C   C100      1.0  0.24016  0.12618  0.49716  1.0000 0.057908814
C   C101      1.0  0.23326  0.10525  0.56015  1.0000 -0.1355523571
C   C102      1.0  0.15390  0.07683  0.56147  1.0000 -0.1935747978
C   C103      1.0  0.32130  0.15407  0.49057  1.0000 -0.0076331972
C   C104      1.0  0.54870  0.23658  0.59408  1.0000 0.3452156231
C   C105      1.0  0.61270  0.23910  0.56760  1.0000 -0.2312223196
C   C106      1.0  0.69930  0.28280  0.63170  1.0000 -0.0007877062
C   C107      1.0  0.72380  0.32300  0.71980  1.0000 -0.2222654451
C   C108      1.0  0.65770  0.31590  0.74040  1.0000 0.2374682025
C   C109      1.0  0.41886  0.91824  0.99010  1.0000 0.1736837373
C   C110      1.0  0.41021  0.84790  0.00571  1.0000 -0.1771895691
C   C111      1.0  0.33359  0.76856  0.95373  1.0000 -0.1178339684
C   C112      1.0  0.25984  0.75700  0.88602  1.0000 0.057908814
C   C113      1.0  0.26674  0.82689  0.87199  1.0000 -0.1355523571
C   C114      1.0  0.34610  0.90757  0.92293  1.0000 -0.1935747978
C   C115      1.0  0.17870  0.66927  0.83277  1.0000 -0.0076331972
C   C116      1.0  0.95130  0.54538  0.68788  1.0000 0.3452156231
C   C117      1.0  0.88730  0.45490  0.62640  1.0000 -0.2312223196
C   C118      1.0  0.80070  0.43240  0.58350  1.0000 -0.0007877062
C   C119      1.0  0.77620  0.49600  0.59920  1.0000 -0.2222654451
C   C120      1.0  0.84230  0.58270  0.65820  1.0000 0.2374682025
C   C121      1.0  0.42814  0.42876  0.50990  1.0000 0.1736837373
C   C122      1.0  0.34219  0.40450  0.49429  1.0000 -0.1771895691
C   C123      1.0  0.31483  0.37986  0.54627  1.0000 -0.1178339684
C   C124      1.0  0.37098  0.37382  0.61398  1.0000 0.057908814
C   C125      1.0  0.45490  0.39475  0.62801  1.0000 -0.1355523571
C   C126      1.0  0.48464  0.42317  0.57707  1.0000 -0.1935747978
C   C127      1.0  0.33650  0.34593  0.66723  1.0000 -0.0076331972
C   C128      1.0  0.35750  0.26342  0.81212  1.0000 0.3452156231
C   C129      1.0  0.32850  0.26090  0.87360  1.0000 -0.2312223196
C   C130      1.0  0.34890  0.21720  0.91650  1.0000 -0.0007877062
C   C131      1.0  0.39680  0.17700  0.90080  1.0000 -0.2222654451
C   C132      1.0  0.42450  0.18410  0.84180  1.0000 0.2374682025
C   C133      1.0  0.07186  0.58176  0.00062  1.0000 0.1736837373
C   C134      1.0  0.15781  0.65210  0.06231  1.0000 -0.1771895691
C   C135      1.0  0.18517  0.73144  0.06503  1.0000 -0.1178339684
C   C136      1.0  0.12902  0.74300  0.00284  1.0000 0.057908814
C   C137      1.0  0.04510  0.67311  0.93985  1.0000 -0.1355523571
C   C138      1.0  0.01536  0.59243  0.93853  1.0000 -0.1935747978
C   C139      1.0  0.16350  0.83073  0.00943  1.0000 -0.0076331972
C   C140      1.0  0.14250  0.95462  0.90592  1.0000 0.3452156231
C   C141      1.0  0.17150  0.04510  0.93240  1.0000 -0.2312223196
C   C142      1.0  0.15110  0.06760  0.86830  1.0000 -0.0007877062
C   C143      1.0  0.10320  0.00400  0.78020  1.0000 -0.2222654451
C   C144      1.0  0.07550  0.91730  0.75960  1.0000 0.2374682025
Br  Br1       1.0  0.13460  0.82040  0.49424  1.0000 -0.0940297011
Br  Br2       1.0  0.82616  0.64036  0.00576  1.0000 -0.0940297011
Br  Br3       1.0  0.36540  0.85964  0.68580  1.0000 -0.0940297011
Br  Br4       1.0  0.67384  0.67960  0.81420  1.0000 -0.0940297011
Br  Br5       1.0  0.67960  0.81420  0.67384  1.0000 -0.0940297011
Br  Br6       1.0  0.85964  0.68580  0.36540  1.0000 -0.0940297011
Br  Br7       1.0  0.64036  0.00576  0.82616  1.0000 -0.0940297011
Br  Br8       1.0  0.82040  0.49424  0.13460  1.0000 -0.0940297011
Br  Br9       1.0  0.68580  0.36540  0.85964  1.0000 -0.0940297011
Br  Br10      1.0  0.81420  0.67384  0.67960  1.0000 -0.095203194
Br  Br11      1.0  0.49424  0.13460  0.82040  1.0000 -0.0940297011
Br  Br12      1.0  0.00576  0.82616  0.64036  1.0000 -0.0940297011
N   N1        1.0  0.32084  0.71740  0.37260  1.0000 -0.1178339684
N   N2        1.0  0.30341  0.76651  0.33442  1.0000 -0.1935747978
N   N3        1.0  0.22573  0.79778  0.40637  1.0000 -0.3275769159
N   N4        1.0  0.84480  0.94824  0.12740  1.0000 -0.1178339684
N   N5        1.0  0.93209  0.96899  0.16558  1.0000 -0.1935747978
N   N6        1.0  0.89141  0.81936  0.09363  1.0000 -0.3275769159
N   N7        1.0  0.17916  0.55176  0.39656  1.0000 -0.1178339684
N   N8        1.0  0.19659  0.53101  0.46310  1.0000 -0.1935747978
N   N9        1.0  0.27427  0.68064  0.57205  1.0000 -0.3275769159
N   N10       1.0  0.65520  0.78260  0.10344  1.0000 -0.1178339684
N   N11       1.0  0.56791  0.73349  0.03690  1.0000 -0.1935747978
N   N12       1.0  0.60859  0.70222  0.92795  1.0000 -0.3275769159
N   N13       1.0  0.78260  0.10344  0.65520  1.0000 -0.1178339684
N   N14       1.0  0.73349  0.03690  0.56791  1.0000 -0.1935747978
N   N15       1.0  0.70222  0.92795  0.60859  1.0000 -0.3275769159
N   N16       1.0  0.55176  0.39656  0.17916  1.0000 -0.1178339684
N   N17       1.0  0.53101  0.46310  0.19659  1.0000 -0.1935747978
N   N18       1.0  0.68064  0.57205  0.27427  1.0000 -0.3275769159
N   N19       1.0  0.94824  0.12740  0.84480  1.0000 -0.1178339684
N   N20       1.0  0.96899  0.16558  0.93209  1.0000 -0.1935747978
N   N21       1.0  0.81936  0.09363  0.89141  1.0000 -0.3275769159
N   N22       1.0  0.71740  0.37260  0.32084  1.0000 -0.1178339684
N   N23       1.0  0.76651  0.33442  0.30341  1.0000 -0.1935747978
N   N24       1.0  0.79778  0.40637  0.22573  1.0000 -0.3275769159
N   N25       1.0  0.39656  0.17916  0.55176  1.0000 -0.1178339684
N   N26       1.0  0.46310  0.19659  0.53101  1.0000 -0.1935747978
N   N27       1.0  0.57205  0.27427  0.68064  1.0000 -0.3275769159
N   N28       1.0  0.10344  0.65520  0.78260  1.0000 -0.1178339684
N   N29       1.0  0.03690  0.56791  0.73349  1.0000 -0.1935747978
N   N30       1.0  0.92795  0.60859  0.70222  1.0000 -0.3275769159
N   N31       1.0  0.37260  0.32084  0.71740  1.0000 -0.1178339684
N   N32       1.0  0.33442  0.30341  0.76651  1.0000 -0.1935747978
N   N33       1.0  0.40637  0.22573  0.79778  1.0000 -0.3275769159
N   N34       1.0  0.12740  0.84480  0.94824  1.0000 -0.1178339684
N   N35       1.0  0.16558  0.93209  0.96899  1.0000 -0.1935747978
N   N36       1.0  0.09363  0.89141  0.81936  1.0000 -0.3275769159
N   N37       1.0  0.45806  0.45806  0.45806  1.0000 -0.1629558905
N   N38       1.0  0.50000  0.00000  0.04194  1.0000 -0.1629558905
N   N39       1.0  0.04194  0.50000  0.00000  1.0000 -0.1629558905
N   N40       1.0  0.00000  0.04194  0.50000  1.0000 -0.1629558905
Cl  Cl1       1.0  0.25000  0.31290  0.06290  1.0000 1.2705084528
Cl  Cl2       1.0  0.75000  0.18710  0.43710  1.0000 1.2705084528
Cl  Cl3       1.0  0.06290  0.25000  0.31290  1.0000 1.2705084528
Cl  Cl4       1.0  0.43710  0.75000  0.18710  1.0000 1.2705084528
Cl  Cl5       1.0  0.18710  0.43710  0.75000  1.0000 1.2705084528
Cl  Cl6       1.0  0.31290  0.06290  0.25000  1.0000 1.2705084528
O   O1        1.0  0.22434  0.29839  0.97545  1.0000 -0.5047659829
O   O2        1.0  0.32580  0.40050  0.12450  1.0000 -0.5143414989
O   O3        1.0  0.27566  0.25111  0.07405  1.0000 -0.5047659829
O   O4        1.0  0.17420  0.29870  0.07470  1.0000 -0.5143414989
O   O5        1.0  0.67706  0.20161  0.42595  1.0000 -0.5047659829
O   O6        1.0  0.72400  0.09950  0.42530  1.0000 -0.5143414989
O   O7        1.0  0.82294  0.24889  0.52455  1.0000 -0.5047659829
O   O8        1.0  0.77600  0.20130  0.37550  1.0000 -0.5143414989
O   O9        1.0  0.07405  0.27566  0.25111  1.0000 -0.5047659829
O   O10       1.0  0.07470  0.17420  0.29870  1.0000 -0.5143414989
O   O11       1.0  0.97545  0.22434  0.29839  1.0000 -0.5047659829
O   O12       1.0  0.12450  0.32580  0.40050  1.0000 -0.5143414989
O   O13       1.0  0.52455  0.82294  0.24889  1.0000 -0.5047659829
O   O14       1.0  0.37550  0.77600  0.20130  1.0000 -0.5143414989
O   O15       1.0  0.42595  0.67706  0.20161  1.0000 -0.5047659829
O   O16       1.0  0.42530  0.72400  0.09950  1.0000 -0.5143414989
O   O17       1.0  0.20161  0.42595  0.67706  1.0000 -0.5047659829
O   O18       1.0  0.09950  0.42530  0.72400  1.0000 -0.5143414989
O   O19       1.0  0.24889  0.52455  0.82294  1.0000 -0.5047659829
O   O20       1.0  0.20130  0.37550  0.77600  1.0000 -0.5143414989
O   O21       1.0  0.29839  0.97545  0.22434  1.0000 -0.5047659829
O   O22       1.0  0.40050  0.12450  0.32580  1.0000 -0.5143414989
O   O23       1.0  0.25111  0.07405  0.27566  1.0000 -0.5047659829
O   O24       1.0  0.29870  0.07470  0.17420  1.0000 -0.5143414989
