# DDEC6 charges by PACMAN v1.1 (https://github.com/mtap-research/PACMAN-charge/)
data_2017[Ag][srs]3[ION]22
_chemical_formula_sum              "Ag6 H108 C144 N40 Cl18 O24"
_cell_length_a       18.485
_cell_length_b       18.485
_cell_length_c       18.485
_cell_angle_alpha    109.471
_cell_angle_beta     109.471
_cell_angle_gamma    109.471

_symmetry_space_group_name_H-M    "P 1"
_symmetry_Int_Tables_number       1

loop_
  _symmetry_equiv_pos_as_xyz
  'x, y, z'

loop_
  _atom_site_type_symbol
  _atom_site_label
  _atom_site_symmetry_multiplicity
  _atom_site_fract_x
  _atom_site_fract_y
  _atom_site_fract_z
  _atom_site_occupancy
  _atom_site_charge
Ag  Ag1       1.0  0.21008  0.96008  0.25000  1.0000 0.314571516
Ag  Ag2       1.0  0.28992  0.53992  0.75000  1.0000 0.314571516
Ag  Ag3       1.0  0.53992  0.75000  0.28992  1.0000 0.3189648104
Ag  Ag4       1.0  0.96008  0.25000  0.21008  1.0000 0.314571516
Ag  Ag5       1.0  0.75000  0.28992  0.53992  1.0000 0.314571516
Ag  Ag6       1.0  0.25000  0.21008  0.96008  1.0000 0.3189648104
H   H1        1.0  0.10280  0.03930  0.45430  1.0000 0.1294307572
H   H2        1.0  0.10070  0.99130  0.32000  1.0000 0.1118690214
H   H3        1.0  0.89200  0.75560  0.22100  1.0000 0.1294307572
H   H4        1.0  0.89460  0.79970  0.35410  1.0000 0.1294307572
H   H5        1.0  0.93600  0.78480  0.12060  1.0000 0.1118690214
H   H6        1.0  0.00690  0.79530  0.91200  1.0000 0.1545611682
H   H7        1.0  0.11800  0.83390  0.87550  1.0000 0.1118690214
H   H8        1.0  0.26440  0.91430  0.98490  1.0000 0.1294307572
H   H9        1.0  0.97590  0.79680  0.02770  1.0000 0.2830351956
H   H10       1.0  0.08500  0.64850  0.04570  1.0000 0.1294307572
H   H11       1.0  0.17130  0.78070  0.18000  1.0000 0.1118690214
H   H12       1.0  0.03460  0.67100  0.27900  1.0000 0.1294307572
H   H13       1.0  0.94560  0.54050  0.14590  1.0000 0.1294307572
H   H14       1.0  0.16420  0.81540  0.37940  1.0000 0.1118690214
H   H15       1.0  0.38330  0.09490  0.58800  1.0000 0.1545611682
H   H16       1.0  0.45840  0.24250  0.62450  1.0000 0.1118690214
H   H17       1.0  0.42940  0.27950  0.51510  1.0000 0.1294307572
H   H18       1.0  0.26910  0.94820  0.47230  1.0000 0.2830351956
H   H19       1.0  0.39720  0.85150  0.93650  1.0000 0.1294307572
H   H20       1.0  0.39930  0.71930  0.89060  1.0000 0.1118690214
H   H21       1.0  0.60800  0.82900  0.86360  1.0000 0.1294307572
H   H22       1.0  0.60540  0.95950  0.90510  1.0000 0.1294307572
H   H23       1.0  0.56400  0.68460  0.84880  1.0000 0.1118690214
H   H24       1.0  0.49310  0.40510  0.78840  1.0000 0.1545611682
H   H25       1.0  0.38200  0.25750  0.71590  1.0000 0.1118690214
H   H26       1.0  0.23560  0.22050  0.64990  1.0000 0.1294307572
H   H27       1.0  0.52410  0.55180  0.82090  1.0000 0.2830351956
H   H28       1.0  0.41500  0.46070  0.56350  1.0000 0.1294307572
H   H29       1.0  0.32870  0.50870  0.60940  1.0000 0.1118690214
H   H30       1.0  0.46540  0.74440  0.63640  1.0000 0.1294307572
H   H31       1.0  0.55440  0.70030  0.59490  1.0000 0.1294307572
H   H32       1.0  0.33580  0.71520  0.65120  1.0000 0.1118690214
H   H33       1.0  0.11670  0.70470  0.71160  1.0000 0.1545611682
H   H34       1.0  0.04160  0.66610  0.78410  1.0000 0.1118690214
H   H35       1.0  0.07060  0.58570  0.85010  1.0000 0.1294307572
H   H36       1.0  0.23090  0.70320  0.67910  1.0000 0.2830351956
H   H37       1.0  0.46070  0.56350  0.41500  1.0000 0.1294307572
H   H38       1.0  0.50870  0.60940  0.32870  1.0000 0.1118690214
H   H39       1.0  0.74440  0.63640  0.46540  1.0000 0.1294307572
H   H40       1.0  0.70030  0.59490  0.55440  1.0000 0.1294307572
H   H41       1.0  0.71520  0.65120  0.33580  1.0000 0.1118690214
H   H42       1.0  0.70470  0.71160  0.11670  1.0000 0.1545611682
H   H43       1.0  0.66610  0.78410  0.04160  1.0000 0.1118690214
H   H44       1.0  0.58570  0.85010  0.07060  1.0000 0.1294307572
H   H45       1.0  0.70320  0.67910  0.23090  1.0000 0.2830351956
H   H46       1.0  0.85150  0.93650  0.39720  1.0000 0.1294307572
H   H47       1.0  0.71930  0.89060  0.39930  1.0000 0.1118690214
H   H48       1.0  0.82900  0.86360  0.60800  1.0000 0.1294307572
H   H49       1.0  0.95950  0.90510  0.60540  1.0000 0.1294307572
H   H50       1.0  0.68460  0.84880  0.56400  1.0000 0.1118690214
H   H51       1.0  0.40510  0.78840  0.49310  1.0000 0.1545611682
H   H52       1.0  0.25750  0.71590  0.38200  1.0000 0.1118690214
H   H53       1.0  0.22050  0.64990  0.23560  1.0000 0.1294307572
H   H54       1.0  0.55180  0.82090  0.52410  1.0000 0.2830351956
H   H55       1.0  0.64850  0.04570  0.08500  1.0000 0.1294307572
H   H56       1.0  0.78070  0.18000  0.17130  1.0000 0.1118690214
H   H57       1.0  0.67100  0.27900  0.03460  1.0000 0.1294307572
H   H58       1.0  0.54050  0.14590  0.94560  1.0000 0.1294307572
H   H59       1.0  0.81540  0.37940  0.16420  1.0000 0.1118690214
H   H60       1.0  0.09490  0.58800  0.38330  1.0000 0.1545611682
H   H61       1.0  0.24250  0.62450  0.45840  1.0000 0.1118690214
H   H62       1.0  0.27950  0.51510  0.42940  1.0000 0.1294307572
H   H63       1.0  0.94820  0.47230  0.26910  1.0000 0.2830351956
H   H64       1.0  0.03930  0.45430  0.10280  1.0000 0.1294307572
H   H65       1.0  0.99130  0.32000  0.10070  1.0000 0.1118690214
H   H66       1.0  0.75560  0.22100  0.89200  1.0000 0.1294307572
H   H67       1.0  0.79970  0.35410  0.89460  1.0000 0.1294307572
H   H68       1.0  0.78480  0.12060  0.93600  1.0000 0.1118690214
H   H69       1.0  0.79530  0.91200  0.00690  1.0000 0.1545611682
H   H70       1.0  0.83390  0.87550  0.11800  1.0000 0.1118690214
H   H71       1.0  0.91430  0.98490  0.26440  1.0000 0.1294307572
H   H72       1.0  0.79680  0.02770  0.97590  1.0000 0.2830351956
H   H73       1.0  0.93650  0.39720  0.85150  1.0000 0.1294307572
H   H74       1.0  0.89060  0.39930  0.71930  1.0000 0.1118690214
H   H75       1.0  0.86360  0.60800  0.82900  1.0000 0.1294307572
H   H76       1.0  0.90510  0.60540  0.95950  1.0000 0.1294307572
H   H77       1.0  0.84880  0.56400  0.68460  1.0000 0.1118690214
H   H78       1.0  0.78840  0.49310  0.40510  1.0000 0.1545611682
H   H79       1.0  0.71590  0.38200  0.25750  1.0000 0.1118690214
H   H80       1.0  0.64990  0.23560  0.22050  1.0000 0.1294307572
H   H81       1.0  0.82090  0.52410  0.55180  1.0000 0.2830351956
H   H82       1.0  0.56350  0.41500  0.46070  1.0000 0.1294307572
H   H83       1.0  0.60940  0.32870  0.50870  1.0000 0.1118690214
H   H84       1.0  0.63640  0.46540  0.74440  1.0000 0.1294307572
H   H85       1.0  0.59490  0.55440  0.70030  1.0000 0.1294307572
H   H86       1.0  0.65120  0.33580  0.71520  1.0000 0.1118690214
H   H87       1.0  0.71160  0.11670  0.70470  1.0000 0.1545611682
H   H88       1.0  0.78410  0.04160  0.66610  1.0000 0.1118690214
H   H89       1.0  0.85010  0.07060  0.58570  1.0000 0.1294307572
H   H90       1.0  0.67910  0.23090  0.70320  1.0000 0.2830351956
H   H91       1.0  0.45430  0.10280  0.03930  1.0000 0.1294307572
H   H92       1.0  0.32000  0.10070  0.99130  1.0000 0.1118690214
H   H93       1.0  0.22100  0.89200  0.75560  1.0000 0.1294307572
H   H94       1.0  0.35410  0.89460  0.79970  1.0000 0.1294307572
H   H95       1.0  0.12060  0.93600  0.78480  1.0000 0.1118690214
H   H96       1.0  0.91200  0.00690  0.79530  1.0000 0.1545611682
H   H97       1.0  0.87550  0.11800  0.83390  1.0000 0.1118690214
H   H98       1.0  0.98490  0.26440  0.91430  1.0000 0.1294307572
H   H99       1.0  0.02770  0.97590  0.79680  1.0000 0.2830351956
H   H100      1.0  0.04570  0.08500  0.64850  1.0000 0.1294307572
H   H101      1.0  0.18000  0.17130  0.78070  1.0000 0.1118690214
H   H102      1.0  0.27900  0.03460  0.67100  1.0000 0.1294307572
H   H103      1.0  0.14590  0.94560  0.54050  1.0000 0.1294307572
H   H104      1.0  0.37940  0.16420  0.81540  1.0000 0.1118690214
H   H105      1.0  0.58800  0.38330  0.09490  1.0000 0.1545611682
H   H106      1.0  0.62450  0.45840  0.24250  1.0000 0.1118690214
H   H107      1.0  0.51510  0.42940  0.27950  1.0000 0.1294307572
H   H108      1.0  0.47230  0.26910  0.94820  1.0000 0.2830351956
C   C1        1.0  0.99930  0.92426  0.41816  1.0000 0.1754046045
C   C2        1.0  0.06030  0.98140  0.40730  1.0000 -0.1914331261
C   C3        1.0  0.05850  0.95260  0.32670  1.0000 -0.1377327828
C   C4        1.0  0.99600  0.86860  0.25660  1.0000 0.0597672201
C   C5        1.0  0.93520  0.81300  0.26860  1.0000 -0.1185440171
C   C6        1.0  0.93630  0.83910  0.34760  1.0000 -0.1813756303
C   C7        1.0  0.98890  0.83550  0.16900  1.0000 -0.0095932311
C   C8        1.0  0.09330  0.85820  0.04570  1.0000 0.3367990764
C   C9        1.0  0.06700  0.82900  0.95600  1.0000 -0.2372495482
C   C10       1.0  0.13300  0.85160  0.93480  1.0000 -0.0095932311
C   C11       1.0  0.21900  0.89920  0.99880  1.0000 -0.2314458093
C   C12       1.0  0.23840  0.92480  0.08440  1.0000 0.2830351956
C   C13       1.0  0.00610  0.58114  0.08184  1.0000 0.1754046045
C   C14       1.0  0.07410  0.65300  0.09270  1.0000 -0.1914331261
C   C15       1.0  0.12590  0.73180  0.17330  1.0000 -0.1377327828
C   C16       1.0  0.11200  0.73940  0.24340  1.0000 0.0597672201
C   C17       1.0  0.04440  0.66667  0.23140  1.0000 -0.1185440171
C   C18       1.0  0.99150  0.58870  0.15240  1.0000 -0.1813756303
C   C19       1.0  0.16650  0.81990  0.33100  1.0000 -0.0095932311
C   C20       1.0  0.31250  0.04760  0.45430  1.0000 0.3367990764
C   C21       1.0  0.37300  0.11100  0.54400  1.0000 -0.2372495482
C   C22       1.0  0.41680  0.19820  0.56520  1.0000 -0.0095932311
C   C23       1.0  0.40040  0.22020  0.50120  1.0000 -0.2314458093
C   C24       1.0  0.34040  0.15400  0.41560  1.0000 0.2830351956
C   C25       1.0  0.50070  0.91886  0.92496  1.0000 0.1754046045
C   C26       1.0  0.43970  0.84700  0.92110  1.0000 -0.1914331261
C   C27       1.0  0.44150  0.76820  0.89410  1.0000 -0.1377327828
C   C28       1.0  0.50400  0.76060  0.87260  1.0000 0.0597672201
C   C29       1.0  0.56480  0.83340  0.87780  1.0000 -0.1185440171
C   C30       1.0  0.56370  0.91130  0.90280  1.0000 -0.1813756303
C   C31       1.0  0.51110  0.68010  0.84660  1.0000 -0.0095932311
C   C32       1.0  0.40670  0.45240  0.76490  1.0000 0.3367990764
C   C33       1.0  0.43300  0.38900  0.76200  1.0000 -0.2372495482
C   C34       1.0  0.36700  0.30180  0.71860  1.0000 -0.0095932311
C   C35       1.0  0.28100  0.27980  0.68020  1.0000 -0.2314458093
C   C36       1.0  0.26160  0.34600  0.68640  1.0000 0.2830351956
C   C37       1.0  0.49390  0.57574  0.57504  1.0000 0.1754046045
C   C38       1.0  0.42590  0.51860  0.57890  1.0000 -0.1914331261
C   C39       1.0  0.37410  0.54740  0.60590  1.0000 -0.1377327828
C   C40       1.0  0.38800  0.63140  0.62740  1.0000 0.0597672201
C   C41       1.0  0.45560  0.68700  0.62220  1.0000 -0.1185440171
C   C42       1.0  0.50850  0.66090  0.59720  1.0000 -0.1813756303
C   C43       1.0  0.33350  0.66450  0.65340  1.0000 -0.0095932311
C   C44       1.0  0.18750  0.64180  0.73510  1.0000 0.3367990764
C   C45       1.0  0.12700  0.67100  0.73800  1.0000 -0.2372495482
C   C46       1.0  0.08320  0.64840  0.78140  1.0000 -0.0095932311
C   C47       1.0  0.09960  0.60080  0.81980  1.0000 -0.2314458093
C   C48       1.0  0.15960  0.57520  0.81360  1.0000 0.2830351956
C   C49       1.0  0.57574  0.57504  0.49390  1.0000 0.1754046045
C   C50       1.0  0.51860  0.57890  0.42590  1.0000 -0.1914331261
C   C51       1.0  0.54740  0.60590  0.37410  1.0000 -0.1377327828
C   C52       1.0  0.63140  0.62740  0.38800  1.0000 0.0597672201
C   C53       1.0  0.68700  0.62220  0.45560  1.0000 -0.1185440171
C   C54       1.0  0.66090  0.59720  0.50850  1.0000 -0.1813756303
C   C55       1.0  0.66450  0.65340  0.33350  1.0000 -0.0095932311
C   C56       1.0  0.64180  0.73510  0.18750  1.0000 0.3367990764
C   C57       1.0  0.67100  0.73800  0.12700  1.0000 -0.2372495482
C   C58       1.0  0.64840  0.78140  0.08320  1.0000 -0.0095932311
C   C59       1.0  0.60080  0.81980  0.09960  1.0000 -0.2314458093
C   C60       1.0  0.57520  0.81360  0.15960  1.0000 0.2830351956
C   C61       1.0  0.91886  0.92496  0.50070  1.0000 0.1754046045
C   C62       1.0  0.84700  0.92110  0.43970  1.0000 -0.1914331261
C   C63       1.0  0.76820  0.89410  0.44150  1.0000 -0.1377327828
C   C64       1.0  0.76060  0.87260  0.50400  1.0000 0.0597672201
C   C65       1.0  0.83340  0.87780  0.56480  1.0000 -0.1185440171
C   C66       1.0  0.91130  0.90280  0.56370  1.0000 -0.1813756303
C   C67       1.0  0.68010  0.84660  0.51110  1.0000 -0.0095932311
C   C68       1.0  0.45240  0.76490  0.40670  1.0000 0.3367990764
C   C69       1.0  0.38900  0.76200  0.43300  1.0000 -0.2372495482
C   C70       1.0  0.30180  0.71860  0.36700  1.0000 -0.0095932311
C   C71       1.0  0.27980  0.68020  0.28100  1.0000 -0.2314458093
C   C72       1.0  0.34600  0.68640  0.26160  1.0000 0.2830351956
C   C73       1.0  0.58114  0.08184  0.00610  1.0000 0.1754046045
C   C74       1.0  0.65300  0.09270  0.07410  1.0000 -0.1914331261
C   C75       1.0  0.73180  0.17330  0.12590  1.0000 -0.1377327828
C   C76       1.0  0.73940  0.24340  0.11200  1.0000 0.0597672201
C   C77       1.0  0.66667  0.23140  0.04440  1.0000 -0.1185440171
C   C78       1.0  0.58870  0.15240  0.99150  1.0000 -0.1813756303
C   C79       1.0  0.81990  0.33100  0.16650  1.0000 -0.0095932311
C   C80       1.0  0.04760  0.45430  0.31250  1.0000 0.3367990764
C   C81       1.0  0.11100  0.54400  0.37300  1.0000 -0.2372495482
C   C82       1.0  0.19820  0.56520  0.41680  1.0000 -0.0095932311
C   C83       1.0  0.22020  0.50120  0.40040  1.0000 -0.2314458093
C   C84       1.0  0.15400  0.41560  0.34040  1.0000 0.2830351956
C   C85       1.0  0.92426  0.41816  0.99930  1.0000 0.1754046045
C   C86       1.0  0.98140  0.40730  0.06030  1.0000 -0.1914331261
C   C87       1.0  0.95260  0.32670  0.05850  1.0000 -0.1377327828
C   C88       1.0  0.86860  0.25660  0.99600  1.0000 0.0597672201
C   C89       1.0  0.81300  0.26860  0.93520  1.0000 -0.1185440171
C   C90       1.0  0.83910  0.34760  0.93630  1.0000 -0.1813756303
C   C91       1.0  0.83550  0.16900  0.98890  1.0000 -0.0095932311
C   C92       1.0  0.85820  0.04570  0.09330  1.0000 0.3367990764
C   C93       1.0  0.82900  0.95600  0.06700  1.0000 -0.2372495482
C   C94       1.0  0.85160  0.93480  0.13300  1.0000 -0.0095932311
C   C95       1.0  0.89920  0.99880  0.21900  1.0000 -0.2314458093
C   C96       1.0  0.92480  0.08440  0.23840  1.0000 0.2830351956
C   C97       1.0  0.92496  0.50070  0.91886  1.0000 0.1754046045
C   C98       1.0  0.92110  0.43970  0.84700  1.0000 -0.1914331261
C   C99       1.0  0.89410  0.44150  0.76820  1.0000 -0.1377327828
C   C100      1.0  0.87260  0.50400  0.76060  1.0000 0.0597672201
C   C101      1.0  0.87780  0.56480  0.83340  1.0000 -0.1185440171
C   C102      1.0  0.90280  0.56370  0.91130  1.0000 -0.1813756303
C   C103      1.0  0.84660  0.51110  0.68010  1.0000 -0.0095932311
C   C104      1.0  0.76490  0.40670  0.45240  1.0000 0.3367990764
C   C105      1.0  0.76200  0.43300  0.38900  1.0000 -0.2372495482
C   C106      1.0  0.71860  0.36700  0.30180  1.0000 -0.0095932311
C   C107      1.0  0.68020  0.28100  0.27980  1.0000 -0.2314458093
C   C108      1.0  0.68640  0.26160  0.34600  1.0000 0.2850247038
C   C109      1.0  0.57504  0.49390  0.57574  1.0000 0.1754046045
C   C110      1.0  0.57890  0.42590  0.51860  1.0000 -0.1914331261
C   C111      1.0  0.60590  0.37410  0.54740  1.0000 -0.1377327828
C   C112      1.0  0.62740  0.38800  0.63140  1.0000 0.0597672201
C   C113      1.0  0.62220  0.45560  0.68700  1.0000 -0.1185440171
C   C114      1.0  0.59720  0.50850  0.66090  1.0000 -0.1813756303
C   C115      1.0  0.65340  0.33350  0.66450  1.0000 -0.0095932311
C   C116      1.0  0.73510  0.18750  0.64180  1.0000 0.3367990764
C   C117      1.0  0.73800  0.12700  0.67100  1.0000 -0.2372495482
C   C118      1.0  0.78140  0.08320  0.64840  1.0000 -0.0095932311
C   C119      1.0  0.81980  0.09960  0.60080  1.0000 -0.2314458093
C   C120      1.0  0.81360  0.15960  0.57520  1.0000 0.2830351956
C   C121      1.0  0.41816  0.99930  0.92426  1.0000 0.1754046045
C   C122      1.0  0.40730  0.06030  0.98140  1.0000 -0.1914331261
C   C123      1.0  0.32670  0.05850  0.95260  1.0000 -0.1377327828
C   C124      1.0  0.25660  0.99600  0.86860  1.0000 0.0597672201
C   C125      1.0  0.26860  0.93520  0.81300  1.0000 -0.1185440171
C   C126      1.0  0.34760  0.93630  0.83910  1.0000 -0.1813756303
C   C127      1.0  0.16900  0.98890  0.83550  1.0000 -0.0095932311
C   C128      1.0  0.04570  0.09330  0.85820  1.0000 0.3367990764
C   C129      1.0  0.95600  0.06700  0.82900  1.0000 -0.2372495482
C   C130      1.0  0.93480  0.13300  0.85160  1.0000 -0.0095932311
C   C131      1.0  0.99880  0.21900  0.89920  1.0000 -0.2314458093
C   C132      1.0  0.08440  0.23840  0.92480  1.0000 0.2830351956
C   C133      1.0  0.08184  0.00610  0.58114  1.0000 0.1754046045
C   C134      1.0  0.09270  0.07410  0.65300  1.0000 -0.1914331261
C   C135      1.0  0.17330  0.12590  0.73180  1.0000 -0.1377327828
C   C136      1.0  0.24340  0.11200  0.73940  1.0000 0.0597672201
C   C137      1.0  0.23140  0.04440  0.66667  1.0000 -0.1185440171
C   C138      1.0  0.15240  0.99150  0.58870  1.0000 -0.1813756303
C   C139      1.0  0.33100  0.16650  0.81990  1.0000 -0.0095932311
C   C140      1.0  0.45430  0.31250  0.04760  1.0000 0.3367990764
C   C141      1.0  0.54400  0.37300  0.11100  1.0000 -0.2372495482
C   C142      1.0  0.56520  0.41680  0.19820  1.0000 -0.0095932311
C   C143      1.0  0.50120  0.40040  0.22020  1.0000 -0.2314458093
C   C144      1.0  0.41560  0.34040  0.15400  1.0000 0.2850247038
N   N1        1.0  0.05020  0.87167  0.15539  1.0000 -0.1185440171
N   N2        1.0  0.03058  0.83562  0.06914  1.0000 -0.1914331261
N   N3        1.0  0.17944  0.90704  0.11000  1.0000 -0.3345468288
N   N4        1.0  0.21628  0.89481  0.34461  1.0000 -0.1185440171
N   N5        1.0  0.26648  0.96144  0.43086  1.0000 -0.1914331261
N   N6        1.0  0.29704  0.06944  0.39000  1.0000 -0.3357451844
N   N7        1.0  0.44980  0.60519  0.82147  1.0000 -0.1185440171
N   N8        1.0  0.46942  0.53856  0.80504  1.0000 -0.1914331261
N   N9        1.0  0.32056  0.43056  0.72760  1.0000 -0.3345468288
N   N10       1.0  0.28372  0.62833  0.67853  1.0000 -0.1185440171
N   N11       1.0  0.23352  0.66438  0.69496  1.0000 -0.1914331261
N   N12       1.0  0.20296  0.59296  0.77240  1.0000 -0.3357451844
N   N13       1.0  0.62833  0.67853  0.28372  1.0000 -0.1185440171
N   N14       1.0  0.66438  0.69496  0.23352  1.0000 -0.1914331261
N   N15       1.0  0.59296  0.77240  0.20296  1.0000 -0.3345468288
N   N16       1.0  0.60519  0.82147  0.44980  1.0000 -0.1185440171
N   N17       1.0  0.53856  0.80504  0.46942  1.0000 -0.1914331261
N   N18       1.0  0.43056  0.72760  0.32056  1.0000 -0.3345468288
N   N19       1.0  0.89481  0.34461  0.21628  1.0000 -0.1185440171
N   N20       1.0  0.96144  0.43086  0.26648  1.0000 -0.1914331261
N   N21       1.0  0.06944  0.39000  0.29704  1.0000 -0.3357451844
N   N22       1.0  0.87167  0.15539  0.05020  1.0000 -0.1185440171
N   N23       1.0  0.83562  0.06914  0.03058  1.0000 -0.1914331261
N   N24       1.0  0.90704  0.11000  0.17944  1.0000 -0.3345468288
N   N25       1.0  0.82147  0.44980  0.60519  1.0000 -0.1185440171
N   N26       1.0  0.80504  0.46942  0.53856  1.0000 -0.1914331261
N   N27       1.0  0.72760  0.32056  0.43056  1.0000 -0.3357451844
N   N28       1.0  0.67853  0.28372  0.62833  1.0000 -0.1185440171
N   N29       1.0  0.69496  0.23352  0.66438  1.0000 -0.1914331261
N   N30       1.0  0.77240  0.20296  0.59296  1.0000 -0.3345468288
N   N31       1.0  0.15539  0.05020  0.87167  1.0000 -0.1185440171
N   N32       1.0  0.06914  0.03058  0.83562  1.0000 -0.1914331261
N   N33       1.0  0.11000  0.17944  0.90704  1.0000 -0.3357451844
N   N34       1.0  0.34461  0.21628  0.89481  1.0000 -0.1185440171
N   N35       1.0  0.43086  0.26648  0.96144  1.0000 -0.1914331261
N   N36       1.0  0.39000  0.29704  0.06944  1.0000 -0.3345468288
N   N37       1.0  0.00000  0.95400  0.50000  1.0000 -0.1667236972
N   N38       1.0  0.95400  0.50000  0.00000  1.0000 -0.1667236972
N   N39       1.0  0.50000  0.00000  0.95400  1.0000 -0.1667236972
N   N40       1.0  0.54600  0.54600  0.54600  1.0000 -0.1648465979
Cl  Cl1       1.0  0.34715  0.98802  0.16915  1.0000 -0.1185440171
Cl  Cl2       1.0  0.31887  0.17800  0.33085  1.0000 -0.1185440171
Cl  Cl3       1.0  0.15285  0.32200  0.64087  1.0000 -0.1185440171
Cl  Cl4       1.0  0.18113  0.51198  0.85913  1.0000 -0.1185440171
Cl  Cl5       1.0  0.51198  0.85913  0.18113  1.0000 -0.1185440171
Cl  Cl6       1.0  0.32200  0.64087  0.15285  1.0000 -0.1185440171
Cl  Cl7       1.0  0.17800  0.33085  0.31887  1.0000 -0.1185440171
Cl  Cl8       1.0  0.98802  0.16915  0.34715  1.0000 -0.1185440171
Cl  Cl9       1.0  0.64087  0.15285  0.32200  1.0000 -0.1185440171
Cl  Cl10      1.0  0.85913  0.18113  0.51198  1.0000 -0.1185440171
Cl  Cl11      1.0  0.16915  0.34715  0.98802  1.0000 -0.1185440171
Cl  Cl12      1.0  0.33085  0.31887  0.17800  1.0000 -0.1185440171
Cl  Cl13      1.0  0.68848  0.93848  0.75000  1.0000 1.2666379822
Cl  Cl14      1.0  0.81152  0.56152  0.25000  1.0000 1.2666379822
Cl  Cl15      1.0  0.25000  0.81152  0.56152  1.0000 1.2666379822
Cl  Cl16      1.0  0.75000  0.68848  0.93848  1.0000 1.2666379822
Cl  Cl17      1.0  0.56152  0.25000  0.81152  1.0000 1.2666379822
Cl  Cl18      1.0  0.93848  0.75000  0.68848  1.0000 1.2666379822
O   O1        1.0  0.75029  0.92721  0.72476  1.0000 -0.500824141
O   O2        1.0  0.70120  0.92560  0.82400  1.0000 -0.500824141
O   O3        1.0  0.70245  0.02553  0.77524  1.0000 -0.500824141
O   O4        1.0  0.60160  0.87720  0.67600  1.0000 -0.500824141
O   O5        1.0  0.74971  0.47447  0.17692  1.0000 -0.500824141
O   O6        1.0  0.79880  0.62280  0.22440  1.0000 -0.500824141
O   O7        1.0  0.79755  0.57279  0.32308  1.0000 -0.500824141
O   O8        1.0  0.89840  0.57440  0.27560  1.0000 -0.500824141
O   O9        1.0  0.17692  0.74971  0.47447  1.0000 -0.500824141
O   O10       1.0  0.22440  0.79880  0.62280  1.0000 -0.500824141
O   O11       1.0  0.32308  0.79755  0.57279  1.0000 -0.500824141
O   O12       1.0  0.27560  0.89840  0.57440  1.0000 -0.500824141
O   O13       1.0  0.72476  0.75029  0.92721  1.0000 -0.500824141
O   O14       1.0  0.82400  0.70120  0.92560  1.0000 -0.500824141
O   O15       1.0  0.77524  0.70245  0.02553  1.0000 -0.500824141
O   O16       1.0  0.67600  0.60160  0.87720  1.0000 -0.500824141
O   O17       1.0  0.57279  0.32308  0.79755  1.0000 -0.500824141
O   O18       1.0  0.57440  0.27560  0.89840  1.0000 -0.500824141
O   O19       1.0  0.47447  0.17692  0.74971  1.0000 -0.500824141
O   O20       1.0  0.62280  0.22440  0.79880  1.0000 -0.500824141
O   O21       1.0  0.02553  0.77524  0.70245  1.0000 -0.500824141
O   O22       1.0  0.87720  0.67600  0.60160  1.0000 -0.500824141
O   O23       1.0  0.92721  0.72476  0.75029  1.0000 -0.500824141
O   O24       1.0  0.92560  0.82400  0.70120  1.0000 -0.500824141
