# DDEC6 charges by PACMAN v1.1 (https://github.com/mtap-research/PACMAN-charge/)
data_2017[Ag][srs]3[ION]24
_chemical_formula_sum              "Ag6 H108 C144 N40 Cl18 O24"
_cell_length_a       18.5197
_cell_length_b       18.5197
_cell_length_c       18.5197
_cell_angle_alpha    109.471
_cell_angle_beta     109.471
_cell_angle_gamma    109.471

_symmetry_space_group_name_H-M    "P 1"
_symmetry_Int_Tables_number       1

loop_
  _symmetry_equiv_pos_as_xyz
  'x, y, z'

loop_
  _atom_site_type_symbol
  _atom_site_label
  _atom_site_symmetry_multiplicity
  _atom_site_fract_x
  _atom_site_fract_y
  _atom_site_fract_z
  _atom_site_occupancy
  _atom_site_charge
Ag  Ag1       1.0  0.20932  0.75000  0.95932  1.0000 0.2945628919
Ag  Ag2       1.0  0.29068  0.25000  0.54068  1.0000 0.2945628919
Ag  Ag3       1.0  0.75000  0.95932  0.20932  1.0000 0.2960314907
Ag  Ag4       1.0  0.25000  0.54068  0.29068  1.0000 0.2960314907
Ag  Ag5       1.0  0.54068  0.29068  0.25000  1.0000 0.2960314907
Ag  Ag6       1.0  0.95932  0.20932  0.75000  1.0000 0.2945628919
H   H1        1.0  0.10180  0.56350  0.64750  1.0000 0.1294634313
H   H2        1.0  0.10070  0.61070  0.77980  1.0000 0.1113120195
H   H3        1.0  0.89180  0.63640  0.67140  1.0000 0.1294634313
H   H4        1.0  0.89460  0.59650  0.54130  1.0000 0.1294634313
H   H5        1.0  0.93530  0.65060  0.81470  1.0000 0.1166187681
H   H6        1.0  0.00560  0.71180  0.09340  1.0000 0.1548578871
H   H7        1.0  0.11690  0.78190  0.24100  1.0000 0.1113120195
H   H8        1.0  0.26400  0.84880  0.27840  1.0000 0.1294634313
H   H9        1.0  0.97560  0.67880  0.94760  1.0000 0.2827535478
H   H10       1.0  0.41600  0.45430  0.85250  1.0000 0.1294634313
H   H11       1.0  0.33090  0.32090  0.72020  1.0000 0.1113120195
H   H12       1.0  0.46500  0.22040  0.82860  1.0000 0.1294634313
H   H13       1.0  0.55520  0.35330  0.95870  1.0000 0.1294634313
H   H14       1.0  0.33590  0.12060  0.68530  1.0000 0.1166187681
H   H15       1.0  0.11840  0.91220  0.40660  1.0000 0.1548578871
H   H16       1.0  0.04090  0.87590  0.25900  1.0000 0.1113120195
H   H17       1.0  0.07040  0.98560  0.22160  1.0000 0.1294634313
H   H18       1.0  0.23120  0.02800  0.55240  1.0000 0.2827535478
H   H19       1.0  0.39820  0.04570  0.46170  1.0000 0.1294634313
H   H20       1.0  0.39930  0.17910  0.51000  1.0000 0.1113120195
H   H21       1.0  0.60820  0.27960  0.74460  1.0000 0.1294634313
H   H22       1.0  0.60540  0.14670  0.70190  1.0000 0.1294634313
H   H23       1.0  0.56470  0.37940  0.71530  1.0000 0.1166187681
H   H24       1.0  0.49440  0.58780  0.70620  1.0000 0.1548578871
H   H25       1.0  0.38310  0.62410  0.66500  1.0000 0.1113120195
H   H26       1.0  0.23600  0.51440  0.58480  1.0000 0.1294634313
H   H27       1.0  0.52440  0.47200  0.70320  1.0000 0.2827535478
H   H28       1.0  0.08400  0.93650  0.03830  1.0000 0.1294634313
H   H29       1.0  0.16910  0.88930  0.99000  1.0000 0.1113120195
H   H30       1.0  0.03500  0.86360  0.75540  1.0000 0.1294634313
H   H31       1.0  0.94480  0.90350  0.79810  1.0000 0.1294634313
H   H32       1.0  0.16410  0.84940  0.78470  1.0000 0.1166187681
H   H33       1.0  0.38160  0.78820  0.79380  1.0000 0.1548578871
H   H34       1.0  0.45910  0.71810  0.83500  1.0000 0.1113120195
H   H35       1.0  0.42960  0.65120  0.91520  1.0000 0.1294634313
H   H36       1.0  0.26880  0.82120  0.79680  1.0000 0.2827535478
H   H37       1.0  0.93650  0.03830  0.08400  1.0000 0.1294634313
H   H38       1.0  0.88930  0.99000  0.16910  1.0000 0.1113120195
H   H39       1.0  0.86360  0.75540  0.03500  1.0000 0.1294634313
H   H40       1.0  0.90350  0.79810  0.94480  1.0000 0.1294634313
H   H41       1.0  0.84940  0.78470  0.16410  1.0000 0.1166187681
H   H42       1.0  0.78820  0.79380  0.38160  1.0000 0.1548578871
H   H43       1.0  0.71810  0.83500  0.45910  1.0000 0.1113120195
H   H44       1.0  0.65120  0.91520  0.42960  1.0000 0.1294634313
H   H45       1.0  0.82120  0.79680  0.26880  1.0000 0.2827535478
H   H46       1.0  0.04570  0.46170  0.39820  1.0000 0.1294634313
H   H47       1.0  0.17910  0.51000  0.39930  1.0000 0.1113120195
H   H48       1.0  0.27960  0.74460  0.60820  1.0000 0.1294634313
H   H49       1.0  0.14670  0.70190  0.60540  1.0000 0.1294634313
H   H50       1.0  0.37940  0.71530  0.56470  1.0000 0.1166187681
H   H51       1.0  0.58780  0.70620  0.49440  1.0000 0.1548578871
H   H52       1.0  0.62410  0.66500  0.38310  1.0000 0.1113120195
H   H53       1.0  0.51440  0.58480  0.23600  1.0000 0.1294634313
H   H54       1.0  0.47200  0.70320  0.52440  1.0000 0.2827535478
H   H55       1.0  0.45430  0.85250  0.41600  1.0000 0.1294634313
H   H56       1.0  0.32090  0.72020  0.33090  1.0000 0.1113120195
H   H57       1.0  0.22040  0.82860  0.46500  1.0000 0.1294634313
H   H58       1.0  0.35330  0.95870  0.55520  1.0000 0.1294634313
H   H59       1.0  0.12060  0.68530  0.33590  1.0000 0.1166187681
H   H60       1.0  0.91220  0.40660  0.11840  1.0000 0.1548578871
H   H61       1.0  0.87590  0.25900  0.04090  1.0000 0.1113120195
H   H62       1.0  0.98560  0.22160  0.07040  1.0000 0.1294634313
H   H63       1.0  0.02800  0.55240  0.23120  1.0000 0.2827535478
H   H64       1.0  0.56350  0.64750  0.10180  1.0000 0.1294634313
H   H65       1.0  0.61070  0.77980  0.10070  1.0000 0.1113120195
H   H66       1.0  0.63640  0.67140  0.89180  1.0000 0.1294634313
H   H67       1.0  0.59650  0.54130  0.89460  1.0000 0.1294634313
H   H68       1.0  0.65060  0.81470  0.93530  1.0000 0.1166187681
H   H69       1.0  0.71180  0.09340  0.00560  1.0000 0.1548578871
H   H70       1.0  0.78190  0.24100  0.11690  1.0000 0.1113120195
H   H71       1.0  0.84880  0.27840  0.26400  1.0000 0.1294634313
H   H72       1.0  0.67880  0.94760  0.97560  1.0000 0.2827535478
H   H73       1.0  0.46170  0.39820  0.04570  1.0000 0.1294634313
H   H74       1.0  0.51000  0.39930  0.17910  1.0000 0.1113120195
H   H75       1.0  0.74460  0.60820  0.27960  1.0000 0.1294634313
H   H76       1.0  0.70190  0.60540  0.14670  1.0000 0.1294634313
H   H77       1.0  0.71530  0.56470  0.37940  1.0000 0.1166187681
H   H78       1.0  0.70620  0.49440  0.58780  1.0000 0.1548578871
H   H79       1.0  0.66500  0.38310  0.62410  1.0000 0.1113120195
H   H80       1.0  0.58480  0.23600  0.51440  1.0000 0.1294634313
H   H81       1.0  0.70320  0.52440  0.47200  1.0000 0.2827535478
H   H82       1.0  0.03830  0.08400  0.93650  1.0000 0.1294634313
H   H83       1.0  0.99000  0.16910  0.88930  1.0000 0.1113120195
H   H84       1.0  0.75540  0.03500  0.86360  1.0000 0.1294634313
H   H85       1.0  0.79810  0.94480  0.90350  1.0000 0.1294634313
H   H86       1.0  0.78470  0.16410  0.84940  1.0000 0.1166187681
H   H87       1.0  0.79380  0.38160  0.78820  1.0000 0.1548578871
H   H88       1.0  0.83500  0.45910  0.71810  1.0000 0.1113120195
H   H89       1.0  0.91520  0.42960  0.65120  1.0000 0.1294634313
H   H90       1.0  0.79680  0.26880  0.82120  1.0000 0.2827535478
H   H91       1.0  0.64750  0.10180  0.56350  1.0000 0.1294634313
H   H92       1.0  0.77980  0.10070  0.61070  1.0000 0.1113120195
H   H93       1.0  0.67140  0.89180  0.63640  1.0000 0.1294634313
H   H94       1.0  0.54130  0.89460  0.59650  1.0000 0.1294634313
H   H95       1.0  0.81470  0.93530  0.65060  1.0000 0.1166187681
H   H96       1.0  0.09340  0.00560  0.71180  1.0000 0.1548578871
H   H97       1.0  0.24100  0.11690  0.78190  1.0000 0.1113120195
H   H98       1.0  0.27840  0.26400  0.84880  1.0000 0.1294634313
H   H99       1.0  0.94760  0.97560  0.67880  1.0000 0.2827535478
H   H100      1.0  0.85250  0.41600  0.45430  1.0000 0.1294634313
H   H101      1.0  0.72020  0.33090  0.32090  1.0000 0.1113120195
H   H102      1.0  0.82860  0.46500  0.22040  1.0000 0.1294634313
H   H103      1.0  0.95870  0.55520  0.35330  1.0000 0.1294634313
H   H104      1.0  0.68530  0.33590  0.12060  1.0000 0.1166187681
H   H105      1.0  0.40660  0.11840  0.91220  1.0000 0.1548578871
H   H106      1.0  0.25900  0.04090  0.87590  1.0000 0.1113120195
H   H107      1.0  0.22160  0.07040  0.98560  1.0000 0.1294634313
H   H108      1.0  0.55240  0.23120  0.02800  1.0000 0.2827535478
C   C1        1.0  0.99890  0.57560  0.58110  1.0000 0.1747579346
C   C2        1.0  0.05960  0.57930  0.65230  1.0000 -0.1913936131
C   C3        1.0  0.05820  0.60660  0.73100  1.0000 -0.1360190752
C   C4        1.0  0.99580  0.62790  0.73870  1.0000 0.0595140018
C   C5        1.0  0.93520  0.62270  0.66690  1.0000 -0.1177150649
C   C6        1.0  0.93600  0.59820  0.58900  1.0000 -0.1779985048
C   C7        1.0  0.98830  0.65320  0.81930  1.0000 -0.0043477543
C   C8        1.0  0.09230  0.73430  0.04620  1.0000 0.3421722211
C   C9        1.0  0.06570  0.73750  0.10960  1.0000 -0.2376550106
C   C10       1.0  0.13190  0.78000  0.19690  1.0000 -0.0056828945
C   C11       1.0  0.21860  0.81890  0.21930  1.0000 -0.2376550106
C   C12       1.0  0.23710  0.81300  0.15310  1.0000 0.2827535478
C   C13       1.0  0.49450  0.41780  0.91890  1.0000 0.1747579346
C   C14       1.0  0.42700  0.40730  0.84770  1.0000 -0.1913936131
C   C15       1.0  0.37560  0.32720  0.76900  1.0000 -0.1360190752
C   C16       1.0  0.38920  0.25710  0.76130  1.0000 0.0595140018
C   C17       1.0  0.45580  0.26830  0.83310  1.0000 -0.1177150649
C   C18       1.0  0.50920  0.34700  0.91100  1.0000 -0.1779985048
C   C19       1.0  0.33390  0.16900  0.68070  1.0000 -0.0043477543
C   C20       1.0  0.18810  0.04610  0.45380  1.0000 0.3421722211
C   C21       1.0  0.12790  0.95610  0.39040  1.0000 -0.2376550106
C   C22       1.0  0.08310  0.93500  0.30310  1.0000 -0.0056828945
C   C23       1.0  0.09960  0.99930  0.28070  1.0000 -0.2376550106
C   C24       1.0  0.15990  0.08400  0.34690  1.0000 0.2827535478
C   C25       1.0  0.50110  0.08220  0.57670  1.0000 0.1747579346
C   C26       1.0  0.44040  0.09270  0.51970  1.0000 -0.1913936131
C   C27       1.0  0.44180  0.17280  0.54840  1.0000 -0.1360190752
C   C28       1.0  0.50420  0.24290  0.63210  1.0000 0.0595140018
C   C29       1.0  0.56480  0.23170  0.68750  1.0000 -0.1177150649
C   C30       1.0  0.56400  0.15300  0.66220  1.0000 -0.1779985048
C   C31       1.0  0.51170  0.33100  0.66490  1.0000 -0.0043477543
C   C32       1.0  0.40770  0.45390  0.64200  1.0000 0.3421722211
C   C33       1.0  0.43430  0.54390  0.67180  1.0000 -0.2376550106
C   C34       1.0  0.36810  0.56500  0.64810  1.0000 -0.0056828945
C   C35       1.0  0.28140  0.50070  0.60030  1.0000 -0.2376550106
C   C36       1.0  0.26290  0.41600  0.57590  1.0000 0.2827535478
C   C37       1.0  0.00550  0.92440  0.92330  1.0000 0.1747579346
C   C38       1.0  0.07300  0.92070  0.98030  1.0000 -0.1913936131
C   C39       1.0  0.12440  0.89340  0.95160  1.0000 -0.1360190752
C   C40       1.0  0.11080  0.87210  0.86790  1.0000 0.0595140018
C   C41       1.0  0.04420  0.87730  0.81250  1.0000 -0.1177150649
C   C42       1.0  0.99080  0.90180  0.83780  1.0000 -0.1779985048
C   C43       1.0  0.16610  0.84680  0.83510  1.0000 -0.0043477543
C   C44       1.0  0.31190  0.76570  0.85800  1.0000 0.3421722211
C   C45       1.0  0.37210  0.76250  0.82820  1.0000 -0.2376550106
C   C46       1.0  0.41690  0.72000  0.85190  1.0000 -0.0056828945
C   C47       1.0  0.40040  0.68110  0.89970  1.0000 -0.2376550106
C   C48       1.0  0.34010  0.68700  0.92410  1.0000 0.2827535478
C   C49       1.0  0.92440  0.92330  0.00550  1.0000 0.1747579346
C   C50       1.0  0.92070  0.98030  0.07300  1.0000 -0.1913936131
C   C51       1.0  0.89340  0.95160  0.12440  1.0000 -0.1360190752
C   C52       1.0  0.87210  0.86790  0.11080  1.0000 0.0595140018
C   C53       1.0  0.87730  0.81250  0.04420  1.0000 -0.1177150649
C   C54       1.0  0.90180  0.83780  0.99080  1.0000 -0.1779985048
C   C55       1.0  0.84680  0.83510  0.16610  1.0000 -0.0043477543
C   C56       1.0  0.76570  0.85800  0.31190  1.0000 0.3421722211
C   C57       1.0  0.76250  0.82820  0.37210  1.0000 -0.2376550106
C   C58       1.0  0.72000  0.85190  0.41690  1.0000 -0.0043477543
C   C59       1.0  0.68110  0.89970  0.40040  1.0000 -0.2376550106
C   C60       1.0  0.68700  0.92410  0.34010  1.0000 0.2827535478
C   C61       1.0  0.08220  0.57670  0.50110  1.0000 0.1747579346
C   C62       1.0  0.09270  0.51970  0.44040  1.0000 -0.1913936131
C   C63       1.0  0.17280  0.54840  0.44180  1.0000 -0.1360190752
C   C64       1.0  0.24290  0.63210  0.50420  1.0000 0.0595140018
C   C65       1.0  0.23170  0.68750  0.56480  1.0000 -0.1177150649
C   C66       1.0  0.15300  0.66220  0.56400  1.0000 -0.1779985048
C   C67       1.0  0.33100  0.66490  0.51170  1.0000 -0.0043477543
C   C68       1.0  0.45390  0.64200  0.40770  1.0000 0.3421722211
C   C69       1.0  0.54390  0.67180  0.43430  1.0000 -0.2376550106
C   C70       1.0  0.56500  0.64810  0.36810  1.0000 -0.0056828945
C   C71       1.0  0.50070  0.60030  0.28140  1.0000 -0.2376550106
C   C72       1.0  0.41600  0.57590  0.26290  1.0000 0.2827535478
C   C73       1.0  0.41780  0.91890  0.49450  1.0000 0.1747579346
C   C74       1.0  0.40730  0.84770  0.42700  1.0000 -0.1913936131
C   C75       1.0  0.32720  0.76900  0.37560  1.0000 -0.1360190752
C   C76       1.0  0.25710  0.76130  0.38920  1.0000 0.0595140018
C   C77       1.0  0.26830  0.83310  0.45580  1.0000 -0.1177150649
C   C78       1.0  0.34700  0.91100  0.50920  1.0000 -0.1779985048
C   C79       1.0  0.16900  0.68070  0.33390  1.0000 -0.0043477543
C   C80       1.0  0.04610  0.45380  0.18810  1.0000 0.3421722211
C   C81       1.0  0.95610  0.39040  0.12790  1.0000 -0.2376550106
C   C82       1.0  0.93500  0.30310  0.08310  1.0000 -0.0056828945
C   C83       1.0  0.99930  0.28070  0.09960  1.0000 -0.2376550106
C   C84       1.0  0.08400  0.34690  0.15990  1.0000 0.2827535478
C   C85       1.0  0.57560  0.58110  0.99890  1.0000 0.1747579346
C   C86       1.0  0.57930  0.65230  0.05960  1.0000 -0.1913936131
C   C87       1.0  0.60660  0.73100  0.05820  1.0000 -0.1360190752
C   C88       1.0  0.62790  0.73870  0.99580  1.0000 0.0595140018
C   C89       1.0  0.62270  0.66690  0.93520  1.0000 -0.1177150649
C   C90       1.0  0.59820  0.58900  0.93600  1.0000 -0.1779985048
C   C91       1.0  0.65320  0.81930  0.98830  1.0000 -0.0043477543
C   C92       1.0  0.73430  0.04620  0.09230  1.0000 0.3421722211
C   C93       1.0  0.73750  0.10960  0.06570  1.0000 -0.2376550106
C   C94       1.0  0.78000  0.19690  0.13190  1.0000 -0.0056828945
C   C95       1.0  0.81890  0.21930  0.21860  1.0000 -0.2376550106
C   C96       1.0  0.81300  0.15310  0.23710  1.0000 0.2827535478
C   C97       1.0  0.57670  0.50110  0.08220  1.0000 0.1747579346
C   C98       1.0  0.51970  0.44040  0.09270  1.0000 -0.1913936131
C   C99       1.0  0.54840  0.44180  0.17280  1.0000 -0.1360190752
C   C100      1.0  0.63210  0.50420  0.24290  1.0000 0.0595140018
C   C101      1.0  0.68750  0.56480  0.23170  1.0000 -0.1177150649
C   C102      1.0  0.66220  0.56400  0.15300  1.0000 -0.1779985048
C   C103      1.0  0.66490  0.51170  0.33100  1.0000 -0.0043477543
C   C104      1.0  0.64200  0.40770  0.45390  1.0000 0.3421722211
C   C105      1.0  0.67180  0.43430  0.54390  1.0000 -0.2376550106
C   C106      1.0  0.64810  0.36810  0.56500  1.0000 -0.0056828945
C   C107      1.0  0.60030  0.28140  0.50070  1.0000 -0.2376550106
C   C108      1.0  0.57590  0.26290  0.41600  1.0000 0.2827535478
C   C109      1.0  0.92330  0.00550  0.92440  1.0000 0.1747579346
C   C110      1.0  0.98030  0.07300  0.92070  1.0000 -0.1913936131
C   C111      1.0  0.95160  0.12440  0.89340  1.0000 -0.1360190752
C   C112      1.0  0.86790  0.11080  0.87210  1.0000 0.0595140018
C   C113      1.0  0.81250  0.04420  0.87730  1.0000 -0.1177150649
C   C114      1.0  0.83780  0.99080  0.90180  1.0000 -0.1779985048
C   C115      1.0  0.83510  0.16610  0.84680  1.0000 -0.0043477543
C   C116      1.0  0.85800  0.31190  0.76570  1.0000 0.3421722211
C   C117      1.0  0.82820  0.37210  0.76250  1.0000 -0.2376550106
C   C118      1.0  0.85190  0.41690  0.72000  1.0000 -0.0043477543
C   C119      1.0  0.89970  0.40040  0.68110  1.0000 -0.2376550106
C   C120      1.0  0.92410  0.34010  0.68700  1.0000 0.2827535478
C   C121      1.0  0.58110  0.99890  0.57560  1.0000 0.1747579346
C   C122      1.0  0.65230  0.05960  0.57930  1.0000 -0.1913936131
C   C123      1.0  0.73100  0.05820  0.60660  1.0000 -0.1360190752
C   C124      1.0  0.73870  0.99580  0.62790  1.0000 0.0595140018
C   C125      1.0  0.66690  0.93520  0.62270  1.0000 -0.1177150649
C   C126      1.0  0.58900  0.93600  0.59820  1.0000 -0.1779985048
C   C127      1.0  0.81930  0.98830  0.65320  1.0000 -0.0043477543
C   C128      1.0  0.04620  0.09230  0.73430  1.0000 0.3421722211
C   C129      1.0  0.10960  0.06570  0.73750  1.0000 -0.2376550106
C   C130      1.0  0.19690  0.13190  0.78000  1.0000 -0.0056828945
C   C131      1.0  0.21930  0.21860  0.81890  1.0000 -0.2376550106
C   C132      1.0  0.15310  0.23710  0.81300  1.0000 0.2827535478
C   C133      1.0  0.91890  0.49450  0.41780  1.0000 0.1747579346
C   C134      1.0  0.84770  0.42700  0.40730  1.0000 -0.1913936131
C   C135      1.0  0.76900  0.37560  0.32720  1.0000 -0.1360190752
C   C136      1.0  0.76130  0.38920  0.25710  1.0000 0.0595140018
C   C137      1.0  0.83310  0.45580  0.26830  1.0000 -0.1177150649
C   C138      1.0  0.91100  0.50920  0.34700  1.0000 -0.1779985048
C   C139      1.0  0.68070  0.33390  0.16900  1.0000 -0.0043477543
C   C140      1.0  0.45380  0.18810  0.04610  1.0000 0.3421722211
C   C141      1.0  0.39040  0.12790  0.95610  1.0000 -0.2376550106
C   C142      1.0  0.30310  0.08310  0.93500  1.0000 -0.0043477543
C   C143      1.0  0.28070  0.09960  0.99930  1.0000 -0.2376550106
C   C144      1.0  0.34690  0.15990  0.08400  1.0000 0.2827535478
N   N1        1.0  0.04976  0.67837  0.89393  1.0000 -0.1177150649
N   N2        1.0  0.03010  0.69470  0.96080  1.0000 -0.1913936131
N   N3        1.0  0.17850  0.77150  0.06840  1.0000 -0.3426685847
N   N4        1.0  0.28444  0.15583  0.60607  1.0000 -0.1177150649
N   N5        1.0  0.23390  0.06930  0.53920  1.0000 -0.1913936131
N   N6        1.0  0.20310  0.11010  0.43160  1.0000 -0.3426685847
N   N7        1.0  0.45024  0.34417  0.62861  1.0000 -0.1177150649
N   N8        1.0  0.46990  0.43070  0.66460  1.0000 -0.1913936131
N   N9        1.0  0.32150  0.38990  0.59300  1.0000 -0.3426685847
N   N10       1.0  0.21556  0.82163  0.87139  1.0000 -0.1177150649
N   N11       1.0  0.26610  0.80530  0.83540  1.0000 -0.1913936131
N   N12       1.0  0.29690  0.72850  0.90700  1.0000 -0.3426685847
N   N13       1.0  0.82163  0.87139  0.21556  1.0000 -0.1177150649
N   N14       1.0  0.80530  0.83540  0.26610  1.0000 -0.1913936131
N   N15       1.0  0.72850  0.90700  0.29690  1.0000 -0.3426685847
N   N16       1.0  0.34417  0.62861  0.45024  1.0000 -0.1177150649
N   N17       1.0  0.43070  0.66460  0.46990  1.0000 -0.1913936131
N   N18       1.0  0.38990  0.59300  0.32150  1.0000 -0.3426685847
N   N19       1.0  0.15583  0.60607  0.28444  1.0000 -0.1177150649
N   N20       1.0  0.06930  0.53920  0.23390  1.0000 -0.1913936131
N   N21       1.0  0.11010  0.43160  0.20310  1.0000 -0.3426685847
N   N22       1.0  0.67837  0.89393  0.04976  1.0000 -0.1177150649
N   N23       1.0  0.69470  0.96080  0.03010  1.0000 -0.1913936131
N   N24       1.0  0.77150  0.06840  0.17850  1.0000 -0.3426685847
N   N25       1.0  0.62861  0.45024  0.34417  1.0000 -0.1177150649
N   N26       1.0  0.66460  0.46990  0.43070  1.0000 -0.1913936131
N   N27       1.0  0.59300  0.32150  0.38990  1.0000 -0.3426685847
N   N28       1.0  0.87139  0.21556  0.82163  1.0000 -0.1177150649
N   N29       1.0  0.83540  0.26610  0.80530  1.0000 -0.1913936131
N   N30       1.0  0.90700  0.29690  0.72850  1.0000 -0.3426685847
N   N31       1.0  0.89393  0.04976  0.67837  1.0000 -0.1177150649
N   N32       1.0  0.96080  0.03010  0.69470  1.0000 -0.1913936131
N   N33       1.0  0.06840  0.17850  0.77150  1.0000 -0.3426685847
N   N34       1.0  0.60607  0.28444  0.15583  1.0000 -0.1177150649
N   N35       1.0  0.53920  0.23390  0.06930  1.0000 -0.1913936131
N   N36       1.0  0.43160  0.20310  0.11010  1.0000 -0.3426685847
N   N37       1.0  0.00000  0.54700  0.50000  1.0000 -0.1725845329
N   N38       1.0  0.54700  0.50000  0.00000  1.0000 -0.1725845329
N   N39       1.0  0.50000  0.00000  0.54700  1.0000 -0.1725845329
N   N40       1.0  0.95300  0.95300  0.95300  1.0000 -0.1725845329
Cl  Cl1       1.0  0.34620  0.85865  0.17705  1.0000 -0.1177150649
Cl  Cl2       1.0  0.18160  0.16915  0.32295  1.0000 -0.1177150649
Cl  Cl3       1.0  0.15380  0.33085  0.51245  1.0000 -0.1177150649
Cl  Cl4       1.0  0.31840  0.64135  0.98755  1.0000 -0.1177150649
Cl  Cl5       1.0  0.64135  0.98755  0.31840  1.0000 -0.1177150649
Cl  Cl6       1.0  0.33085  0.51245  0.15380  1.0000 -0.1177150649
Cl  Cl7       1.0  0.16915  0.32295  0.18160  1.0000 -0.1177150649
Cl  Cl8       1.0  0.85865  0.17705  0.34620  1.0000 -0.1177150649
Cl  Cl9       1.0  0.51245  0.15380  0.33085  1.0000 -0.1177150649
Cl  Cl10      1.0  0.98755  0.31840  0.64135  1.0000 -0.1177150649
Cl  Cl11      1.0  0.17705  0.34620  0.85865  1.0000 -0.1177150649
Cl  Cl12      1.0  0.32295  0.18160  0.16915  1.0000 -0.1177150649
Cl  Cl13      1.0  0.25000  0.93857  0.68857  1.0000 1.26704454
Cl  Cl14      1.0  0.75000  0.56143  0.81143  1.0000 1.26704454
Cl  Cl15      1.0  0.68857  0.25000  0.93857  1.0000 1.26704454
Cl  Cl16      1.0  0.81143  0.75000  0.56143  1.0000 1.26704454
Cl  Cl17      1.0  0.56143  0.81143  0.75000  1.0000 1.26704454
Cl  Cl18      1.0  0.93857  0.68857  0.25000  1.0000 1.26704454
O   O1        1.0  0.32320  0.02600  0.75020  1.0000 -0.499961445
O   O2        1.0  0.27510  0.87720  0.70070  1.0000 -0.499961445
O   O3        1.0  0.17680  0.92700  0.70280  1.0000 -0.499961445
O   O4        1.0  0.22490  0.92560  0.60210  1.0000 -0.499961445
O   O5        1.0  0.72420  0.47400  0.79720  1.0000 -0.499961445
O   O6        1.0  0.82350  0.62280  0.89790  1.0000 -0.499961445
O   O7        1.0  0.77580  0.57300  0.74980  1.0000 -0.499961445
O   O8        1.0  0.67650  0.57440  0.79930  1.0000 -0.499961445
O   O9        1.0  0.70280  0.17680  0.92700  1.0000 -0.499961445
O   O10       1.0  0.60210  0.22490  0.92560  1.0000 -0.499961445
O   O11       1.0  0.75020  0.32320  0.02600  1.0000 -0.499961445
O   O12       1.0  0.70070  0.27510  0.87720  1.0000 -0.499961445
O   O13       1.0  0.74980  0.77580  0.57300  1.0000 -0.499961445
O   O14       1.0  0.79930  0.67650  0.57440  1.0000 -0.499961445
O   O15       1.0  0.79720  0.72420  0.47400  1.0000 -0.499961445
O   O16       1.0  0.89790  0.82350  0.62280  1.0000 -0.499961445
O   O17       1.0  0.47400  0.79720  0.72420  1.0000 -0.499961445
O   O18       1.0  0.62280  0.89790  0.82350  1.0000 -0.499961445
O   O19       1.0  0.57300  0.74980  0.77580  1.0000 -0.499961445
O   O20       1.0  0.57440  0.79930  0.67650  1.0000 -0.499961445
O   O21       1.0  0.02600  0.75020  0.32320  1.0000 -0.499961445
O   O22       1.0  0.87720  0.70070  0.27510  1.0000 -0.499961445
O   O23       1.0  0.92700  0.70280  0.17680  1.0000 -0.499961445
O   O24       1.0  0.92560  0.60210  0.22490  1.0000 -0.499961445
