# DDEC6 charges by PACMAN v1.1 (https://github.com/mtap-research/PACMAN-charge/)
data_2017[Ag][srs]3[ION]29
_chemical_formula_sum              "Ag6 H120 C144 N40 Cl6 O24"
_cell_length_a       18.4893
_cell_length_b       18.4893
_cell_length_c       18.4893
_cell_angle_alpha    109.471
_cell_angle_beta     109.471
_cell_angle_gamma    109.471

_symmetry_space_group_name_H-M    "P 1"
_symmetry_Int_Tables_number       1

loop_
  _symmetry_equiv_pos_as_xyz
  'x, y, z'

loop_
  _atom_site_type_symbol
  _atom_site_label
  _atom_site_symmetry_multiplicity
  _atom_site_fract_x
  _atom_site_fract_y
  _atom_site_fract_z
  _atom_site_occupancy
  _atom_site_charge
Ag  Ag1       1.0  0.04339  0.75000  0.79339  1.0000 0.2633602827
Ag  Ag2       1.0  0.45661  0.25000  0.70661  1.0000 0.2633602827
Ag  Ag3       1.0  0.79339  0.04339  0.75000  1.0000 0.2633602827
Ag  Ag4       1.0  0.70661  0.45661  0.25000  1.0000 0.2633602827
Ag  Ag5       1.0  0.75000  0.79339  0.04339  1.0000 0.2633602827
Ag  Ag6       1.0  0.25000  0.70661  0.45661  1.0000 0.2633602827
H   H1        1.0  0.96800  0.54590  0.89830  1.0000 0.1240426957
H   H2        1.0  0.01350  0.68080  0.90230  1.0000 0.1085429722
H   H3        1.0  0.24970  0.78150  0.11240  1.0000 0.1267927026
H   H4        1.0  0.20780  0.64610  0.10430  1.0000 0.1240426957
H   H5        1.0  0.21980  0.88050  0.06690  1.0000 0.1085429722
H   H6        1.0  0.20520  0.08580  0.99220  1.0000 0.1527990063
H   H7        1.0  0.16620  0.12160  0.88080  1.0000 0.1085429722
H   H8        1.0  0.08480  0.00750  0.72910  1.0000 0.1267927026
H   H9        1.0  0.03950  0.86440  0.70010  1.0000 0.0985618548
H   H10       1.0  0.20490  0.97460  0.02530  1.0000 0.2836111942
H   H11       1.0  0.14760  0.06970  0.60170  1.0000 0.1240426957
H   H12       1.0  0.27850  0.11120  0.59770  1.0000 0.1085429722
H   H13       1.0  0.16910  0.13730  0.38760  1.0000 0.1267927026
H   H14       1.0  0.04180  0.10350  0.39570  1.0000 0.1240426957
H   H15       1.0  0.31360  0.15290  0.43310  1.0000 0.1085429722
H   H16       1.0  0.59360  0.21300  0.50780  1.0000 0.1527990063
H   H17       1.0  0.74080  0.28540  0.61920  1.0000 0.1085429722
H   H18       1.0  0.77840  0.35570  0.77090  1.0000 0.1267927026
H   H19       1.0  0.66430  0.33940  0.79990  1.0000 0.0985618548
H   H20       1.0  0.44930  0.17960  0.47470  1.0000 0.2836111942
H   H21       1.0  0.35240  0.95410  0.92210  1.0000 0.1240426957
H   H22       1.0  0.22150  0.81920  0.83270  1.0000 0.1085429722
H   H23       1.0  0.33090  0.71850  0.96820  1.0000 0.1267927026
H   H24       1.0  0.45820  0.85390  0.06170  1.0000 0.1240426957
H   H25       1.0  0.18640  0.61950  0.83930  1.0000 0.1085429722
H   H26       1.0  0.90640  0.41420  0.61940  1.0000 0.1527990063
H   H27       1.0  0.75920  0.37840  0.54460  1.0000 0.1085429722
H   H28       1.0  0.72160  0.49250  0.57730  1.0000 0.1267927026
H   H29       1.0  0.83570  0.63560  0.67510  1.0000 0.0985618548
H   H30       1.0  0.05070  0.52540  0.73030  1.0000 0.2836111942
H   H31       1.0  0.53200  0.43030  0.57790  1.0000 0.1240426957
H   H32       1.0  0.48650  0.38880  0.66730  1.0000 0.1085429722
H   H33       1.0  0.25030  0.36270  0.53180  1.0000 0.1267927026
H   H34       1.0  0.29220  0.39650  0.43830  1.0000 0.1240426957
H   H35       1.0  0.28020  0.34710  0.66070  1.0000 0.1085429722
H   H36       1.0  0.29480  0.28700  0.88060  1.0000 0.1527990063
H   H37       1.0  0.33380  0.21460  0.95540  1.0000 0.1085429722
H   H38       1.0  0.41520  0.14430  0.92270  1.0000 0.1267927026
H   H39       1.0  0.46050  0.16060  0.82490  1.0000 0.0985618548
H   H40       1.0  0.29510  0.32040  0.76970  1.0000 0.2836111942
H   H41       1.0  0.89830  0.96800  0.54590  1.0000 0.1240426957
H   H42       1.0  0.90230  0.01350  0.68080  1.0000 0.1085429722
H   H43       1.0  0.11240  0.24970  0.78150  1.0000 0.1267927026
H   H44       1.0  0.10430  0.20780  0.64610  1.0000 0.1240426957
H   H45       1.0  0.06690  0.21980  0.88050  1.0000 0.1085429722
H   H46       1.0  0.99220  0.20520  0.08580  1.0000 0.1527990063
H   H47       1.0  0.88080  0.16620  0.12160  1.0000 0.1085429722
H   H48       1.0  0.72910  0.08480  0.00750  1.0000 0.1267927026
H   H49       1.0  0.70010  0.03950  0.86440  1.0000 0.0985618548
H   H50       1.0  0.02530  0.20490  0.97460  1.0000 0.2836111942
H   H51       1.0  0.60170  0.14760  0.06970  1.0000 0.1240426957
H   H52       1.0  0.59770  0.27850  0.11120  1.0000 0.1085429722
H   H53       1.0  0.38760  0.16910  0.13730  1.0000 0.1267927026
H   H54       1.0  0.39570  0.04180  0.10350  1.0000 0.1240426957
H   H55       1.0  0.43310  0.31360  0.15290  1.0000 0.1085429722
H   H56       1.0  0.50780  0.59360  0.21300  1.0000 0.1527990063
H   H57       1.0  0.61920  0.74080  0.28540  1.0000 0.1085429722
H   H58       1.0  0.77090  0.77840  0.35570  1.0000 0.1267927026
H   H59       1.0  0.79990  0.66430  0.33940  1.0000 0.0985618548
H   H60       1.0  0.47470  0.44930  0.17960  1.0000 0.2836111942
H   H61       1.0  0.92210  0.35240  0.95410  1.0000 0.1240426957
H   H62       1.0  0.83270  0.22150  0.81920  1.0000 0.1085429722
H   H63       1.0  0.96820  0.33090  0.71850  1.0000 0.1267927026
H   H64       1.0  0.06170  0.45820  0.85390  1.0000 0.1240426957
H   H65       1.0  0.83930  0.18640  0.61950  1.0000 0.1085429722
H   H66       1.0  0.61940  0.90640  0.41420  1.0000 0.1527990063
H   H67       1.0  0.54460  0.75920  0.37840  1.0000 0.1085429722
H   H68       1.0  0.57730  0.72160  0.49250  1.0000 0.1267927026
H   H69       1.0  0.67510  0.83570  0.63560  1.0000 0.0985618548
H   H70       1.0  0.73030  0.05070  0.52540  1.0000 0.2836111942
H   H71       1.0  0.57790  0.53200  0.43030  1.0000 0.1240426957
H   H72       1.0  0.66730  0.48650  0.38880  1.0000 0.1085429722
H   H73       1.0  0.53180  0.25030  0.36270  1.0000 0.1267927026
H   H74       1.0  0.43830  0.29220  0.39650  1.0000 0.1240426957
H   H75       1.0  0.66070  0.28020  0.34710  1.0000 0.1085429722
H   H76       1.0  0.88060  0.29480  0.28700  1.0000 0.1527990063
H   H77       1.0  0.95540  0.33380  0.21460  1.0000 0.1085429722
H   H78       1.0  0.92270  0.41520  0.14430  1.0000 0.1267927026
H   H79       1.0  0.82490  0.46050  0.16060  1.0000 0.0985618548
H   H80       1.0  0.76970  0.29510  0.32040  1.0000 0.2836111942
H   H81       1.0  0.54590  0.89830  0.96800  1.0000 0.1240426957
H   H82       1.0  0.68080  0.90230  0.01350  1.0000 0.1085429722
H   H83       1.0  0.78150  0.11240  0.24970  1.0000 0.1267927026
H   H84       1.0  0.64610  0.10430  0.20780  1.0000 0.1240426957
H   H85       1.0  0.88050  0.06690  0.21980  1.0000 0.1085429722
H   H86       1.0  0.08580  0.99220  0.20520  1.0000 0.1527990063
H   H87       1.0  0.12160  0.88080  0.16620  1.0000 0.1085429722
H   H88       1.0  0.00750  0.72910  0.08480  1.0000 0.1267927026
H   H89       1.0  0.86440  0.70010  0.03950  1.0000 0.0985618548
H   H90       1.0  0.97460  0.02530  0.20490  1.0000 0.2836111942
H   H91       1.0  0.06970  0.60170  0.14760  1.0000 0.1240426957
H   H92       1.0  0.11120  0.59770  0.27850  1.0000 0.1085429722
H   H93       1.0  0.13730  0.38760  0.16910  1.0000 0.1267927026
H   H94       1.0  0.10350  0.39570  0.04180  1.0000 0.1240426957
H   H95       1.0  0.15290  0.43310  0.31360  1.0000 0.1085429722
H   H96       1.0  0.21300  0.50780  0.59360  1.0000 0.1527990063
H   H97       1.0  0.28540  0.61920  0.74080  1.0000 0.1085429722
H   H98       1.0  0.35570  0.77090  0.77840  1.0000 0.1267927026
H   H99       1.0  0.33940  0.79990  0.66430  1.0000 0.0985618548
H   H100      1.0  0.17960  0.47470  0.44930  1.0000 0.2836111942
H   H101      1.0  0.95410  0.92210  0.35240  1.0000 0.1240426957
H   H102      1.0  0.81920  0.83270  0.22150  1.0000 0.1085429722
H   H103      1.0  0.71850  0.96820  0.33090  1.0000 0.1267927026
H   H104      1.0  0.85390  0.06170  0.45820  1.0000 0.1240426957
H   H105      1.0  0.61950  0.83930  0.18640  1.0000 0.1085429722
H   H106      1.0  0.41420  0.61940  0.90640  1.0000 0.1527990063
H   H107      1.0  0.37840  0.54460  0.75920  1.0000 0.1085429722
H   H108      1.0  0.49250  0.57730  0.72160  1.0000 0.1267927026
H   H109      1.0  0.63560  0.67510  0.83570  1.0000 0.0985618548
H   H110      1.0  0.52540  0.73030  0.05070  1.0000 0.2836111942
H   H111      1.0  0.43030  0.57790  0.53200  1.0000 0.1240426957
H   H112      1.0  0.38880  0.66730  0.48650  1.0000 0.1085429722
H   H113      1.0  0.36270  0.53180  0.25030  1.0000 0.1267927026
H   H114      1.0  0.39650  0.43830  0.29220  1.0000 0.1240426957
H   H115      1.0  0.34710  0.66070  0.28020  1.0000 0.1085429722
H   H116      1.0  0.28700  0.88060  0.29480  1.0000 0.1527990063
H   H117      1.0  0.21460  0.95540  0.33380  1.0000 0.1085429722
H   H118      1.0  0.14430  0.92270  0.41520  1.0000 0.1267927026
H   H119      1.0  0.16060  0.82490  0.46050  1.0000 0.0985618548
H   H120      1.0  0.32040  0.76970  0.29510  1.0000 0.2836111942
C   C1        1.0  0.08280  0.58200  0.00260  1.0000 0.1748993592
C   C2        1.0  0.02550  0.59340  0.94150  1.0000 -0.200162578
C   C3        1.0  0.05260  0.67410  0.94410  1.0000 -0.1387536951
C   C4        1.0  0.13650  0.74470  0.00760  1.0000 0.0599565075
C   C5        1.0  0.19300  0.73350  0.06810  1.0000 -0.1233071067
C   C6        1.0  0.16730  0.65310  0.06420  1.0000 -0.1860751115
C   C7        1.0  0.16860  0.83210  0.01450  1.0000 -0.0104943738
C   C8        1.0  0.14160  0.95170  0.90730  1.0000 0.3417001426
C   C9        1.0  0.17120  0.04140  0.93220  1.0000 -0.2383708646
C   C10       1.0  0.14870  0.06250  0.86600  1.0000 -0.0104943738
C   C11       1.0  0.09930  0.99470  0.77540  1.0000 -0.200162578
C   C12       1.0  0.07390  0.91040  0.75950  1.0000 0.0599565075
C   C13       1.0  0.07940  0.08020  0.49740  1.0000 0.1748993592
C   C14       1.0  0.15190  0.08400  0.55850  1.0000 -0.200162578
C   C15       1.0  0.23000  0.10850  0.55590  1.0000 -0.1387536951
C   C16       1.0  0.23710  0.12890  0.49240  1.0000 0.0599565075
C   C17       1.0  0.16540  0.12490  0.43190  1.0000 -0.1233071067
C   C18       1.0  0.08890  0.10310  0.43580  1.0000 -0.1860751115
C   C19       1.0  0.31760  0.15410  0.48550  1.0000 -0.0104943738
C   C20       1.0  0.54440  0.23430  0.59270  1.0000 0.3417001426
C   C21       1.0  0.60920  0.23900  0.56780  1.0000 -0.2383708646
C   C22       1.0  0.69650  0.28270  0.63400  1.0000 -0.0104943738
C   C23       1.0  0.71930  0.32390  0.72460  1.0000 -0.200162578
C   C24       1.0  0.65090  0.31440  0.74050  1.0000 0.0599565075
C   C25       1.0  0.42060  0.91800  0.00080  1.0000 0.1748993592
C   C26       1.0  0.34810  0.90660  0.93210  1.0000 -0.200162578
C   C27       1.0  0.27000  0.82590  0.87850  1.0000 -0.1387536951
C   C28       1.0  0.26290  0.75530  0.89180  1.0000 0.0599565075
C   C29       1.0  0.33460  0.76650  0.95950  1.0000 -0.1233071067
C   C30       1.0  0.41110  0.84690  0.01420  1.0000 -0.1860751115
C   C31       1.0  0.18240  0.66790  0.83650  1.0000 -0.0104943738
C   C32       1.0  0.95560  0.54830  0.68990  1.0000 0.3417001426
C   C33       1.0  0.89080  0.45860  0.62980  1.0000 -0.2383708646
C   C34       1.0  0.80350  0.43750  0.58620  1.0000 -0.0104943738
C   C35       1.0  0.78070  0.50530  0.60460  1.0000 -0.200162578
C   C36       1.0  0.84910  0.58960  0.66350  1.0000 0.0599565075
C   C37       1.0  0.41720  0.41980  0.49920  1.0000 0.1748993592
C   C38       1.0  0.47450  0.41600  0.56790  1.0000 -0.200162578
C   C39       1.0  0.44740  0.39150  0.62150  1.0000 -0.1387536951
C   C40       1.0  0.36350  0.37110  0.60820  1.0000 0.0599565075
C   C41       1.0  0.30700  0.37510  0.54050  1.0000 -0.1233071067
C   C42       1.0  0.33270  0.39690  0.48580  1.0000 -0.1860751115
C   C43       1.0  0.33140  0.34590  0.66350  1.0000 -0.0104943738
C   C44       1.0  0.35840  0.26570  0.81010  1.0000 0.3417001426
C   C45       1.0  0.32880  0.26100  0.87020  1.0000 -0.2383708646
C   C46       1.0  0.35130  0.21730  0.91380  1.0000 -0.0104943738
C   C47       1.0  0.40070  0.17610  0.89540  1.0000 -0.200162578
C   C48       1.0  0.42610  0.18560  0.83650  1.0000 0.0599565075
C   C49       1.0  0.00260  0.08280  0.58200  1.0000 0.1748993592
C   C50       1.0  0.94150  0.02550  0.59340  1.0000 -0.200162578
C   C51       1.0  0.94410  0.05260  0.67410  1.0000 -0.1387536951
C   C52       1.0  0.00760  0.13650  0.74470  1.0000 0.0599565075
C   C53       1.0  0.06810  0.19300  0.73350  1.0000 -0.1233071067
C   C54       1.0  0.06420  0.16730  0.65310  1.0000 -0.1860751115
C   C55       1.0  0.01450  0.16860  0.83210  1.0000 -0.0104943738
C   C56       1.0  0.90730  0.14160  0.95170  1.0000 0.3417001426
C   C57       1.0  0.93220  0.17120  0.04140  1.0000 -0.2383708646
C   C58       1.0  0.86600  0.14870  0.06250  1.0000 -0.0104943738
C   C59       1.0  0.77540  0.09930  0.99470  1.0000 -0.200162578
C   C60       1.0  0.75950  0.07390  0.91040  1.0000 0.0599565075
C   C61       1.0  0.49740  0.07940  0.08020  1.0000 0.1748993592
C   C62       1.0  0.55850  0.15190  0.08400  1.0000 -0.200162578
C   C63       1.0  0.55590  0.23000  0.10850  1.0000 -0.1387536951
C   C64       1.0  0.49240  0.23710  0.12890  1.0000 0.0599565075
C   C65       1.0  0.43190  0.16540  0.12490  1.0000 -0.1233071067
C   C66       1.0  0.43580  0.08890  0.10310  1.0000 -0.1860751115
C   C67       1.0  0.48550  0.31760  0.15410  1.0000 -0.0104943738
C   C68       1.0  0.59270  0.54440  0.23430  1.0000 0.3417001426
C   C69       1.0  0.56780  0.60920  0.23900  1.0000 -0.2383708646
C   C70       1.0  0.63400  0.69650  0.28270  1.0000 -0.0104943738
C   C71       1.0  0.72460  0.71930  0.32390  1.0000 -0.200162578
C   C72       1.0  0.74050  0.65090  0.31440  1.0000 0.0599565075
C   C73       1.0  0.00080  0.42060  0.91800  1.0000 0.1748993592
C   C74       1.0  0.93210  0.34810  0.90660  1.0000 -0.200162578
C   C75       1.0  0.87850  0.27000  0.82590  1.0000 -0.1387536951
C   C76       1.0  0.89180  0.26290  0.75530  1.0000 0.0599565075
C   C77       1.0  0.95950  0.33460  0.76650  1.0000 -0.1233071067
C   C78       1.0  0.01420  0.41110  0.84690  1.0000 -0.1860751115
C   C79       1.0  0.83650  0.18240  0.66790  1.0000 -0.0104943738
C   C80       1.0  0.68990  0.95560  0.54830  1.0000 0.3417001426
C   C81       1.0  0.62980  0.89080  0.45860  1.0000 -0.2383708646
C   C82       1.0  0.58620  0.80350  0.43750  1.0000 -0.0104943738
C   C83       1.0  0.60460  0.78070  0.50530  1.0000 -0.200162578
C   C84       1.0  0.66350  0.84910  0.58960  1.0000 0.0599565075
C   C85       1.0  0.49920  0.41720  0.41980  1.0000 0.1748993592
C   C86       1.0  0.56790  0.47450  0.41600  1.0000 -0.200162578
C   C87       1.0  0.62150  0.44740  0.39150  1.0000 -0.1387536951
C   C88       1.0  0.60820  0.36350  0.37110  1.0000 0.0599565075
C   C89       1.0  0.54050  0.30700  0.37510  1.0000 -0.1233071067
C   C90       1.0  0.48580  0.33270  0.39690  1.0000 -0.1860751115
C   C91       1.0  0.66350  0.33140  0.34590  1.0000 -0.0104943738
C   C92       1.0  0.81010  0.35840  0.26570  1.0000 0.3417001426
C   C93       1.0  0.87020  0.32880  0.26100  1.0000 -0.2383708646
C   C94       1.0  0.91380  0.35130  0.21730  1.0000 -0.0104943738
C   C95       1.0  0.89540  0.40070  0.17610  1.0000 -0.200162578
C   C96       1.0  0.83650  0.42610  0.18560  1.0000 0.0599565075
C   C97       1.0  0.58200  0.00260  0.08280  1.0000 0.1748993592
C   C98       1.0  0.59340  0.94150  0.02550  1.0000 -0.200162578
C   C99       1.0  0.67410  0.94410  0.05260  1.0000 -0.1387536951
C   C100      1.0  0.74470  0.00760  0.13650  1.0000 0.0599565075
C   C101      1.0  0.73350  0.06810  0.19300  1.0000 -0.1233071067
C   C102      1.0  0.65310  0.06420  0.16730  1.0000 -0.1860751115
C   C103      1.0  0.83210  0.01450  0.16860  1.0000 -0.0104943738
C   C104      1.0  0.95170  0.90730  0.14160  1.0000 0.3417001426
C   C105      1.0  0.04140  0.93220  0.17120  1.0000 -0.2383708646
C   C106      1.0  0.06250  0.86600  0.14870  1.0000 -0.0104943738
C   C107      1.0  0.99470  0.77540  0.09930  1.0000 -0.200162578
C   C108      1.0  0.91040  0.75950  0.07390  1.0000 0.0599565075
C   C109      1.0  0.08020  0.49740  0.07940  1.0000 0.1748993592
C   C110      1.0  0.08400  0.55850  0.15190  1.0000 -0.200162578
C   C111      1.0  0.10850  0.55590  0.23000  1.0000 -0.1387536951
C   C112      1.0  0.12890  0.49240  0.23710  1.0000 0.0599565075
C   C113      1.0  0.12490  0.43190  0.16540  1.0000 -0.1233071067
C   C114      1.0  0.10310  0.43580  0.08890  1.0000 -0.1860751115
C   C115      1.0  0.15410  0.48550  0.31760  1.0000 -0.0104943738
C   C116      1.0  0.23430  0.59270  0.54440  1.0000 0.3417001426
C   C117      1.0  0.23900  0.56780  0.60920  1.0000 -0.2383708646
C   C118      1.0  0.28270  0.63400  0.69650  1.0000 -0.0104943738
C   C119      1.0  0.32390  0.72460  0.71930  1.0000 -0.200162578
C   C120      1.0  0.31440  0.74050  0.65090  1.0000 0.0599565075
C   C121      1.0  0.91800  0.00080  0.42060  1.0000 0.1748993592
C   C122      1.0  0.90660  0.93210  0.34810  1.0000 -0.200162578
C   C123      1.0  0.82590  0.87850  0.27000  1.0000 -0.1387536951
C   C124      1.0  0.75530  0.89180  0.26290  1.0000 0.0599565075
C   C125      1.0  0.76650  0.95950  0.33460  1.0000 -0.1233071067
C   C126      1.0  0.84690  0.01420  0.41110  1.0000 -0.1860751115
C   C127      1.0  0.66790  0.83650  0.18240  1.0000 -0.0104943738
C   C128      1.0  0.54830  0.68990  0.95560  1.0000 0.3417001426
C   C129      1.0  0.45860  0.62980  0.89080  1.0000 -0.2383708646
C   C130      1.0  0.43750  0.58620  0.80350  1.0000 -0.0104943738
C   C131      1.0  0.50530  0.60460  0.78070  1.0000 -0.200162578
C   C132      1.0  0.58960  0.66350  0.84910  1.0000 0.0599565075
C   C133      1.0  0.41980  0.49920  0.41720  1.0000 0.1748993592
C   C134      1.0  0.41600  0.56790  0.47450  1.0000 -0.200162578
C   C135      1.0  0.39150  0.62150  0.44740  1.0000 -0.1387536951
C   C136      1.0  0.37110  0.60820  0.36350  1.0000 0.0599565075
C   C137      1.0  0.37510  0.54050  0.30700  1.0000 -0.1233071067
C   C138      1.0  0.39690  0.48580  0.33270  1.0000 -0.1860751115
C   C139      1.0  0.34590  0.66350  0.33140  1.0000 -0.0104943738
C   C140      1.0  0.26570  0.81010  0.35840  1.0000 0.3417001426
C   C141      1.0  0.26100  0.87020  0.32880  1.0000 -0.2383708646
C   C142      1.0  0.21730  0.91380  0.35130  1.0000 -0.0104943738
C   C143      1.0  0.17610  0.89540  0.40070  1.0000 -0.200162578
C   C144      1.0  0.18560  0.83650  0.42610  1.0000 0.0599565075
N   N1        1.0  0.13070  0.84521  0.95351  1.0000 -0.1319296276
N   N2        1.0  0.16580  0.93190  0.97110  1.0000 -0.2122896776
N   N3        1.0  0.09470  0.88800  0.82290  1.0000 -0.2794182614
N   N4        1.0  0.39170  0.17719  0.54649  1.0000 -0.1319296276
N   N5        1.0  0.46080  0.19470  0.52890  1.0000 -0.2122896776
N   N6        1.0  0.56510  0.27180  0.67710  1.0000 -0.2794182614
N   N7        1.0  0.10830  0.65479  0.78549  1.0000 -0.1319296276
N   N8        1.0  0.03920  0.56810  0.73390  1.0000 -0.2122896776
N   N9        1.0  0.93490  0.61200  0.70670  1.0000 -0.2794182614
N   N10       1.0  0.36930  0.32281  0.71451  1.0000 -0.1319296276
N   N11       1.0  0.33420  0.30530  0.76610  1.0000 -0.2122896776
N   N12       1.0  0.40530  0.22820  0.79330  1.0000 -0.2794182614
N   N13       1.0  0.95351  0.13070  0.84521  1.0000 -0.1319296276
N   N14       1.0  0.97110  0.16580  0.93190  1.0000 -0.2122896776
N   N15       1.0  0.82290  0.09470  0.88800  1.0000 -0.2794182614
N   N16       1.0  0.54649  0.39170  0.17719  1.0000 -0.1319296276
N   N17       1.0  0.52890  0.46080  0.19470  1.0000 -0.2122896776
N   N18       1.0  0.67710  0.56510  0.27180  1.0000 -0.2794182614
N   N19       1.0  0.78549  0.10830  0.65479  1.0000 -0.1319296276
N   N20       1.0  0.73390  0.03920  0.56810  1.0000 -0.2122896776
N   N21       1.0  0.70670  0.93490  0.61200  1.0000 -0.2794182614
N   N22       1.0  0.71451  0.36930  0.32281  1.0000 -0.1319296276
N   N23       1.0  0.76610  0.33420  0.30530  1.0000 -0.2122896776
N   N24       1.0  0.79330  0.40530  0.22820  1.0000 -0.2794182614
N   N25       1.0  0.84521  0.95351  0.13070  1.0000 -0.1319296276
N   N26       1.0  0.93190  0.97110  0.16580  1.0000 -0.2122896776
N   N27       1.0  0.88800  0.82290  0.09470  1.0000 -0.2794182614
N   N28       1.0  0.17719  0.54649  0.39170  1.0000 -0.1319296276
N   N29       1.0  0.19470  0.52890  0.46080  1.0000 -0.2122896776
N   N30       1.0  0.27180  0.67710  0.56510  1.0000 -0.2794182614
N   N31       1.0  0.65479  0.78549  0.10830  1.0000 -0.1319296276
N   N32       1.0  0.56810  0.73390  0.03920  1.0000 -0.2122896776
N   N33       1.0  0.61200  0.70670  0.93490  1.0000 -0.2794182614
N   N34       1.0  0.32281  0.71451  0.36930  1.0000 -0.1319296276
N   N35       1.0  0.30530  0.76610  0.33420  1.0000 -0.2122896776
N   N36       1.0  0.22820  0.79330  0.40530  1.0000 -0.2794182614
N   N37       1.0  0.05560  0.50000  0.00000  1.0000 -0.1726461292
N   N38       1.0  0.00000  0.05560  0.50000  1.0000 -0.1726461292
N   N39       1.0  0.50000  0.00000  0.05560  1.0000 -0.1726461292
N   N40       1.0  0.44440  0.44440  0.44440  1.0000 -0.1726461292
Cl  Cl1       1.0  0.44106  0.75000  0.19106  1.0000 1.253906539
Cl  Cl2       1.0  0.05894  0.25000  0.30894  1.0000 1.253906539
Cl  Cl3       1.0  0.75000  0.19106  0.44106  1.0000 1.253906539
Cl  Cl4       1.0  0.25000  0.30894  0.05894  1.0000 1.253906539
Cl  Cl5       1.0  0.19106  0.44106  0.75000  1.0000 1.253906539
Cl  Cl6       1.0  0.30894  0.05894  0.25000  1.0000 1.253906539
O   O1        1.0  0.42930  0.67700  0.20290  1.0000 -0.4822899714
O   O2        1.0  0.37910  0.77290  0.20300  1.0000 -0.4861207669
O   O3        1.0  0.52590  0.82300  0.25230  1.0000 -0.4822899714
O   O4        1.0  0.43010  0.72710  0.10620  1.0000 -0.4861207669
O   O5        1.0  0.07070  0.27360  0.24770  1.0000 -0.4822899714
O   O6        1.0  0.12090  0.32390  0.39380  1.0000 -0.4861207669
O   O7        1.0  0.97410  0.22640  0.29710  1.0000 -0.4822899714
O   O8        1.0  0.06990  0.17610  0.29700  1.0000 -0.4861207669
O   O9        1.0  0.67700  0.20290  0.42930  1.0000 -0.4822899714
O   O10       1.0  0.77290  0.20300  0.37910  1.0000 -0.4861207669
O   O11       1.0  0.82300  0.25230  0.52590  1.0000 -0.4822899714
O   O12       1.0  0.72710  0.10620  0.43010  1.0000 -0.4861207669
O   O13       1.0  0.27360  0.24770  0.07070  1.0000 -0.4822899714
O   O14       1.0  0.32390  0.39380  0.12090  1.0000 -0.4861207669
O   O15       1.0  0.22640  0.29710  0.97410  1.0000 -0.4822899714
O   O16       1.0  0.17610  0.29700  0.06990  1.0000 -0.4861207669
O   O17       1.0  0.20290  0.42930  0.67700  1.0000 -0.4822899714
O   O18       1.0  0.20300  0.37910  0.77290  1.0000 -0.4861207669
O   O19       1.0  0.25230  0.52590  0.82300  1.0000 -0.4822899714
O   O20       1.0  0.10620  0.43010  0.72710  1.0000 -0.4861207669
O   O21       1.0  0.24770  0.07070  0.27360  1.0000 -0.4822899714
O   O22       1.0  0.39380  0.12090  0.32390  1.0000 -0.4861207669
O   O23       1.0  0.29710  0.97410  0.22640  1.0000 -0.4822899714
O   O24       1.0  0.29700  0.06990  0.17610  1.0000 -0.4861207669
