# DDEC6 charges by PACMAN v1.1 (https://github.com/mtap-research/PACMAN-charge/)
data_2017[CdK][bcu]3[ION]1
_chemical_formula_sum              "K4 Cd8 H112 C196 N2 O64"
_cell_length_a       23.0288
_cell_length_b       22.1227
_cell_length_c       20.5322
_cell_angle_alpha    65.2272
_cell_angle_beta     60.7214
_cell_angle_gamma    54.0514

_symmetry_space_group_name_H-M    "P 1"
_symmetry_Int_Tables_number       1

loop_
  _symmetry_equiv_pos_as_xyz
  'x, y, z'

loop_
  _atom_site_type_symbol
  _atom_site_label
  _atom_site_symmetry_multiplicity
  _atom_site_fract_x
  _atom_site_fract_y
  _atom_site_fract_z
  _atom_site_occupancy
  _atom_site_charge
K   K1        1.0  0.77103  0.11887  0.80711  1.0000 1.4712355376
K   K2        1.0  0.30299  0.80711  0.11887  1.0000 1.4712355376
K   K3        1.0  0.13113  0.47897  0.94701  1.0000 1.4712355376
K   K4        1.0  0.44289  0.94701  0.47897  1.0000 1.4712355376
Cd  Cd1       1.0  0.77207  0.01537  0.72205  1.0000 0.989331016
Cd  Cd2       1.0  0.49051  0.72205  0.01537  1.0000 0.989331016
Cd  Cd3       1.0  0.23463  0.47793  0.75949  1.0000 0.989331016
Cd  Cd4       1.0  0.52795  0.75949  0.47793  1.0000 0.989331016
Cd  Cd5       1.0  0.78376  0.21188  0.89446  1.0000 0.9735497326
Cd  Cd6       1.0  0.10990  0.89446  0.21188  1.0000 0.9735497326
Cd  Cd7       1.0  0.03812  0.46624  0.14010  1.0000 0.9735497326
Cd  Cd8       1.0  0.35554  0.14010  0.46624  1.0000 0.9735497326
H   H1        1.0  0.29540  0.36380  0.96980  1.0000 0.1304645463
H   H2        1.0  0.37100  0.96980  0.36380  1.0000 0.1304645463
H   H3        1.0  0.88620  0.95460  0.87900  1.0000 0.1304645463
H   H4        1.0  0.28020  0.87900  0.95460  1.0000 0.1304645463
H   H5        1.0  0.42650  0.28650  0.89230  1.0000 0.1304645463
H   H6        1.0  0.39470  0.89230  0.28650  1.0000 0.1304645463
H   H7        1.0  0.96350  0.82350  0.85530  1.0000 0.1304645463
H   H8        1.0  0.35770  0.85530  0.82350  1.0000 0.1304645463
H   H9        1.0  0.63090  0.80190  0.21090  1.0000 0.1304645463
H   H10       1.0  0.35630  0.21090  0.80190  1.0000 0.1304645463
H   H11       1.0  0.44810  0.61910  0.89370  1.0000 0.1304645463
H   H12       1.0  0.03910  0.89370  0.61910  1.0000 0.1304645463
H   H13       1.0  0.55080  0.24660  0.84740  1.0000 0.1304645463
H   H14       1.0  0.35520  0.84740  0.24660  1.0000 0.1304645463
H   H15       1.0  0.00340  0.69920  0.89480  1.0000 0.1304645463
H   H16       1.0  0.40260  0.89480  0.69920  1.0000 0.1304645463
H   H17       1.0  0.74610  0.85130  0.95210  1.0000 0.1213313899
H   H18       1.0  0.45050  0.95210  0.85130  1.0000 0.1213313899
H   H19       1.0  0.39870  0.50390  0.79950  1.0000 0.1213313899
H   H20       1.0  0.29790  0.79950  0.50390  1.0000 0.1213313899
H   H21       1.0  0.52150  0.35950  0.98070  1.0000 0.1394196764
H   H22       1.0  0.13830  0.98070  0.35950  1.0000 0.1394196764
H   H23       1.0  0.89050  0.72850  0.11170  1.0000 0.1394196764
H   H24       1.0  0.26930  0.11170  0.72850  1.0000 0.1394196764
H   H25       1.0  0.65760  0.27840  0.72320  1.0000 0.1304645463
H   H26       1.0  0.34080  0.72320  0.27840  1.0000 0.1304645463
H   H27       1.0  0.97160  0.59240  0.90920  1.0000 0.1304645463
H   H28       1.0  0.52680  0.90920  0.59240  1.0000 0.1304645463
H   H29       1.0  0.63550  0.04910  0.01330  1.0000 0.1304645463
H   H30       1.0  0.30210  0.01330  0.04910  1.0000 0.1304645463
H   H31       1.0  0.20090  0.61450  0.94790  1.0000 0.1304645463
H   H32       1.0  0.23670  0.94790  0.61450  1.0000 0.1304645463
H   H33       1.0  0.66880  0.49340  0.48320  1.0000 0.1304645463
H   H34       1.0  0.35460  0.48320  0.49340  1.0000 0.1304645463
H   H35       1.0  0.75660  0.58120  0.89540  1.0000 0.1304645463
H   H36       1.0  0.76680  0.89540  0.58120  1.0000 0.1304645463
H   H37       1.0  0.71120  0.79120  0.07480  1.0000 0.1213313899
H   H38       1.0  0.42280  0.07480  0.79120  1.0000 0.1213313899
H   H39       1.0  0.45880  0.53880  0.82720  1.0000 0.1213313899
H   H40       1.0  0.17520  0.82720  0.53880  1.0000 0.1213313899
H   H41       1.0  0.38950  0.43630  0.06290  1.0000 0.1213313899
H   H42       1.0  0.11130  0.06290  0.43630  1.0000 0.1213313899
H   H43       1.0  0.81370  0.86050  0.13870  1.0000 0.1213313899
H   H44       1.0  0.18710  0.13870  0.86050  1.0000 0.1213313899
H   H45       1.0  0.51240  0.00640  0.27400  1.0000 0.1304645463
H   H46       1.0  0.20720  0.27400  0.00640  1.0000 0.1304645463
H   H47       1.0  0.24360  0.73760  0.04280  1.0000 0.1304645463
H   H48       1.0  0.97600  0.04280  0.73760  1.0000 0.1304645463
H   H49       1.0  0.54540  0.54000  0.69220  1.0000 0.1213313899
H   H50       1.0  0.22240  0.69220  0.54000  1.0000 0.1213313899
H   H51       1.0  0.71000  0.70460  0.02760  1.0000 0.1213313899
H   H52       1.0  0.55780  0.02760  0.70460  1.0000 0.1213313899
H   H53       1.0  0.78340  0.23300  0.51520  1.0000 0.1304645463
H   H54       1.0  0.46840  0.51520  0.23300  1.0000 0.1304645463
H   H55       1.0  0.01700  0.46660  0.78160  1.0000 0.1304645463
H   H56       1.0  0.73480  0.78160  0.46660  1.0000 0.1304645463
H   H57       1.0  0.58990  0.41250  0.74170  1.0000 0.1304645463
H   H58       1.0  0.25590  0.74170  0.41250  1.0000 0.1304645463
H   H59       1.0  0.83750  0.66010  0.99410  1.0000 0.1304645463
H   H60       1.0  0.50830  0.99410  0.66010  1.0000 0.1304645463
H   H61       1.0  0.26460  0.47200  0.11280  1.0000 0.1213313899
H   H62       1.0  0.15060  0.11280  0.47200  1.0000 0.1213313899
H   H63       1.0  0.77800  0.98540  0.09940  1.0000 0.1213313899
H   H64       1.0  0.13720  0.09940  0.98540  1.0000 0.1213313899
H   H65       1.0  0.55640  0.05920  0.15400  1.0000 0.1213313899
H   H66       1.0  0.23040  0.15400  0.05920  1.0000 0.1213313899
H   H67       1.0  0.19080  0.69360  0.01960  1.0000 0.1213313899
H   H68       1.0  0.09600  0.01960  0.69360  1.0000 0.1213313899
H   H69       1.0  0.74850  0.35710  0.46510  1.0000 0.1304645463
H   H70       1.0  0.42930  0.46510  0.35710  1.0000 0.1304645463
H   H71       1.0  0.89290  0.50150  0.82070  1.0000 0.1304645463
H   H72       1.0  0.78490  0.82070  0.50150  1.0000 0.1304645463
H   H73       1.0  0.78980  0.38800  0.66280  1.0000 0.1213313899
H   H74       1.0  0.15940  0.66280  0.38800  1.0000 0.1213313899
H   H75       1.0  0.86200  0.46020  0.09060  1.0000 0.1213313899
H   H76       1.0  0.58720  0.09060  0.46020  1.0000 0.1213313899
H   H77       1.0  0.91500  0.18520  0.59720  1.0000 0.1213313899
H   H78       1.0  0.30260  0.59720  0.18520  1.0000 0.1304645463
H   H79       1.0  0.06480  0.33500  0.94740  1.0000 0.1213313899
H   H80       1.0  0.65280  0.94740  0.33500  1.0000 0.1213313899
H   H81       1.0  0.84530  0.44290  0.54030  1.0000 0.1304645463
H   H82       1.0  0.17150  0.54030  0.44290  1.0000 0.1304645463
H   H83       1.0  0.80710  0.40470  0.07850  1.0000 0.1304645463
H   H84       1.0  0.70970  0.07850  0.40470  1.0000 0.1304645463
H   H85       1.0  0.03830  0.24430  0.33790  1.0000 0.1213313899
H   H86       1.0  0.37950  0.33790  0.24430  1.0000 0.1213313899
H   H87       1.0  0.00570  0.21170  0.87050  1.0000 0.1213313899
H   H88       1.0  0.91210  0.87050  0.21170  1.0000 0.1213313899
H   H89       1.0  0.99820  0.18200  0.46880  1.0000 0.1213313899
H   H90       1.0  0.35100  0.46880  0.18200  1.0000 0.1213313899
H   H91       1.0  0.06800  0.25180  0.89900  1.0000 0.1213313899
H   H92       1.0  0.78120  0.89900  0.25180  1.0000 0.1213313899
H   H93       1.0  0.92040  0.44000  0.40580  1.0000 0.1304645463
H   H94       1.0  0.23380  0.40580  0.44000  1.0000 0.1304645463
H   H95       1.0  0.81000  0.32960  0.01620  1.0000 0.1304645463
H   H96       1.0  0.84420  0.01620  0.32960  1.0000 0.1304645463
H   H97       1.0  0.03740  0.00360  0.95600  1.0000 0.261039281
H   H98       1.0  0.00300  0.95600  0.00360  1.0000 0.261039281
H   H99       1.0  0.05440  0.92420  0.87480  1.0000 0.1304645463
H   H100      1.0  0.14660  0.87480  0.92420  1.0000 0.1304645463
H   H101      1.0  0.96890  0.97810  0.91450  1.0000 0.1304645463
H   H102      1.0  0.13850  0.91450  0.97810  1.0000 0.1304645463
H   H103      1.0  0.02370  0.01210  0.85770  1.0000 0.1394196764
H   H104      1.0  0.10650  0.85770  0.01210  1.0000 0.1394196764
H   H105      1.0  0.24640  0.21260  0.24700  1.0000 0.261039281
H   H106      1.0  0.29400  0.24700  0.21260  1.0000 0.261039281
H   H107      1.0  0.32580  0.19560  0.10340  1.0000 0.1304645463
H   H108      1.0  0.37520  0.10340  0.19560  1.0000 0.1304645463
H   H109      1.0  0.27190  0.28110  0.11150  1.0000 0.1304645463
H   H110      1.0  0.33550  0.11150  0.28110  1.0000 0.1304645463
H   H111      1.0  0.23790  0.22630  0.14350  1.0000 0.1394196764
H   H112      1.0  0.39230  0.14350  0.22630  1.0000 0.1394196764
C   C1        1.0  0.31470  0.37690  0.98930  1.0000 -0.166714093
C   C2        1.0  0.31910  0.98930  0.37690  1.0000 -0.166714093
C   C3        1.0  0.87310  0.93530  0.93090  1.0000 -0.166714093
C   C4        1.0  0.26070  0.93090  0.93530  1.0000 -0.166714093
C   C5        1.0  0.26620  0.42120  0.04560  1.0000 -0.0078624004
C   C6        1.0  0.26700  0.04560  0.42120  1.0000 -0.0154296712
C   C7        1.0  0.82880  0.98380  0.98300  1.0000 -0.0154296712
C   C8        1.0  0.20440  0.98300  0.98380  1.0000 -0.0154296712
C   C9        1.0  0.53890  0.86130  0.33550  1.0000 0.5757330597
C   C10       1.0  0.26430  0.33550  0.86130  1.0000 0.5757330597
C   C11       1.0  0.38870  0.71110  0.98570  1.0000 0.5757330597
C   C12       1.0  0.91450  0.98570  0.71110  1.0000 0.5757330597
C   C13       1.0  0.39270  0.35250  0.96270  1.0000 0.0683755753
C   C14       1.0  0.29210  0.96270  0.35250  1.0000 0.0683755753
C   C15       1.0  0.89750  0.85730  0.95790  1.0000 0.0683755753
C   C16       1.0  0.28730  0.95790  0.85730  1.0000 0.0683755753
C   C17       1.0  0.18420  0.44240  0.08020  1.0000 0.5564227641
C   C18       1.0  0.29320  0.08020  0.44240  1.0000 0.5564227641
C   C19       1.0  0.80760  0.06580  0.95680  1.0000 0.5564227641
C   C20       1.0  0.16980  0.95680  0.06580  1.0000 0.5564227641
C   C21       1.0  0.44530  0.30190  0.90990  1.0000 -0.1315811857
C   C22       1.0  0.34290  0.90990  0.30190  1.0000 -0.1315811857
C   C23       1.0  0.94810  0.80470  0.90710  1.0000 -0.1315811857
C   C24       1.0  0.34010  0.90710  0.80470  1.0000 -0.1315811857
C   C25       1.0  0.55050  0.29430  0.91770  1.0000 -0.0078624004
C   C26       1.0  0.23750  0.91770  0.29430  1.0000 -0.0078624004
C   C27       1.0  0.95570  0.69950  0.01250  1.0000 -0.0078624004
C   C28       1.0  0.33230  0.01250  0.69950  1.0000 -0.0078624004
C   C29       1.0  0.56820  0.89580  0.25660  1.0000 -0.0304105415
C   C30       1.0  0.27940  0.25660  0.89580  1.0000 -0.0304105415
C   C31       1.0  0.35420  0.68180  0.97060  1.0000 -0.0304105415
C   C32       1.0  0.99340  0.97060  0.68180  1.0000 -0.0304105415
C   C33       1.0  0.61630  0.85330  0.19930  1.0000 -0.1584085136
C   C34       1.0  0.33110  0.19930  0.85330  1.0000 -0.1584085136
C   C35       1.0  0.39670  0.63370  0.91890  1.0000 -0.1584085136
C   C36       1.0  0.05070  0.91890  0.63370  1.0000 -0.1584085136
C   C37       1.0  0.65140  0.37420  0.64140  1.0000 0.0683755753
C   C38       1.0  0.33300  0.64140  0.37420  1.0000 0.0683755753
C   C39       1.0  0.87580  0.59860  0.91700  1.0000 0.0683755753
C   C40       1.0  0.60860  0.91700  0.59860  1.0000 0.0683755753
C   C41       1.0  0.51900  0.27600  0.88500  1.0000 -0.1010443795
C   C42       1.0  0.32000  0.88500  0.27600  1.0000 -0.1010443795
C   C43       1.0  0.97400  0.73100  0.93000  1.0000 -0.1010443795
C   C44       1.0  0.36500  0.93000  0.73100  1.0000 -0.1010443795
C   C45       1.0  0.71670  0.87870  0.99110  1.0000 -0.1010443795
C   C46       1.0  0.41350  0.99110  0.87870  1.0000 -0.1010443795
C   C47       1.0  0.37130  0.53330  0.83650  1.0000 -0.1010443795
C   C48       1.0  0.25890  0.83650  0.53330  1.0000 -0.1010443795
C   C49       1.0  0.50220  0.34340  0.96440  1.0000 -0.1469495645
C   C50       1.0  0.19000  0.96440  0.34340  1.0000 -0.1469495645
C   C51       1.0  0.90660  0.74780  0.06000  1.0000 -0.1469495645
C   C52       1.0  0.28560  0.06000  0.74780  1.0000 -0.1469495645
C   C53       1.0  0.72170  0.24610  0.62390  1.0000 -0.0023637933
C   C54       1.0  0.40830  0.62390  0.24610  1.0000 -0.0023637933
C   C55       1.0  0.00390  0.52830  0.84170  1.0000 -0.0023637933
C   C56       1.0  0.62610  0.84170  0.52830  1.0000 -0.0023637933
C   C57       1.0  0.69640  0.95520  0.97400  1.0000 -0.0023637933
C   C58       1.0  0.37440  0.97400  0.95520  1.0000 -0.0023637933
C   C59       1.0  0.29480  0.55360  0.87560  1.0000 -0.0023637933
C   C60       1.0  0.27600  0.87560  0.55360  1.0000 -0.0023637933
C   C61       1.0  0.67490  0.29530  0.67110  1.0000 -0.1315811857
C   C62       1.0  0.35870  0.67110  0.29530  1.0000 -0.1315811857
C   C63       1.0  0.95470  0.57510  0.89130  1.0000 -0.1315811857
C   C64       1.0  0.57890  0.89130  0.57510  1.0000 -0.1315811857
C   C65       1.0  0.63600  0.25860  0.89620  1.0000 0.5897417655
C   C66       1.0  0.20920  0.89620  0.25860  1.0000 0.5897417655
C   C67       1.0  0.99140  0.61400  0.04080  1.0000 0.5897417655
C   C68       1.0  0.35380  0.04080  0.61400  1.0000 0.5897417655
C   C69       1.0  0.72380  0.99300  0.89180  1.0000 0.6007170618
C   C70       1.0  0.39140  0.89180  0.99300  1.0000 0.6007170618
C   C71       1.0  0.25700  0.52620  0.85860  1.0000 0.6007170618
C   C72       1.0  0.35820  0.85860  0.52620  1.0000 0.6007170618
C   C73       1.0  0.42210  0.37270  0.99110  1.0000 0.0683755753
C   C74       1.0  0.21410  0.99110  0.37270  1.0000 0.0683755753
C   C75       1.0  0.87730  0.82790  0.03590  1.0000 0.0683755753
C   C76       1.0  0.25890  0.03590  0.82790  1.0000 0.0683755753
C   C77       1.0  0.62060  0.96520  0.10580  1.0000 0.0683755753
C   C78       1.0  0.30840  0.10580  0.96520  1.0000 0.0683755753
C   C79       1.0  0.28480  0.62940  0.94160  1.0000 0.0683755753
C   C80       1.0  0.14420  0.94160  0.62940  1.0000 0.0683755753
C   C81       1.0  0.64980  0.99760  0.02680  1.0000 -0.1469495645
C   C82       1.0  0.32580  0.02680  0.99760  1.0000 -0.1404087392
C   C83       1.0  0.25240  0.60020  0.92420  1.0000 -0.1404087392
C   C84       1.0  0.22320  0.92420  0.60020  1.0000 -0.1404087392
C   C85       1.0  0.65230  0.47710  0.53550  1.0000 -0.1404087392
C   C86       1.0  0.33510  0.53550  0.47710  1.0000 -0.1404087392
C   C87       1.0  0.77290  0.59770  0.91490  1.0000 -0.1404087392
C   C88       1.0  0.71450  0.91490  0.59770  1.0000 -0.1404087392
C   C89       1.0  0.67890  0.39910  0.56390  1.0000 0.0683755753
C   C90       1.0  0.35810  0.56390  0.39910  1.0000 0.0683755753
C   C91       1.0  0.85090  0.57110  0.89190  1.0000 0.0683755753
C   C92       1.0  0.68610  0.89190  0.57110  1.0000 0.0683755753
C   C93       1.0  0.69400  0.84320  0.06400  1.0000 -0.1469495645
C   C94       1.0  0.39880  0.06400  0.84320  1.0000 -0.1469495645
C   C95       1.0  0.40680  0.55600  0.85120  1.0000 -0.1469495645
C   C96       1.0  0.18600  0.85120  0.55600  1.0000 -0.1469495645
C   C97       1.0  0.60380  0.52940  0.58080  1.0000 0.0047166941
C   C98       1.0  0.28600  0.58080  0.52940  1.0000 0.0047166941
C   C99       1.0  0.72060  0.64620  0.96400  1.0000 0.0082155206
C   C100      1.0  0.66920  0.96400  0.64620  1.0000 0.0047166941
C   C101      1.0  0.74260  0.16300  0.65600  1.0000 0.5897417655
C   C102      1.0  0.43840  0.65600  0.16300  1.0000 0.5897417655
C   C103      1.0  0.08700  0.50740  0.81160  1.0000 0.5897417655
C   C104      1.0  0.59400  0.81160  0.50740  1.0000 0.5897417655
C   C105      1.0  0.37070  0.42010  0.04610  1.0000 -0.1404087392
C   C106      1.0  0.16310  0.04610  0.42010  1.0000 -0.1404087392
C   C107      1.0  0.82990  0.87930  0.08690  1.0000 -0.1404087392
C   C108      1.0  0.20390  0.08690  0.87930  1.0000 -0.1404087392
C   C109      1.0  0.85410  0.27790  0.64390  1.0000 -0.0452801979
C   C110      1.0  0.22410  0.64390  0.27790  1.0000 -0.0449624269
C   C111      1.0  0.97210  0.39590  0.02590  1.0000 -0.0452801979
C   C112      1.0  0.60610  0.02590  0.39590  1.0000 -0.0452801979
C   C113      1.0  0.54520  0.97680  0.23660  1.0000 -0.1010443795
C   C114      1.0  0.24140  0.23660  0.97680  1.0000 -0.1010443795
C   C115      1.0  0.27320  0.70480  0.00860  1.0000 -0.1010443795
C   C116      1.0  0.01340  0.00860  0.70480  1.0000 -0.1010443795
C   C117      1.0  0.57880  0.50480  0.66000  1.0000 -0.0908642105
C   C118      1.0  0.25640  0.66000  0.50480  1.0000 -0.0908642105
C   C119      1.0  0.74520  0.67120  0.99360  1.0000 -0.0908642105
C   C120      1.0  0.59000  0.99360  0.67120  1.0000 -0.0908642105
C   C121      1.0  0.57740  0.61220  0.54620  1.0000 0.5470299662
C   C122      1.0  0.26420  0.54620  0.61220  1.0000 0.5470299662
C   C123      1.0  0.63780  0.67260  0.98580  1.0000 0.5470299662
C   C124      1.0  0.70380  0.98580  0.67260  1.0000 0.5470299662
C   C125      1.0  0.64350  0.88670  0.12390  1.0000 0.0683755753
C   C126      1.0  0.34590  0.12390  0.88670  1.0000 0.0683755753
C   C127      1.0  0.36330  0.60650  0.90410  1.0000 0.0683755753
C   C128      1.0  0.12610  0.90410  0.60650  1.0000 0.0683755753
C   C129      1.0  0.82680  0.24040  0.72220  1.0000 0.5897417655
C   C130      1.0  0.21060  0.72220  0.24040  1.0000 0.5897417655
C   C131      1.0  0.00960  0.42320  0.03940  1.0000 0.5897417655
C   C132      1.0  0.52780  0.03940  0.42320  1.0000 0.5897417655
C   C133      1.0  0.75000  0.26880  0.54680  1.0000 -0.0908642105
C   C134      1.0  0.43440  0.54680  0.26880  1.0000 -0.0908642105
C   C135      1.0  0.98120  0.50000  0.81560  1.0000 -0.0908642105
C   C136      1.0  0.70320  0.81560  0.50000  1.0000 -0.0908642105
C   C137      1.0  0.60410  0.42870  0.68930  1.0000 -0.1469495645
C   C138      1.0  0.27790  0.68930  0.42870  1.0000 -0.1404087392
C   C139      1.0  0.82130  0.64590  0.97210  1.0000 -0.1404087392
C   C140      1.0  0.56070  0.97210  0.64590  1.0000 -0.1469495645
C   C141      1.0  0.29640  0.44300  0.07480  1.0000 -0.1010443795
C   C142      1.0  0.18580  0.07480  0.44300  1.0000 -0.1010443795
C   C143      1.0  0.80700  0.95360  0.06420  1.0000 -0.1010443795
C   C144      1.0  0.17520  0.06420  0.95360  1.0000 -0.1010443795
C   C145      1.0  0.90620  0.35140  0.50020  1.0000 0.0683755753
C   C146      1.0  0.24220  0.50020  0.35140  1.0000 0.0683755753
C   C147      1.0  0.89860  0.34380  0.00780  1.0000 0.0683755753
C   C148      1.0  0.74980  0.00780  0.34380  1.0000 0.0683755753
C   C149      1.0  0.57110  0.00790  0.16550  1.0000 -0.1469495645
C   C150      1.0  0.25550  0.16550  0.00790  1.0000 -0.1469495645
C   C151      1.0  0.24210  0.67890  0.99450  1.0000 -0.1469495645
C   C152      1.0  0.08450  0.99450  0.67890  1.0000 -0.1469495645
C   C153      1.0  0.01500  0.38260  0.27920  1.0000 0.5411298514
C   C154      1.0  0.32320  0.27920  0.38260  1.0000 0.5411298514
C   C155      1.0  0.86740  0.23500  0.92680  1.0000 0.5411298514
C   C156      1.0  0.97080  0.92680  0.23500  1.0000 0.5411298514
C   C157      1.0  0.72940  0.34240  0.51740  1.0000 -0.1404087392
C   C158      1.0  0.41080  0.51740  0.34240  1.0000 -0.1404087392
C   C159      1.0  0.90760  0.52060  0.83920  1.0000 -0.1404087392
C   C160      1.0  0.73260  0.83920  0.52060  1.0000 -0.1404087392
C   C161      1.0  0.82740  0.35820  0.62600  1.0000 -0.0747526421
C   C162      1.0  0.18840  0.62600  0.35820  1.0000 -0.0747526421
C   C163      1.0  0.89180  0.42260  0.06160  1.0000 -0.0751402958
C   C164      1.0  0.62400  0.06160  0.42260  1.0000 -0.0747526421
C   C165      1.0  0.90080  0.23620  0.58760  1.0000 -0.1315811857
C   C166      1.0  0.27540  0.58760  0.23620  1.0000 -0.1315811857
C   C167      1.0  0.01380  0.34920  0.97460  1.0000 -0.1315811857
C   C168      1.0  0.66240  0.97460  0.34920  1.0000 -0.1315811857
C   C169      1.0  0.92750  0.27530  0.51230  1.0000 0.0683755753
C   C170      1.0  0.28490  0.51230  0.27530  1.0000 0.0683755753
C   C171      1.0  0.97470  0.32250  0.96510  1.0000 0.0683755753
C   C172      1.0  0.73770  0.96510  0.32250  1.0000 0.0683755753
C   C173      1.0  0.85900  0.39180  0.55160  1.0000 -0.1315811857
C   C174      1.0  0.19760  0.55160  0.39180  1.0000 -0.1315811857
C   C175      1.0  0.85820  0.39100  0.05240  1.0000 -0.1315811857
C   C176      1.0  0.69840  0.05240  0.39100  1.0000 -0.1315811857
C   C177      1.0  0.98580  0.34600  0.36680  1.0000 0.0082155206
C   C178      1.0  0.30140  0.36680  0.34600  1.0000 0.0082155206
C   C179      1.0  0.90400  0.26420  0.94860  1.0000 0.0082155206
C   C180      1.0  0.88320  0.94860  0.26420  1.0000 0.0082155206
C   C181      1.0  0.00760  0.27100  0.37780  1.0000 -0.1010443795
C   C182      1.0  0.34360  0.37780  0.27100  1.0000 -0.1010443795
C   C183      1.0  0.97900  0.24240  0.90640  1.0000 -0.1010443795
C   C184      1.0  0.87220  0.90640  0.24240  1.0000 -0.1010443795
C   C185      1.0  0.97950  0.23430  0.45710  1.0000 -0.1469495645
C   C186      1.0  0.32910  0.45710  0.23430  1.0000 -0.1469495645
C   C187      1.0  0.01570  0.27050  0.92090  1.0000 -0.1469495645
C   C188      1.0  0.79290  0.92090  0.27050  1.0000 -0.1469495645
C   C189      1.0  0.93680  0.38800  0.41840  1.0000 -0.1156916155
C   C190      1.0  0.25680  0.41840  0.38800  1.0000 -0.1156916155
C   C191      1.0  0.86200  0.31320  0.99320  1.0000 -0.1148080214
C   C192      1.0  0.83160  0.99320  0.31320  1.0000 -0.1156916155
C   C193      1.0  0.01990  0.96950  0.89610  1.0000 -0.3027326598
C   C194      1.0  0.11450  0.89610  0.96950  1.0000 -0.3027326598
C   C195      1.0  0.28050  0.23010  0.13550  1.0000 -0.3027326598
C   C196      1.0  0.35390  0.13550  0.23010  1.0000 -0.3027326598
N   N1        1.0  0.03940  0.96060  0.96060  1.0000 -0.0908642105
N   N2        1.0  0.28940  0.21060  0.21060  1.0000 -0.0908642105
O   O1        1.0  0.15699  0.42883  0.04877  1.0000 -0.6309545695
O   O2        1.0  0.36541  0.04877  0.42883  1.0000 -0.6309545695
O   O3        1.0  0.82117  0.09301  0.88459  1.0000 -0.6309545695
O   O4        1.0  0.20123  0.88459  0.09301  1.0000 -0.6309545695
O   O5        1.0  0.72420  0.14100  0.72780  1.0000 -0.6123130678
O   O6        1.0  0.40700  0.72780  0.14100  1.0000 -0.6123130678
O   O7        1.0  0.10900  0.52580  0.84300  1.0000 -0.6123130678
O   O8        1.0  0.52220  0.84300  0.52580  1.0000 -0.6123130678
O   O9        1.0  0.49382  0.90082  0.38458  1.0000 -0.5895950108
O   O10       1.0  0.22078  0.38458  0.90082  1.0000 -0.5895950108
O   O11       1.0  0.34918  0.75618  0.02922  1.0000 -0.5895950108
O   O12       1.0  0.86542  0.02922  0.75618  1.0000 -0.5895950108
O   O13       1.0  0.82416  0.18156  0.73404  1.0000 -0.603748998
O   O14       1.0  0.26024  0.73404  0.18156  1.0000 -0.603748998
O   O15       1.0  0.06844  0.42584  0.98976  1.0000 -0.603748998
O   O16       1.0  0.51596  0.98976  0.42584  1.0000 -0.603748998
O   O17       1.0  0.74751  0.95731  0.84049  1.0000 -0.5469543226
O   O18       1.0  0.45469  0.84049  0.95731  1.0000 -0.5469543226
O   O19       1.0  0.29269  0.50249  0.79531  1.0000 -0.5469543226
O   O20       1.0  0.40951  0.79531  0.50249  1.0000 -0.5469543226
O   O21       1.0  0.67698  0.21158  0.85362  1.0000 -0.5895950108
O   O22       1.0  0.25782  0.85362  0.21158  1.0000 -0.5895950108
O   O23       1.0  0.03842  0.57302  0.99218  1.0000 -0.5895950108
O   O24       1.0  0.39638  0.99218  0.57302  1.0000 -0.5895950108
O   O25       1.0  0.65744  0.27904  0.92476  1.0000 -0.5183639361
O   O26       1.0  0.13876  0.92476  0.27904  1.0000 -0.5183639361
O   O27       1.0  0.97096  0.59256  0.11124  1.0000 -0.5183639361
O   O28       1.0  0.32524  0.11124  0.59256  1.0000 -0.5183639361
O   O29       1.0  0.14360  0.46920  0.13840  1.0000 -0.498789715
O   O30       1.0  0.24880  0.13840  0.46920  1.0000 -0.498789715
O   O31       1.0  0.78080  0.10640  0.00120  1.0000 -0.4946531116
O   O32       1.0  0.11160  0.00120  0.10640  1.0000 -0.4946531116
O   O33       1.0  0.71953  0.05473  0.88067  1.0000 -0.5895950108
O   O34       1.0  0.34507  0.88067  0.05473  1.0000 -0.5895950108
O   O35       1.0  0.19527  0.53047  0.90493  1.0000 -0.5895950108
O   O36       1.0  0.36933  0.90493  0.53047  1.0000 -0.5895950108
O   O37       1.0  0.59300  0.63300  0.47600  1.0000 -0.498789715
O   O38       1.0  0.29800  0.47600  0.63300  1.0000 -0.5113763272
O   O39       1.0  0.61700  0.65700  0.95200  1.0000 -0.498789715
O   O40       1.0  0.77400  0.95200  0.65700  1.0000 -0.5113763272
O   O41       1.0  0.56670  0.78790  0.34990  1.0000 -0.5274881928
O   O42       1.0  0.29550  0.34990  0.78790  1.0000 -0.5274881928
O   O43       1.0  0.46210  0.68330  0.95450  1.0000 -0.5274881928
O   O44       1.0  0.90010  0.95450  0.68330  1.0000 -0.5274881928
O   O45       1.0  0.80646  0.27306  0.77414  1.0000 -0.5400817096
O   O46       1.0  0.14634  0.77414  0.27306  1.0000 -0.5469543226
O   O47       1.0  0.97694  0.44354  0.10366  1.0000 -0.5469543226
O   O48       1.0  0.47586  0.10366  0.44354  1.0000 -0.5469543226
O   O49       1.0  0.53550  0.65950  0.59090  1.0000 -0.5400817096
O   O50       1.0  0.21410  0.59090  0.65950  1.0000 -0.5400817096
O   O51       1.0  0.59050  0.71450  0.03590  1.0000 -0.5400817096
O   O52       1.0  0.65910  0.03590  0.71450  1.0000 -0.5400817096
O   O53       1.0  0.77610  0.11810  0.61190  1.0000 -0.5113763272
O   O54       1.0  0.49390  0.61190  0.11810  1.0000 -0.5113763272
O   O55       1.0  0.13190  0.47390  0.75610  1.0000 -0.5113763272
O   O56       1.0  0.63810  0.75610  0.47390  1.0000 -0.5113763272
O   O57       1.0  0.06500  0.34580  0.23300  1.0000 -0.498789715
O   O58       1.0  0.35620  0.23300  0.34580  1.0000 -0.498789715
O   O59       1.0  0.90420  0.18500  0.89380  1.0000 -0.498789715
O   O60       1.0  0.01700  0.89380  0.18500  1.0000 -0.498789715
O   O61       1.0  0.97760  0.45600  0.26720  1.0000 -0.5183639361
O   O62       1.0  0.29920  0.26720  0.45600  1.0000 -0.5183639361
O   O63       1.0  0.79400  0.27240  0.95080  1.0000 -0.5183639361
O   O64       1.0  0.98280  0.95080  0.27240  1.0000 -0.5183639361
