# DDEC6 charges by PACMAN v1.1 (https://github.com/mtap-research/PACMAN-charge/)
data_2017[Co][bnn]3[ION]5
_chemical_formula_sum              "Co8 H152 C192 S8 N24 O48 F24"
_cell_length_a       11.4238
_cell_length_b       25.4376
_cell_length_c       20.5084
_cell_angle_alpha    90
_cell_angle_beta     90.9984
_cell_angle_gamma    90

_symmetry_space_group_name_H-M    "P 1"
_symmetry_Int_Tables_number       1

loop_
  _symmetry_equiv_pos_as_xyz
  'x, y, z'

loop_
  _atom_site_type_symbol
  _atom_site_label
  _atom_site_symmetry_multiplicity
  _atom_site_fract_x
  _atom_site_fract_y
  _atom_site_fract_z
  _atom_site_occupancy
  _atom_site_charge
Co  Co1       1.0  0.97260  0.68198  0.02559  1.0000 0.7736834483
Co  Co2       1.0  0.98385  0.76756  0.27536  1.0000 0.7736834483
Co  Co3       1.0  0.97748  0.76559  0.77739  1.0000 0.7638772623
Co  Co4       1.0  0.97017  0.68493  0.52540  1.0000 0.7779517369
Co  Co5       1.0  0.02740  0.18198  0.97441  1.0000 0.7736834483
Co  Co6       1.0  0.01615  0.26756  0.72464  1.0000 0.7736834483
Co  Co7       1.0  0.02252  0.26559  0.22261  1.0000 0.7638772623
Co  Co8       1.0  0.02983  0.18493  0.47460  1.0000 0.7779517369
H   H1        1.0  0.05900  0.68400  0.74000  1.0000 0.3526914911
H   H2        1.0  0.17600  0.79320  0.52540  1.0000 0.109845873
H   H3        1.0  0.60640  0.60600  0.75170  1.0000 0.1198241249
H   H4        1.0  0.18230  0.69810  0.92950  1.0000 0.109845873
H   H5        1.0  0.56700  0.78610  0.17620  1.0000 0.1302625408
H   H6        1.0  0.70150  0.52580  0.38090  1.0000 0.109845873
H   H7        1.0  0.38240  0.65590  0.11950  1.0000 0.1302625408
H   H8        1.0  0.92620  0.98950  0.47330  1.0000 0.1302625408
H   H9        1.0  0.11180  0.96380  0.05880  1.0000 0.109845873
H   H10       1.0  0.01010  0.91230  0.44910  1.0000 0.1198241249
H   H11       1.0  0.17360  0.78650  0.01930  1.0000 0.109845873
H   H12       1.0  0.28760  0.93570  0.01770  1.0000 0.1198241249
H   H13       1.0  0.96170  0.90090  0.60800  1.0000 0.1198241249
H   H14       1.0  0.55860  0.65790  0.92900  1.0000 0.1302625408
H   H15       1.0  0.98070  0.96730  0.26470  1.0000 0.1302625408
H   H16       1.0  0.18750  0.78690  0.87200  1.0000 0.109845873
H   H17       1.0  0.38420  0.69480  0.92690  1.0000 0.1302625408
H   H18       1.0  0.62060  0.52050  0.79390  1.0000 0.1198241249
H   H19       1.0  0.05510  0.41160  0.05710  1.0000 0.1198241249
H   H20       1.0  0.75750  0.67040  0.24680  1.0000 0.109845873
H   H21       1.0  0.28910  0.93830  0.55640  1.0000 0.109845873
H   H22       1.0  0.05200  0.68200  0.25300  1.0000 0.333990653
H   H23       1.0  0.54830  0.56010  0.32060  1.0000 0.1198241249
H   H24       1.0  0.76840  0.66150  0.75860  1.0000 0.109845873
H   H25       1.0  0.88400  0.76800  0.98300  1.0000 0.3587459521
H   H26       1.0  0.96800  0.37620  0.26770  1.0000 0.109845873
H   H27       1.0  0.32820  0.85440  0.52590  1.0000 0.1302625408
H   H28       1.0  0.79290  0.49330  0.84230  1.0000 0.109845873
H   H29       1.0  0.56010  0.69580  0.62220  1.0000 0.1302625408
H   H30       1.0  0.76630  0.69170  0.11860  1.0000 0.1011379144
H   H31       1.0  0.56990  0.63670  0.26220  1.0000 0.1198241249
H   H32       1.0  0.76800  0.74770  0.86780  1.0000 0.1011379144
H   H33       1.0  0.95230  0.54990  0.85560  1.0000 0.1198241249
H   H34       1.0  0.76170  0.65280  0.93320  1.0000 0.1011379144
H   H35       1.0  0.32120  0.84920  0.00650  1.0000 0.1302625408
H   H36       1.0  0.18000  0.65990  0.11500  1.0000 0.109845873
H   H37       1.0  0.08050  0.32960  0.10330  1.0000 0.109845873
H   H38       1.0  0.11140  0.96400  0.60000  1.0000 0.109845873
H   H39       1.0  0.95980  0.90280  0.08300  1.0000 0.1198241249
H   H40       1.0  0.38680  0.75800  0.68080  1.0000 0.1302625408
H   H41       1.0  0.88980  0.56270  0.37720  1.0000 0.109845873
H   H42       1.0  0.39060  0.79360  0.87360  1.0000 0.1302625408
H   H43       1.0  0.56490  0.68880  0.12230  1.0000 0.1302625408
H   H44       1.0  0.89100  0.77400  0.48100  1.0000 0.3587459521
H   H45       1.0  0.19290  0.74390  0.18440  1.0000 0.109845873
H   H46       1.0  0.56920  0.75310  0.87290  1.0000 0.1302625408
H   H47       1.0  0.05060  0.62590  0.81880  1.0000 0.1011379144
H   H48       1.0  0.76810  0.78570  0.17710  1.0000 0.109845873
H   H49       1.0  0.90640  0.61860  0.14840  1.0000 0.109845873
H   H50       1.0  0.56410  0.79540  0.68380  1.0000 0.1373204412
H   H51       1.0  0.76050  0.69250  0.62130  1.0000 0.1011379144
H   H52       1.0  0.93040  0.53770  0.19240  1.0000 0.1302625408
H   H53       1.0  0.07990  0.48930  0.03030  1.0000 0.1302625408
H   H54       1.0  0.06580  0.57410  0.98960  1.0000 0.109845873
H   H55       1.0  0.87750  0.81910  0.57270  1.0000 0.1011379144
H   H56       1.0  0.76430  0.79070  0.68530  1.0000 0.109845873
H   H57       1.0  0.00130  0.82790  0.40650  1.0000 0.109845873
H   H58       1.0  0.39510  0.79600  0.36980  1.0000 0.1373204412
H   H59       1.0  0.39220  0.74830  0.18230  1.0000 0.1302625408
H   H60       1.0  0.17650  0.66530  0.61370  1.0000 0.109845873
H   H61       1.0  0.57770  0.76620  0.37220  1.0000 0.1198241249
H   H62       1.0  0.38220  0.70270  0.42790  1.0000 0.1302625408
H   H63       1.0  0.07850  0.03890  0.30820  1.0000 0.1302625408
H   H64       1.0  0.19540  0.78840  0.36820  1.0000 0.1011379144
H   H65       1.0  0.17880  0.70350  0.42780  1.0000 0.109845873
H   H66       1.0  0.87910  0.81690  0.07130  1.0000 0.1011379144
H   H67       1.0  0.78030  0.76540  0.36810  1.0000 0.109845873
H   H68       1.0  0.75860  0.66340  0.43300  1.0000 0.1011379144
H   H69       1.0  0.09110  0.12130  0.35310  1.0000 0.109845873
H   H70       1.0  0.95630  0.46220  0.23330  1.0000 0.1302625408
H   H71       1.0  0.18330  0.75280  0.68360  1.0000 0.1011379144
H   H72       1.0  0.02030  0.62330  0.31630  1.0000 0.0896052365
H   H73       1.0  0.97190  0.88160  0.22680  1.0000 0.109845873
H   H74       1.0  0.93940  0.07520  0.51380  1.0000 0.109845873
H   H75       1.0  0.37600  0.66440  0.61990  1.0000 0.1302625408
H   H76       1.0  0.55650  0.66650  0.42930  1.0000 0.1302625408
H   H77       1.0  0.94100  0.18400  0.26000  1.0000 0.3526914911
H   H78       1.0  0.82400  0.29320  0.47460  1.0000 0.109845873
H   H79       1.0  0.39360  0.10600  0.24830  1.0000 0.1198241249
H   H80       1.0  0.81770  0.19810  0.07050  1.0000 0.109845873
H   H81       1.0  0.43300  0.28610  0.82380  1.0000 0.1302625408
H   H82       1.0  0.29850  0.02580  0.61910  1.0000 0.109845873
H   H83       1.0  0.61760  0.15590  0.88050  1.0000 0.1302625408
H   H84       1.0  0.07380  0.48950  0.52670  1.0000 0.1302625408
H   H85       1.0  0.88820  0.46380  0.94120  1.0000 0.109845873
H   H86       1.0  0.98990  0.41230  0.55090  1.0000 0.1198241249
H   H87       1.0  0.82640  0.28650  0.98070  1.0000 0.109845873
H   H88       1.0  0.71240  0.43570  0.98230  1.0000 0.1198241249
H   H89       1.0  0.03830  0.40090  0.39200  1.0000 0.1198241249
H   H90       1.0  0.44140  0.15790  0.07100  1.0000 0.1302625408
H   H91       1.0  0.01930  0.46730  0.73530  1.0000 0.1302625408
H   H92       1.0  0.81250  0.28690  0.12800  1.0000 0.109845873
H   H93       1.0  0.61580  0.19480  0.07310  1.0000 0.1302625408
H   H94       1.0  0.37940  0.02050  0.20610  1.0000 0.1198241249
H   H95       1.0  0.94490  0.91160  0.94290  1.0000 0.1198241249
H   H96       1.0  0.24250  0.17040  0.75320  1.0000 0.109845873
H   H97       1.0  0.71090  0.43830  0.44360  1.0000 0.109845873
H   H98       1.0  0.94800  0.18200  0.74700  1.0000 0.333990653
H   H99       1.0  0.45170  0.06010  0.67940  1.0000 0.1198241249
H   H100      1.0  0.23160  0.16150  0.24140  1.0000 0.109845873
H   H101      1.0  0.11600  0.26800  0.01700  1.0000 0.3587459521
H   H102      1.0  0.03200  0.87620  0.73230  1.0000 0.109845873
H   H103      1.0  0.67180  0.35440  0.47410  1.0000 0.1302625408
H   H104      1.0  0.20710  0.99330  0.15770  1.0000 0.109845873
H   H105      1.0  0.43990  0.19580  0.37780  1.0000 0.1302625408
H   H106      1.0  0.23370  0.19170  0.88140  1.0000 0.1011379144
H   H107      1.0  0.43010  0.13670  0.73780  1.0000 0.1198241249
H   H108      1.0  0.23200  0.24770  0.13220  1.0000 0.1011379144
H   H109      1.0  0.04770  0.04990  0.14440  1.0000 0.1198241249
H   H110      1.0  0.23830  0.15280  0.06680  1.0000 0.1011379144
H   H111      1.0  0.67880  0.34920  0.99350  1.0000 0.1198241249
H   H112      1.0  0.82000  0.15990  0.88500  1.0000 0.109845873
H   H113      1.0  0.91950  0.82960  0.89670  1.0000 0.109845873
H   H114      1.0  0.88860  0.46400  0.40000  1.0000 0.109845873
H   H115      1.0  0.04020  0.40280  0.91700  1.0000 0.1198241249
H   H116      1.0  0.61320  0.25800  0.31920  1.0000 0.1302625408
H   H117      1.0  0.11020  0.06270  0.62280  1.0000 0.109845873
H   H118      1.0  0.60940  0.29360  0.12640  1.0000 0.1302625408
H   H119      1.0  0.43510  0.18880  0.87770  1.0000 0.1302625408
H   H120      1.0  0.10900  0.27400  0.51900  1.0000 0.3587459521
H   H121      1.0  0.80710  0.24390  0.81560  1.0000 0.109845873
H   H122      1.0  0.43080  0.25310  0.12710  1.0000 0.1302625408
H   H123      1.0  0.94940  0.12590  0.18120  1.0000 0.1011379144
H   H124      1.0  0.23190  0.28570  0.82290  1.0000 0.109845873
H   H125      1.0  0.09360  0.11860  0.85160  1.0000 0.109845873
H   H126      1.0  0.43590  0.29540  0.31620  1.0000 0.1373204412
H   H127      1.0  0.23950  0.19250  0.37870  1.0000 0.1011379144
H   H128      1.0  0.06960  0.03770  0.80760  1.0000 0.1302625408
H   H129      1.0  0.92010  0.98930  0.96970  1.0000 0.1302625408
H   H130      1.0  0.93420  0.07410  0.01040  1.0000 0.109845873
H   H131      1.0  0.12250  0.31910  0.42730  1.0000 0.1011379144
H   H132      1.0  0.23570  0.29070  0.31470  1.0000 0.109845873
H   H133      1.0  0.99870  0.32790  0.59350  1.0000 0.109845873
H   H134      1.0  0.60490  0.29600  0.63020  1.0000 0.1373204412
H   H135      1.0  0.60780  0.24830  0.81770  1.0000 0.1302625408
H   H136      1.0  0.82350  0.16530  0.38630  1.0000 0.109845873
H   H137      1.0  0.42230  0.26620  0.62780  1.0000 0.1198241249
H   H138      1.0  0.61780  0.20270  0.57210  1.0000 0.1302625408
H   H139      1.0  0.92150  0.53890  0.69180  1.0000 0.1302625408
H   H140      1.0  0.80460  0.28840  0.63180  1.0000 0.1011379144
H   H141      1.0  0.82120  0.20350  0.57220  1.0000 0.109845873
H   H142      1.0  0.12090  0.31690  0.92870  1.0000 0.1011379144
H   H143      1.0  0.21970  0.26540  0.63190  1.0000 0.109845873
H   H144      1.0  0.24140  0.16340  0.56700  1.0000 0.1011379144
H   H145      1.0  0.90890  0.62130  0.64690  1.0000 0.109845873
H   H146      1.0  0.04370  0.96220  0.76670  1.0000 0.1302625408
H   H147      1.0  0.81670  0.25280  0.31640  1.0000 0.1011379144
H   H148      1.0  0.97970  0.12330  0.68370  1.0000 0.0896052365
H   H149      1.0  0.02810  0.38160  0.77320  1.0000 0.109845873
H   H150      1.0  0.06060  0.57520  0.48620  1.0000 0.109845873
H   H151      1.0  0.62400  0.16440  0.38010  1.0000 0.1302625408
H   H152      1.0  0.44350  0.16650  0.57070  1.0000 0.1302625408
C   C1        1.0  0.16230  0.82780  0.54110  1.0000 -0.1407409413
C   C2        1.0  0.67690  0.59420  0.77220  1.0000 -0.0811923556
C   C3        1.0  0.97510  0.68260  0.87610  1.0000 0.5698976414
C   C4        1.0  0.22400  0.69010  0.96870  1.0000 0.0896052365
C   C5        1.0  0.60870  0.78100  0.21620  1.0000 -0.1730788677
C   C6        1.0  0.71450  0.55600  0.35470  1.0000 -0.1010600552
C   C7        1.0  0.34370  0.66500  0.07980  1.0000 -0.1900321911
C   C8        1.0  0.05150  0.83810  0.05580  1.0000 0.0808463641
C   C9        1.0  0.96130  0.01620  0.44770  1.0000 -0.1900321911
C   C10       1.0  0.12400  0.92730  0.05170  1.0000 -0.1069351687
C   C11       1.0  0.00270  0.90710  0.40340  1.0000 -0.1797117539
C   C12       1.0  0.15960  0.82230  0.02990  1.0000 -0.1200420885
C   C13       1.0  0.84220  0.62370  0.31400  1.0000 0.0703346045
C   C14       1.0  0.05250  0.84020  0.56420  1.0000 0.0808463641
C   C15       1.0  0.22800  0.91100  0.02810  1.0000 -0.1010600552
C   C16       1.0  0.87560  0.61300  0.80960  1.0000 0.0703346045
C   C17       1.0  0.03430  0.89190  0.58910  1.0000 -0.1605554177
C   C18       1.0  0.40880  0.67560  0.02400  1.0000 0.109845873
C   C19       1.0  0.59920  0.66380  0.96910  1.0000 -0.1797117539
C   C20       1.0  0.98520  0.93890  0.29470  1.0000 -0.1900321911
C   C21       1.0  0.41080  0.77410  0.77810  1.0000 0.1198241249
C   C22       1.0  0.22850  0.78140  0.83270  1.0000 0.0808463641
C   C23       1.0  0.34490  0.68800  0.96640  1.0000 -0.1730788677
C   C24       1.0  0.68530  0.54390  0.79720  1.0000 -0.1010600552
C   C25       1.0  0.04150  0.40650  0.10220  1.0000 -0.1797117539
C   C26       1.0  0.74620  0.64240  0.27680  1.0000 -0.1499873465
C   C27       1.0  0.22900  0.91280  0.56000  1.0000 -0.1069351687
C   C28       1.0  0.62260  0.57680  0.31950  1.0000 -0.0935563176
C   C29       1.0  0.77320  0.62750  0.77760  1.0000 -0.1407409413
C   C30       1.0  0.53640  0.67370  0.02560  1.0000 0.109845873
C   C31       1.0  0.98900  0.38350  0.22410  1.0000 0.0808463641
C   C32       1.0  0.25200  0.86390  0.54010  1.0000 -0.0811923556
C   C33       1.0  0.78690  0.52830  0.82640  1.0000 -0.1069351687
C   C34       1.0  0.54020  0.77340  0.77710  1.0000 0.109845873
C   C35       1.0  0.59860  0.68930  0.58230  1.0000 -0.1730788677
C   C36       1.0  0.72350  0.68410  0.07960  1.0000 0.0896052365
C   C37       1.0  0.63580  0.62080  0.28310  1.0000 -0.0811923556
C   C38       1.0  0.72560  0.75770  0.82950  1.0000 0.0896052365
C   C39       1.0  0.88290  0.56170  0.83400  1.0000 -0.1499873465
C   C40       1.0  0.72090  0.66260  0.97130  1.0000 0.0808463641
C   C41       1.0  0.24600  0.86050  0.01990  1.0000 -0.0811923556
C   C42       1.0  0.22240  0.66800  0.07680  1.0000 0.0808463641
C   C43       1.0  0.05080  0.35690  0.13010  1.0000 0.0808463641
C   C44       1.0  0.12300  0.92890  0.58550  1.0000 -0.1010600552
C   C45       1.0  0.40460  0.68270  0.52390  1.0000 0.109845873
C   C46       1.0  0.03220  0.89080  0.06640  1.0000 -0.1605554177
C   C47       1.0  0.41740  0.77160  0.27610  1.0000 0.1198241249
C   C48       1.0  0.34730  0.76360  0.72060  1.0000 -0.1730788677
C   C49       1.0  0.82640  0.57780  0.35320  1.0000 -0.1605554177
C   C50       1.0  0.35000  0.78450  0.83440  1.0000 -0.1730788677
C   C51       1.0  0.60280  0.68310  0.08210  1.0000 -0.1797117539
C   C52       1.0  0.23420  0.75470  0.22270  1.0000 0.0896052365
C   C53       1.0  0.60690  0.76020  0.83290  1.0000 -0.1797117539
C   C54       1.0  0.97860  0.64830  0.81570  1.0000 -0.0204151278
C   C55       1.0  0.72860  0.78090  0.21710  1.0000 0.0703346045
C   C56       1.0  0.94450  0.59220  0.12380  1.0000 0.1011379144
C   C57       1.0  0.60390  0.78510  0.72280  1.0000 -0.1797117539
C   C58       1.0  0.53310  0.68140  0.52590  1.0000 0.109845873
C   C59       1.0  0.71860  0.68770  0.58130  1.0000 0.0808463641
C   C60       1.0  0.99650  0.94900  0.36160  1.0000 0.109845873
C   C61       1.0  0.95630  0.54360  0.14920  1.0000 -0.1797117539
C   C62       1.0  0.04420  0.51560  0.05610  1.0000 -0.1900321911
C   C63       1.0  0.98000  0.76360  0.12580  1.0000 0.5561266439
C   C64       1.0  0.97000  0.68590  0.37580  1.0000 0.5698976414
C   C65       1.0  0.54830  0.77370  0.27270  1.0000 0.1011379144
C   C66       1.0  0.03520  0.56640  0.03140  1.0000 0.0896052365
C   C67       1.0  0.95350  0.80000  0.56870  1.0000 -0.0031564615
C   C68       1.0  0.72350  0.78230  0.72390  1.0000 0.0703346045
C   C69       1.0  0.01200  0.44800  0.14170  1.0000 0.109845873
C   C70       1.0  0.97080  0.76390  0.62850  1.0000 0.5512057738
C   C71       1.0  0.99780  0.85680  0.37720  1.0000 0.0896052365
C   C72       1.0  0.35530  0.78460  0.33120  1.0000 -0.1730788677
C   C73       1.0  0.35290  0.75690  0.22130  1.0000 -0.1797117539
C   C74       1.0  0.21880  0.67360  0.57560  1.0000 0.0896052365
C   C75       1.0  0.61540  0.76920  0.33150  1.0000 -0.1797117539
C   C76       1.0  0.34190  0.69490  0.46690  1.0000 -0.1730788677
C   C77       1.0  0.00400  0.50230  0.11560  1.0000 0.1198241249
C   C78       1.0  0.05090  0.04480  0.35100  1.0000 -0.1797117539
C   C79       1.0  0.23640  0.78090  0.32940  1.0000 0.0703346045
C   C80       1.0  0.22010  0.69570  0.46720  1.0000 0.0808463641
C   C81       1.0  0.95520  0.79810  0.06580  1.0000 -0.0077507955
C   C82       1.0  0.73620  0.76910  0.32860  1.0000 0.0896052365
C   C83       1.0  0.71780  0.67090  0.47190  1.0000 0.0896052365
C   C84       1.0  0.00440  0.00380  0.38690  1.0000 0.1198241249
C   C85       1.0  0.05660  0.09410  0.37810  1.0000 0.1011379144
C   C86       1.0  0.98200  0.43570  0.20420  1.0000 -0.1900321911
C   C87       1.0  0.22570  0.76140  0.72250  1.0000 0.0896052365
C   C88       1.0  0.95720  0.65050  0.31470  1.0000 -0.0204151278
C   C89       1.0  0.98070  0.88770  0.27230  1.0000 0.0808463641
C   C90       1.0  0.96900  0.06760  0.47180  1.0000 0.0896052365
C   C91       1.0  0.33790  0.67230  0.57960  1.0000 -0.1900321911
C   C92       1.0  0.59670  0.67210  0.46960  1.0000 -0.1797117539
C   C93       1.0  0.83770  0.32780  0.45890  1.0000 -0.1407409413
C   C94       1.0  0.32310  0.09420  0.22780  1.0000 -0.0811923556
C   C95       1.0  0.02490  0.18260  0.12390  1.0000 0.5698976414
C   C96       1.0  0.77600  0.19010  0.03130  1.0000 0.0896052365
C   C97       1.0  0.39130  0.28100  0.78380  1.0000 -0.1730788677
C   C98       1.0  0.28550  0.05600  0.64530  1.0000 -0.1010600552
C   C99       1.0  0.65630  0.16500  0.92020  1.0000 -0.1900321911
C   C100      1.0  0.94850  0.33810  0.94420  1.0000 0.0808463641
C   C101      1.0  0.03870  0.51620  0.55230  1.0000 -0.1900321911
C   C102      1.0  0.87600  0.42730  0.94830  1.0000 -0.1069351687
C   C103      1.0  0.99730  0.40710  0.59660  1.0000 -0.1797117539
C   C104      1.0  0.84040  0.32230  0.97010  1.0000 -0.1200420885
C   C105      1.0  0.15780  0.12370  0.68600  1.0000 0.0703346045
C   C106      1.0  0.94750  0.34020  0.43580  1.0000 0.0808463641
C   C107      1.0  0.77200  0.41100  0.97190  1.0000 -0.1010600552
C   C108      1.0  0.12440  0.11300  0.19040  1.0000 0.0703346045
C   C109      1.0  0.96570  0.39190  0.41090  1.0000 -0.1605554177
C   C110      1.0  0.59120  0.17560  0.97600  1.0000 0.109845873
C   C111      1.0  0.40080  0.16380  0.03090  1.0000 -0.1797117539
C   C112      1.0  0.01480  0.43890  0.70530  1.0000 -0.1900321911
C   C113      1.0  0.58920  0.27410  0.22190  1.0000 0.1198241249
C   C114      1.0  0.77150  0.28140  0.16730  1.0000 0.0808463641
C   C115      1.0  0.65510  0.18800  0.03360  1.0000 -0.1730788677
C   C116      1.0  0.31470  0.04390  0.20280  1.0000 -0.1010600552
C   C117      1.0  0.95850  0.90650  0.89780  1.0000 -0.1797117539
C   C118      1.0  0.25380  0.14240  0.72320  1.0000 -0.1499873465
C   C119      1.0  0.77100  0.41280  0.44000  1.0000 -0.1069351687
C   C120      1.0  0.37740  0.07680  0.68050  1.0000 -0.0935563176
C   C121      1.0  0.22680  0.12750  0.22240  1.0000 -0.1407409413
C   C122      1.0  0.46360  0.17370  0.97440  1.0000 0.109845873
C   C123      1.0  0.01100  0.88350  0.77590  1.0000 0.0808463641
C   C124      1.0  0.74800  0.36390  0.45990  1.0000 -0.0811923556
C   C125      1.0  0.21310  0.02830  0.17360  1.0000 -0.1069351687
C   C126      1.0  0.45980  0.27340  0.22290  1.0000 0.109845873
C   C127      1.0  0.40140  0.18930  0.41770  1.0000 -0.1730788677
C   C128      1.0  0.27650  0.18410  0.92040  1.0000 0.0896052365
C   C129      1.0  0.36420  0.12080  0.71690  1.0000 -0.0811923556
C   C130      1.0  0.27440  0.25770  0.17050  1.0000 0.0896052365
C   C131      1.0  0.11710  0.06170  0.16600  1.0000 -0.1499873465
C   C132      1.0  0.27910  0.16260  0.02870  1.0000 0.0808463641
C   C133      1.0  0.75400  0.36050  0.98010  1.0000 -0.0811923556
C   C134      1.0  0.77760  0.16800  0.92320  1.0000 0.0808463641
C   C135      1.0  0.94920  0.85690  0.86990  1.0000 0.0896052365
C   C136      1.0  0.87700  0.42890  0.41450  1.0000 -0.1010600552
C   C137      1.0  0.59540  0.18270  0.47610  1.0000 0.109845873
C   C138      1.0  0.96780  0.39080  0.93360  1.0000 -0.1605554177
C   C139      1.0  0.58260  0.27160  0.72390  1.0000 0.1198241249
C   C140      1.0  0.65270  0.26360  0.27940  1.0000 -0.1730788677
C   C141      1.0  0.17360  0.07780  0.64680  1.0000 -0.1605554177
C   C142      1.0  0.65000  0.28450  0.16560  1.0000 -0.1730788677
C   C143      1.0  0.39720  0.18310  0.91790  1.0000 -0.1797117539
C   C144      1.0  0.76580  0.25470  0.77730  1.0000 0.0896052365
C   C145      1.0  0.39310  0.26020  0.16710  1.0000 -0.1797117539
C   C146      1.0  0.02140  0.14830  0.18430  1.0000 -0.0204151278
C   C147      1.0  0.27140  0.28090  0.78290  1.0000 0.0703346045
C   C148      1.0  0.05550  0.09220  0.87620  1.0000 0.1011379144
C   C149      1.0  0.39610  0.28510  0.27720  1.0000 -0.1797117539
C   C150      1.0  0.46690  0.18140  0.47410  1.0000 0.109845873
C   C151      1.0  0.28140  0.18770  0.41870  1.0000 0.0808463641
C   C152      1.0  0.00350  0.44900  0.63840  1.0000 0.109845873
C   C153      1.0  0.04370  0.04360  0.85080  1.0000 -0.1797117539
C   C154      1.0  0.95580  0.01560  0.94390  1.0000 -0.1900321911
C   C155      1.0  0.02000  0.26360  0.87420  1.0000 0.5561266439
C   C156      1.0  0.03000  0.18590  0.62420  1.0000 0.5698976414
C   C157      1.0  0.45170  0.27370  0.72730  1.0000 0.1011379144
C   C158      1.0  0.96480  0.06640  0.96860  1.0000 0.0896052365
C   C159      1.0  0.04650  0.30000  0.43130  1.0000 -0.0031564615
C   C160      1.0  0.27650  0.28230  0.27610  1.0000 0.0703346045
C   C161      1.0  0.98800  0.94800  0.85830  1.0000 0.109845873
C   C162      1.0  0.02920  0.26390  0.37150  1.0000 0.5512057738
C   C163      1.0  0.00220  0.35680  0.62280  1.0000 0.0896052365
C   C164      1.0  0.64470  0.28460  0.66880  1.0000 -0.1730788677
C   C165      1.0  0.64710  0.25690  0.77870  1.0000 -0.1797117539
C   C166      1.0  0.78120  0.17360  0.42440  1.0000 0.0896052365
C   C167      1.0  0.38460  0.26920  0.66850  1.0000 -0.1797117539
C   C168      1.0  0.65810  0.19490  0.53310  1.0000 -0.1730788677
C   C169      1.0  0.99600  0.00230  0.88440  1.0000 0.1198241249
C   C170      1.0  0.94910  0.54480  0.64900  1.0000 -0.1797117539
C   C171      1.0  0.76360  0.28090  0.67060  1.0000 0.0703346045
C   C172      1.0  0.77990  0.19570  0.53280  1.0000 0.0808463641
C   C173      1.0  0.04480  0.29810  0.93420  1.0000 -0.0077507955
C   C174      1.0  0.26380  0.26910  0.67140  1.0000 0.0896052365
C   C175      1.0  0.28220  0.17090  0.52810  1.0000 0.0896052365
C   C176      1.0  0.99560  0.50380  0.61310  1.0000 0.1198241249
C   C177      1.0  0.94340  0.59410  0.62190  1.0000 0.1011379144
C   C178      1.0  0.01800  0.93570  0.79580  1.0000 -0.1900321911
C   C179      1.0  0.77430  0.26140  0.27750  1.0000 0.0896052365
C   C180      1.0  0.04280  0.15050  0.68530  1.0000 -0.0204151278
C   C181      1.0  0.01930  0.38770  0.72770  1.0000 0.0808463641
C   C182      1.0  0.03100  0.56760  0.52820  1.0000 0.0896052365
C   C183      1.0  0.66210  0.17230  0.42040  1.0000 -0.1900321911
C   C184      1.0  0.40330  0.17210  0.53040  1.0000 -0.1797117539
C   C185      1.0  0.36570  0.38950  0.01520  1.0000 0.5194625453
C   C186      1.0  0.28000  0.55250  0.76490  1.0000 0.4971594112
C   C187      1.0  0.76430  0.04410  0.72040  1.0000 0.5097262607
C   C188      1.0  0.31600  0.39820  0.50510  1.0000 0.5097262607
C   C189      1.0  0.63430  0.88950  0.98480  1.0000 0.5194625453
C   C190      1.0  0.72000  0.05250  0.23510  1.0000 0.4971594112
C   C191      1.0  0.23570  0.54410  0.27960  1.0000 0.5097262607
C   C192      1.0  0.68400  0.89820  0.49490  1.0000 0.5097262607
S   S1        1.0  0.36520  0.31800  0.99533  1.0000 0.9915200548
S   S2        1.0  0.29030  0.62391  0.75946  1.0000 0.9915200548
S   S3        1.0  0.73810  0.11461  0.73834  1.0000 0.9915200548
S   S4        1.0  0.36150  0.32523  0.49499  1.0000 1.0248739914
S   S5        1.0  0.63480  0.81800  0.00467  1.0000 0.9954439001
S   S6        1.0  0.70970  0.12391  0.24054  1.0000 0.9915200548
S   S7        1.0  0.26190  0.61461  0.26166  1.0000 0.9915200548
S   S8        1.0  0.63850  0.82523  0.50501  1.0000 1.0248739914
N   N1        1.0  0.78290  0.67500  0.02560  1.0000 -0.2411833564
N   N2        1.0  0.16150  0.68180  0.02240  1.0000 -0.2595710336
N   N3        1.0  0.02280  0.34400  0.18930  1.0000 -0.2244843944
N   N4        1.0  0.98460  0.60430  0.06520  1.0000 -0.2411833564
N   N5        1.0  0.17280  0.76710  0.27540  1.0000 -0.2488853453
N   N6        1.0  0.16580  0.77100  0.77720  1.0000 -0.2595710336
N   N7        1.0  0.15790  0.68570  0.52180  1.0000 -0.2488853453
N   N8        1.0  0.98860  0.84620  0.31320  1.0000 -0.2411833564
N   N9        1.0  0.79370  0.77420  0.27260  1.0000 -0.2488853453
N   N10       1.0  0.78010  0.67990  0.52720  1.0000 -0.2488853453
N   N11       1.0  0.01720  0.10650  0.43690  1.0000 -0.2488853453
N   N12       1.0  0.78580  0.76810  0.77700  1.0000 -0.2411833564
N   N13       1.0  0.21710  0.17500  0.97440  1.0000 -0.2411833564
N   N14       1.0  0.83850  0.18180  0.97760  1.0000 -0.2595710336
N   N15       1.0  0.97720  0.84400  0.81070  1.0000 -0.2244843944
N   N16       1.0  0.01540  0.10430  0.93480  1.0000 -0.2411833564
N   N17       1.0  0.82720  0.26710  0.72460  1.0000 -0.2488853453
N   N18       1.0  0.83420  0.27100  0.22280  1.0000 -0.2595710336
N   N19       1.0  0.84210  0.18570  0.47820  1.0000 -0.2488853453
N   N20       1.0  0.01140  0.34620  0.68680  1.0000 -0.2411833564
N   N21       1.0  0.20630  0.27420  0.72740  1.0000 -0.2488853453
N   N22       1.0  0.21990  0.17990  0.47280  1.0000 -0.2488853453
N   N23       1.0  0.98280  0.60650  0.56310  1.0000 -0.2488853453
N   N24       1.0  0.21420  0.26810  0.22300  1.0000 -0.2411833564
O   O1        1.0  0.98880  0.68220  0.75900  1.0000 -0.4912849768
O   O2        1.0  0.97000  0.65870  0.92940  1.0000 -0.5492683179
O   O3        1.0  0.97680  0.78800  0.68190  1.0000 -0.5492683179
O   O4        1.0  0.98270  0.73540  0.36860  1.0000 -0.5592780406
O   O5        1.0  0.98640  0.71540  0.12040  1.0000 -0.5167857064
O   O6        1.0  0.98070  0.71620  0.61980  1.0000 -0.5167857064
O   O7        1.0  0.97690  0.73260  0.87020  1.0000 -0.5492683179
O   O8        1.0  0.97390  0.68310  0.25770  1.0000 -0.4791226192
O   O9        1.0  0.98720  0.78960  0.17910  1.0000 -0.5592780406
O   O10       1.0  0.94690  0.76460  0.00930  1.0000 -0.4958196683
O   O11       1.0  0.95000  0.76920  0.51020  1.0000 -0.4958196683
O   O12       1.0  0.96730  0.66280  0.43000  1.0000 -0.5492683179
O   O13       1.0  0.01120  0.18220  0.24100  1.0000 -0.4912849768
O   O14       1.0  0.03000  0.15870  0.07060  1.0000 -0.5492683179
O   O15       1.0  0.02320  0.28800  0.31810  1.0000 -0.5492683179
O   O16       1.0  0.01730  0.23540  0.63140  1.0000 -0.5592780406
O   O17       1.0  0.01360  0.21540  0.87960  1.0000 -0.5167857064
O   O18       1.0  0.01930  0.21620  0.38020  1.0000 -0.5167857064
O   O19       1.0  0.02310  0.23260  0.12980  1.0000 -0.5492683179
O   O20       1.0  0.02610  0.18310  0.74230  1.0000 -0.4791226192
O   O21       1.0  0.01280  0.28960  0.82090  1.0000 -0.5592780406
O   O22       1.0  0.05310  0.26460  0.99070  1.0000 -0.4958196683
O   O23       1.0  0.05000  0.26920  0.48980  1.0000 -0.4958196683
O   O24       1.0  0.03270  0.16280  0.57000  1.0000 -0.5492683179
O   O25       1.0  0.47600  0.29960  0.01900  1.0000 -0.5396484537
O   O26       1.0  0.26540  0.29880  0.03090  1.0000 -0.5592780406
O   O27       1.0  0.34810  0.31660  0.92650  1.0000 -0.5293992414
O   O28       1.0  0.28040  0.64030  0.82500  1.0000 -0.5396484537
O   O29       1.0  0.40070  0.63400  0.73070  1.0000 -0.5492683179
O   O30       1.0  0.18870  0.63610  0.71960  1.0000 -0.5592780406
O   O31       1.0  0.83950  0.12640  0.78080  1.0000 -0.5592780406
O   O32       1.0  0.74030  0.13880  0.67400  1.0000 -0.5592780406
O   O33       1.0  0.62830  0.11420  0.77030  1.0000 -0.5396484537
O   O34       1.0  0.47250  0.31960  0.52810  1.0000 -0.5396484537
O   O35       1.0  0.26630  0.29960  0.52800  1.0000 -0.5492683179
O   O36       1.0  0.35840  0.31940  0.42660  1.0000 -0.5293992414
O   O37       1.0  0.52400  0.79960  0.98100  1.0000 -0.5396484537
O   O38       1.0  0.73460  0.79880  0.96910  1.0000 -0.5592780406
O   O39       1.0  0.65190  0.81660  0.07350  1.0000 -0.5293992414
O   O40       1.0  0.71960  0.14030  0.17500  1.0000 -0.5396484537
O   O41       1.0  0.59930  0.13400  0.26930  1.0000 -0.5492683179
O   O42       1.0  0.81130  0.13610  0.28040  1.0000 -0.5592780406
O   O43       1.0  0.16050  0.62640  0.21920  1.0000 -0.5592780406
O   O44       1.0  0.25970  0.63880  0.32600  1.0000 -0.5492683179
O   O45       1.0  0.37170  0.61420  0.22970  1.0000 -0.5396484537
O   O46       1.0  0.52750  0.81960  0.47190  1.0000 -0.5396484537
O   O47       1.0  0.73370  0.79960  0.47200  1.0000 -0.5492683179
O   O48       1.0  0.64160  0.81940  0.57340  1.0000 -0.5293992414
F   F1        1.0  0.26960  0.41100  0.99160  1.0000 -0.2000393443
F   F2        1.0  0.45980  0.41080  0.98760  1.0000 -0.2107577128
F   F3        1.0  0.37020  0.39480  0.07940  1.0000 -0.1900321911
F   F4        1.0  0.18130  0.53790  0.79230  1.0000 -0.2000393443
F   F5        1.0  0.28190  0.53120  0.70600  1.0000 -0.1797117539
F   F6        1.0  0.37150  0.53270  0.79830  1.0000 -0.2000393443
F   F7        1.0  0.86540  0.03810  0.69040  1.0000 -0.2000393443
F   F8        1.0  0.68000  0.02700  0.67850  1.0000 -0.2000393443
F   F9        1.0  0.76430  0.01750  0.77520  1.0000 -0.1900321911
F   F10       1.0  0.40990  0.42380  0.48110  1.0000 -0.2000393443
F   F11       1.0  0.31420  0.40520  0.56830  1.0000 -0.1900321911
F   F12       1.0  0.22160  0.40550  0.47400  1.0000 -0.2000393443
F   F13       1.0  0.73040  0.91100  0.00840  1.0000 -0.2000393443
F   F14       1.0  0.54020  0.91080  0.01240  1.0000 -0.2107577128
F   F15       1.0  0.62980  0.89480  0.92060  1.0000 -0.1900321911
F   F16       1.0  0.81870  0.03790  0.20770  1.0000 -0.2000393443
F   F17       1.0  0.71810  0.03120  0.29400  1.0000 -0.1797117539
F   F18       1.0  0.62850  0.03270  0.20170  1.0000 -0.1900321911
F   F19       1.0  0.13460  0.53810  0.30960  1.0000 -0.2000393443
F   F20       1.0  0.32000  0.52700  0.32150  1.0000 -0.2000393443
F   F21       1.0  0.23570  0.51750  0.22480  1.0000 -0.1900321911
F   F22       1.0  0.59010  0.92380  0.51890  1.0000 -0.2000393443
F   F23       1.0  0.68580  0.90520  0.43170  1.0000 -0.1797117539
F   F24       1.0  0.77840  0.90550  0.52600  1.0000 -0.2000393443
