# DDEC6 charges by PACMAN v1.1 (https://github.com/mtap-research/PACMAN-charge/)
data_2017[Ag][srs]3[ION]28
_chemical_formula_sum              "Ag6 H120 C144 N40 Cl6 O24"
_cell_length_a       18.4647
_cell_length_b       18.4647
_cell_length_c       18.4647
_cell_angle_alpha    109.471
_cell_angle_beta     109.471
_cell_angle_gamma    109.471

_symmetry_space_group_name_H-M    "P 1"
_symmetry_Int_Tables_number       1

loop_
  _symmetry_equiv_pos_as_xyz
  'x, y, z'

loop_
  _atom_site_type_symbol
  _atom_site_label
  _atom_site_symmetry_multiplicity
  _atom_site_fract_x
  _atom_site_fract_y
  _atom_site_fract_z
  _atom_site_occupancy
  _atom_site_charge
Ag  Ag1       1.0  0.04224  0.75000  0.79224  1.0000 0.2639182736
Ag  Ag2       1.0  0.45776  0.25000  0.70776  1.0000 0.2639182736
Ag  Ag3       1.0  0.79224  0.04224  0.75000  1.0000 0.2639182736
Ag  Ag4       1.0  0.70776  0.45776  0.25000  1.0000 0.2639182736
Ag  Ag5       1.0  0.75000  0.79224  0.04224  1.0000 0.2639182736
Ag  Ag6       1.0  0.25000  0.70776  0.45776  1.0000 0.2639182736
H   H1        1.0  0.96580  0.54540  0.89760  1.0000 0.1238488336
H   H2        1.0  0.01240  0.68020  0.90120  1.0000 0.1029124001
H   H3        1.0  0.24930  0.78150  0.11200  1.0000 0.1267988463
H   H4        1.0  0.20690  0.64710  0.10540  1.0000 0.1267988463
H   H5        1.0  0.21870  0.88110  0.06620  1.0000 0.1115601664
H   H6        1.0  0.20270  0.08680  0.99010  1.0000 0.1562403222
H   H7        1.0  0.16730  0.12200  0.87990  1.0000 0.1115601664
H   H8        1.0  0.08570  0.00780  0.72770  1.0000 0.1267988463
H   H9        1.0  0.04010  0.86460  0.69890  1.0000 0.1029124001
H   H10       1.0  0.20350  0.97440  0.02450  1.0000 0.281689468
H   H11       1.0  0.14780  0.06820  0.60240  1.0000 0.1238488336
H   H12       1.0  0.27900  0.11120  0.59880  1.0000 0.1029124001
H   H13       1.0  0.16950  0.13730  0.38800  1.0000 0.1267988463
H   H14       1.0  0.04170  0.10150  0.39460  1.0000 0.1267988463
H   H15       1.0  0.31490  0.15250  0.43380  1.0000 0.1115601664
H   H16       1.0  0.59670  0.21260  0.50990  1.0000 0.1562403222
H   H17       1.0  0.74210  0.28740  0.62010  1.0000 0.1115601664
H   H18       1.0  0.78010  0.35800  0.77230  1.0000 0.1267988463
H   H19       1.0  0.66570  0.34120  0.80110  1.0000 0.1029124001
H   H20       1.0  0.44990  0.17900  0.47550  1.0000 0.281689468
H   H21       1.0  0.35220  0.95460  0.92040  1.0000 0.1238488336
H   H22       1.0  0.22100  0.81980  0.83220  1.0000 0.1029124001
H   H23       1.0  0.33050  0.71850  0.96780  1.0000 0.1267988463
H   H24       1.0  0.45830  0.85290  0.05980  1.0000 0.1267988463
H   H25       1.0  0.18510  0.61890  0.83760  1.0000 0.1115601664
H   H26       1.0  0.90330  0.41320  0.61590  1.0000 0.1562403222
H   H27       1.0  0.75790  0.37800  0.54530  1.0000 0.1115601664
H   H28       1.0  0.71990  0.49220  0.57790  1.0000 0.1267988463
H   H29       1.0  0.83430  0.63540  0.67550  1.0000 0.1029124001
H   H30       1.0  0.05010  0.52560  0.72910  1.0000 0.281689468
H   H31       1.0  0.53420  0.43180  0.57960  1.0000 0.1238488336
H   H32       1.0  0.48760  0.38880  0.66780  1.0000 0.1029124001
H   H33       1.0  0.25070  0.36270  0.53220  1.0000 0.1267988463
H   H34       1.0  0.29310  0.39850  0.44020  1.0000 0.1267988463
H   H35       1.0  0.28130  0.34750  0.66240  1.0000 0.1115601664
H   H36       1.0  0.29730  0.28740  0.88410  1.0000 0.1562403222
H   H37       1.0  0.33270  0.21260  0.95470  1.0000 0.1115601664
H   H38       1.0  0.41430  0.14200  0.92210  1.0000 0.1267988463
H   H39       1.0  0.45990  0.15880  0.82450  1.0000 0.1029124001
H   H40       1.0  0.29650  0.32100  0.77090  1.0000 0.281689468
H   H41       1.0  0.89760  0.96580  0.54540  1.0000 0.1238488336
H   H42       1.0  0.90120  0.01240  0.68020  1.0000 0.1029124001
H   H43       1.0  0.11200  0.24930  0.78150  1.0000 0.1267988463
H   H44       1.0  0.10540  0.20690  0.64710  1.0000 0.1267988463
H   H45       1.0  0.06620  0.21870  0.88110  1.0000 0.1115601664
H   H46       1.0  0.99010  0.20270  0.08680  1.0000 0.1562403222
H   H47       1.0  0.87990  0.16730  0.12200  1.0000 0.1115601664
H   H48       1.0  0.72770  0.08570  0.00780  1.0000 0.1267988463
H   H49       1.0  0.69890  0.04010  0.86460  1.0000 0.1029124001
H   H50       1.0  0.02450  0.20350  0.97440  1.0000 0.281689468
H   H51       1.0  0.60240  0.14780  0.06820  1.0000 0.1238488336
H   H52       1.0  0.59880  0.27900  0.11120  1.0000 0.1029124001
H   H53       1.0  0.38800  0.16950  0.13730  1.0000 0.1267988463
H   H54       1.0  0.39460  0.04170  0.10150  1.0000 0.1267988463
H   H55       1.0  0.43380  0.31490  0.15250  1.0000 0.1115601664
H   H56       1.0  0.50990  0.59670  0.21260  1.0000 0.1562403222
H   H57       1.0  0.62010  0.74210  0.28740  1.0000 0.1115601664
H   H58       1.0  0.77230  0.78010  0.35800  1.0000 0.1267988463
H   H59       1.0  0.80110  0.66570  0.34120  1.0000 0.1029124001
H   H60       1.0  0.47550  0.44990  0.17900  1.0000 0.281689468
H   H61       1.0  0.92040  0.35220  0.95460  1.0000 0.1238488336
H   H62       1.0  0.83220  0.22100  0.81980  1.0000 0.1029124001
H   H63       1.0  0.96780  0.33050  0.71850  1.0000 0.1267988463
H   H64       1.0  0.05980  0.45830  0.85290  1.0000 0.1267988463
H   H65       1.0  0.83760  0.18510  0.61890  1.0000 0.1115601664
H   H66       1.0  0.61590  0.90330  0.41320  1.0000 0.1562403222
H   H67       1.0  0.54530  0.75790  0.37800  1.0000 0.1115601664
H   H68       1.0  0.57790  0.71990  0.49220  1.0000 0.1267988463
H   H69       1.0  0.67550  0.83430  0.63540  1.0000 0.1029124001
H   H70       1.0  0.72910  0.05010  0.52560  1.0000 0.281689468
H   H71       1.0  0.57960  0.53420  0.43180  1.0000 0.1238488336
H   H72       1.0  0.66780  0.48760  0.38880  1.0000 0.1029124001
H   H73       1.0  0.53220  0.25070  0.36270  1.0000 0.1267988463
H   H74       1.0  0.44020  0.29310  0.39850  1.0000 0.1267988463
H   H75       1.0  0.66240  0.28130  0.34750  1.0000 0.1115601664
H   H76       1.0  0.88410  0.29730  0.28740  1.0000 0.1562403222
H   H77       1.0  0.95470  0.33270  0.21260  1.0000 0.1115601664
H   H78       1.0  0.92210  0.41430  0.14200  1.0000 0.1267988463
H   H79       1.0  0.82450  0.45990  0.15880  1.0000 0.1029124001
H   H80       1.0  0.77090  0.29650  0.32100  1.0000 0.281689468
H   H81       1.0  0.54540  0.89760  0.96580  1.0000 0.1238488336
H   H82       1.0  0.68020  0.90120  0.01240  1.0000 0.1029124001
H   H83       1.0  0.78150  0.11200  0.24930  1.0000 0.1267988463
H   H84       1.0  0.64710  0.10540  0.20690  1.0000 0.1267988463
H   H85       1.0  0.88110  0.06620  0.21870  1.0000 0.1115601664
H   H86       1.0  0.08680  0.99010  0.20270  1.0000 0.1562403222
H   H87       1.0  0.12200  0.87990  0.16730  1.0000 0.1115601664
H   H88       1.0  0.00780  0.72770  0.08570  1.0000 0.1267988463
H   H89       1.0  0.86460  0.69890  0.04010  1.0000 0.1029124001
H   H90       1.0  0.97440  0.02450  0.20350  1.0000 0.281689468
H   H91       1.0  0.06820  0.60240  0.14780  1.0000 0.1238488336
H   H92       1.0  0.11120  0.59880  0.27900  1.0000 0.1029124001
H   H93       1.0  0.13730  0.38800  0.16950  1.0000 0.1267988463
H   H94       1.0  0.10150  0.39460  0.04170  1.0000 0.1267988463
H   H95       1.0  0.15250  0.43380  0.31490  1.0000 0.1115601664
H   H96       1.0  0.21260  0.50990  0.59670  1.0000 0.1562403222
H   H97       1.0  0.28740  0.62010  0.74210  1.0000 0.1115601664
H   H98       1.0  0.35800  0.77230  0.78010  1.0000 0.1267988463
H   H99       1.0  0.34120  0.80110  0.66570  1.0000 0.1029124001
H   H100      1.0  0.17900  0.47550  0.44990  1.0000 0.281689468
H   H101      1.0  0.95460  0.92040  0.35220  1.0000 0.1238488336
H   H102      1.0  0.81980  0.83220  0.22100  1.0000 0.1029124001
H   H103      1.0  0.71850  0.96780  0.33050  1.0000 0.1267988463
H   H104      1.0  0.85290  0.05980  0.45830  1.0000 0.1267988463
H   H105      1.0  0.61890  0.83760  0.18510  1.0000 0.1115601664
H   H106      1.0  0.41320  0.61590  0.90330  1.0000 0.1562403222
H   H107      1.0  0.37800  0.54530  0.75790  1.0000 0.1115601664
H   H108      1.0  0.49220  0.57790  0.71990  1.0000 0.1267988463
H   H109      1.0  0.63540  0.67550  0.83430  1.0000 0.1029124001
H   H110      1.0  0.52560  0.72910  0.05010  1.0000 0.281689468
H   H111      1.0  0.43180  0.57960  0.53420  1.0000 0.1238488336
H   H112      1.0  0.38880  0.66780  0.48760  1.0000 0.1029124001
H   H113      1.0  0.36270  0.53220  0.25070  1.0000 0.1267988463
H   H114      1.0  0.39850  0.44020  0.29310  1.0000 0.1267988463
H   H115      1.0  0.34750  0.66240  0.28130  1.0000 0.1115601664
H   H116      1.0  0.28740  0.88410  0.29730  1.0000 0.1562403222
H   H117      1.0  0.21260  0.95470  0.33270  1.0000 0.1115601664
H   H118      1.0  0.14200  0.92210  0.41430  1.0000 0.1267988463
H   H119      1.0  0.15880  0.82450  0.45990  1.0000 0.1029124001
H   H120      1.0  0.32100  0.77090  0.29650  1.0000 0.281689468
C   C1        1.0  0.08191  0.58151  0.00220  1.0000 0.1780690034
C   C2        1.0  0.02360  0.59280  0.94060  1.0000 -0.205524957
C   C3        1.0  0.05130  0.67360  0.94330  1.0000 -0.1415537467
C   C4        1.0  0.13520  0.74470  0.00710  1.0000 0.0605415421
C   C5        1.0  0.19220  0.73340  0.06800  1.0000 -0.1204191572
C   C6        1.0  0.16660  0.65370  0.06470  1.0000 -0.1859176042
C   C7        1.0  0.16730  0.83230  0.01360  1.0000 -0.0197339549
C   C8        1.0  0.14140  0.95230  0.90630  1.0000 0.3380883962
C   C9        1.0  0.16990  0.04210  0.93020  1.0000 -0.2283100605
C   C10       1.0  0.14910  0.06260  0.86510  1.0000 -0.0197339549
C   C11       1.0  0.09970  0.99480  0.77390  1.0000 -0.1982303754
C   C12       1.0  0.07430  0.91060  0.75830  1.0000 0.0605415421
C   C13       1.0  0.07931  0.07971  0.49780  1.0000 0.1780690034
C   C14       1.0  0.15220  0.08300  0.55940  1.0000 -0.205524957
C   C15       1.0  0.23030  0.10800  0.55670  1.0000 -0.1415537467
C   C16       1.0  0.23760  0.12810  0.49290  1.0000 0.0605415421
C   C17       1.0  0.16540  0.12420  0.43200  1.0000 -0.1204191572
C   C18       1.0  0.08900  0.10190  0.43530  1.0000 -0.1859176042
C   C19       1.0  0.31870  0.15370  0.48640  1.0000 -0.0197339549
C   C20       1.0  0.54600  0.23510  0.59370  1.0000 0.3380883962
C   C21       1.0  0.61190  0.23970  0.56980  1.0000 -0.2283100605
C   C22       1.0  0.69750  0.28400  0.63490  1.0000 -0.0197339549
C   C23       1.0  0.72090  0.32580  0.72610  1.0000 -0.1982303754
C   C24       1.0  0.65230  0.31600  0.74170  1.0000 0.0605415421
C   C25       1.0  0.42069  0.91849  0.00040  1.0000 0.1780690034
C   C26       1.0  0.34780  0.90720  0.93080  1.0000 -0.205524957
C   C27       1.0  0.26970  0.82640  0.87770  1.0000 -0.1415537467
C   C28       1.0  0.26240  0.75530  0.89050  1.0000 0.0605415421
C   C29       1.0  0.33460  0.76660  0.95880  1.0000 -0.1204191572
C   C30       1.0  0.41100  0.84630  0.01290  1.0000 -0.1859176042
C   C31       1.0  0.18130  0.66770  0.83500  1.0000 -0.0197339549
C   C32       1.0  0.95400  0.54770  0.68910  1.0000 0.3380883962
C   C33       1.0  0.88810  0.45790  0.62780  1.0000 -0.2283100605
C   C34       1.0  0.80250  0.43740  0.58650  1.0000 -0.0197339549
C   C35       1.0  0.77910  0.50520  0.60490  1.0000 -0.1982303754
C   C36       1.0  0.84770  0.58940  0.66370  1.0000 0.0605415421
C   C37       1.0  0.41809  0.42029  0.49960  1.0000 0.1780690034
C   C38       1.0  0.47640  0.41700  0.56920  1.0000 -0.205524957
C   C39       1.0  0.44870  0.39200  0.62230  1.0000 -0.1415537467
C   C40       1.0  0.36480  0.37190  0.60950  1.0000 0.0605415421
C   C41       1.0  0.30780  0.37580  0.54120  1.0000 -0.1204191572
C   C42       1.0  0.33340  0.39810  0.48710  1.0000 -0.1859176042
C   C43       1.0  0.33270  0.34630  0.66500  1.0000 -0.0197339549
C   C44       1.0  0.35860  0.26490  0.81090  1.0000 0.3380883962
C   C45       1.0  0.33010  0.26030  0.87220  1.0000 -0.2283100605
C   C46       1.0  0.35090  0.21600  0.91350  1.0000 -0.0197339549
C   C47       1.0  0.40030  0.17420  0.89510  1.0000 -0.1982303754
C   C48       1.0  0.42570  0.18400  0.83630  1.0000 0.0605415421
C   C49       1.0  0.00220  0.08191  0.58151  1.0000 0.1780690034
C   C50       1.0  0.94060  0.02360  0.59280  1.0000 -0.205524957
C   C51       1.0  0.94330  0.05130  0.67360  1.0000 -0.1415537467
C   C52       1.0  0.00710  0.13520  0.74470  1.0000 0.0605415421
C   C53       1.0  0.06800  0.19220  0.73340  1.0000 -0.1204191572
C   C54       1.0  0.06470  0.16660  0.65370  1.0000 -0.1859176042
C   C55       1.0  0.01360  0.16730  0.83230  1.0000 -0.0197339549
C   C56       1.0  0.90630  0.14140  0.95230  1.0000 0.3380883962
C   C57       1.0  0.93020  0.16990  0.04210  1.0000 -0.2283100605
C   C58       1.0  0.86510  0.14910  0.06260  1.0000 -0.0197339549
C   C59       1.0  0.77390  0.09970  0.99480  1.0000 -0.1982303754
C   C60       1.0  0.75830  0.07430  0.91060  1.0000 0.0605415421
C   C61       1.0  0.49780  0.07931  0.07971  1.0000 0.1780690034
C   C62       1.0  0.55940  0.15220  0.08300  1.0000 -0.205524957
C   C63       1.0  0.55670  0.23030  0.10800  1.0000 -0.1415537467
C   C64       1.0  0.49290  0.23760  0.12810  1.0000 0.0605415421
C   C65       1.0  0.43200  0.16540  0.12420  1.0000 -0.1204191572
C   C66       1.0  0.43530  0.08900  0.10190  1.0000 -0.1859176042
C   C67       1.0  0.48640  0.31870  0.15370  1.0000 -0.0197339549
C   C68       1.0  0.59370  0.54600  0.23510  1.0000 0.3380883962
C   C69       1.0  0.56980  0.61190  0.23970  1.0000 -0.2283100605
C   C70       1.0  0.63490  0.69750  0.28400  1.0000 -0.0197339549
C   C71       1.0  0.72610  0.72090  0.32580  1.0000 -0.1982303754
C   C72       1.0  0.74170  0.65230  0.31600  1.0000 0.0605415421
C   C73       1.0  0.00040  0.42069  0.91849  1.0000 0.1780690034
C   C74       1.0  0.93080  0.34780  0.90720  1.0000 -0.205524957
C   C75       1.0  0.87770  0.26970  0.82640  1.0000 -0.1415537467
C   C76       1.0  0.89050  0.26240  0.75530  1.0000 0.0605415421
C   C77       1.0  0.95880  0.33460  0.76660  1.0000 -0.1204191572
C   C78       1.0  0.01290  0.41100  0.84630  1.0000 -0.1859176042
C   C79       1.0  0.83500  0.18130  0.66770  1.0000 -0.0197339549
C   C80       1.0  0.68910  0.95400  0.54770  1.0000 0.3380883962
C   C81       1.0  0.62780  0.88810  0.45790  1.0000 -0.2283100605
C   C82       1.0  0.58650  0.80250  0.43740  1.0000 -0.0197339549
C   C83       1.0  0.60490  0.77910  0.50520  1.0000 -0.1982303754
C   C84       1.0  0.66370  0.84770  0.58940  1.0000 0.0605415421
C   C85       1.0  0.49960  0.41809  0.42029  1.0000 0.1780690034
C   C86       1.0  0.56920  0.47640  0.41700  1.0000 -0.205524957
C   C87       1.0  0.62230  0.44870  0.39200  1.0000 -0.1415537467
C   C88       1.0  0.60950  0.36480  0.37190  1.0000 0.0605415421
C   C89       1.0  0.54120  0.30780  0.37580  1.0000 -0.1204191572
C   C90       1.0  0.48710  0.33340  0.39810  1.0000 -0.1859176042
C   C91       1.0  0.66500  0.33270  0.34630  1.0000 -0.0197339549
C   C92       1.0  0.81090  0.35860  0.26490  1.0000 0.3380883962
C   C93       1.0  0.87220  0.33010  0.26030  1.0000 -0.2283100605
C   C94       1.0  0.91350  0.35090  0.21600  1.0000 -0.0197339549
C   C95       1.0  0.89510  0.40030  0.17420  1.0000 -0.1982303754
C   C96       1.0  0.83630  0.42570  0.18400  1.0000 0.0605415421
C   C97       1.0  0.58151  0.00220  0.08191  1.0000 0.1780690034
C   C98       1.0  0.59280  0.94060  0.02360  1.0000 -0.205524957
C   C99       1.0  0.67360  0.94330  0.05130  1.0000 -0.1415537467
C   C100      1.0  0.74470  0.00710  0.13520  1.0000 0.0605415421
C   C101      1.0  0.73340  0.06800  0.19220  1.0000 -0.1204191572
C   C102      1.0  0.65370  0.06470  0.16660  1.0000 -0.1859176042
C   C103      1.0  0.83230  0.01360  0.16730  1.0000 -0.0197339549
C   C104      1.0  0.95230  0.90630  0.14140  1.0000 0.3380883962
C   C105      1.0  0.04210  0.93020  0.16990  1.0000 -0.2283100605
C   C106      1.0  0.06260  0.86510  0.14910  1.0000 -0.0197339549
C   C107      1.0  0.99480  0.77390  0.09970  1.0000 -0.1982303754
C   C108      1.0  0.91060  0.75830  0.07430  1.0000 0.0605415421
C   C109      1.0  0.07971  0.49780  0.07931  1.0000 0.1780690034
C   C110      1.0  0.08300  0.55940  0.15220  1.0000 -0.205524957
C   C111      1.0  0.10800  0.55670  0.23030  1.0000 -0.1415537467
C   C112      1.0  0.12810  0.49290  0.23760  1.0000 0.0605415421
C   C113      1.0  0.12420  0.43200  0.16540  1.0000 -0.1204191572
C   C114      1.0  0.10190  0.43530  0.08900  1.0000 -0.1859176042
C   C115      1.0  0.15370  0.48640  0.31870  1.0000 -0.0197339549
C   C116      1.0  0.23510  0.59370  0.54600  1.0000 0.3380883962
C   C117      1.0  0.23970  0.56980  0.61190  1.0000 -0.2283100605
C   C118      1.0  0.28400  0.63490  0.69750  1.0000 -0.0197339549
C   C119      1.0  0.32580  0.72610  0.72090  1.0000 -0.1982303754
C   C120      1.0  0.31600  0.74170  0.65230  1.0000 0.0605415421
C   C121      1.0  0.91849  0.00040  0.42069  1.0000 0.1780690034
C   C122      1.0  0.90720  0.93080  0.34780  1.0000 -0.205524957
C   C123      1.0  0.82640  0.87770  0.26970  1.0000 -0.1415537467
C   C124      1.0  0.75530  0.89050  0.26240  1.0000 0.0605415421
C   C125      1.0  0.76660  0.95880  0.33460  1.0000 -0.1204191572
C   C126      1.0  0.84630  0.01290  0.41100  1.0000 -0.1859176042
C   C127      1.0  0.66770  0.83500  0.18130  1.0000 -0.0197339549
C   C128      1.0  0.54770  0.68910  0.95400  1.0000 0.3380883962
C   C129      1.0  0.45790  0.62780  0.88810  1.0000 -0.2283100605
C   C130      1.0  0.43740  0.58650  0.80250  1.0000 -0.0197339549
C   C131      1.0  0.50520  0.60490  0.77910  1.0000 -0.1982303754
C   C132      1.0  0.58940  0.66370  0.84770  1.0000 0.0605415421
C   C133      1.0  0.42029  0.49960  0.41809  1.0000 0.1780690034
C   C134      1.0  0.41700  0.56920  0.47640  1.0000 -0.205524957
C   C135      1.0  0.39200  0.62230  0.44870  1.0000 -0.1415537467
C   C136      1.0  0.37190  0.60950  0.36480  1.0000 0.0605415421
C   C137      1.0  0.37580  0.54120  0.30780  1.0000 -0.1204191572
C   C138      1.0  0.39810  0.48710  0.33340  1.0000 -0.1859176042
C   C139      1.0  0.34630  0.66500  0.33270  1.0000 -0.0197339549
C   C140      1.0  0.26490  0.81090  0.35860  1.0000 0.3380883962
C   C141      1.0  0.26030  0.87220  0.33010  1.0000 -0.2283100605
C   C142      1.0  0.21600  0.91350  0.35090  1.0000 -0.0197339549
C   C143      1.0  0.17420  0.89510  0.40030  1.0000 -0.1982303754
C   C144      1.0  0.18400  0.83630  0.42570  1.0000 0.0605415421
N   N1        1.0  0.12962  0.84543  0.95225  1.0000 -0.1270481418
N   N2        1.0  0.16490  0.93190  0.97020  1.0000 -0.205524957
N   N3        1.0  0.09440  0.88820  0.82120  1.0000 -0.2735421703
N   N4        1.0  0.39318  0.17737  0.54775  1.0000 -0.1270481418
N   N5        1.0  0.46170  0.19470  0.52980  1.0000 -0.205524957
N   N6        1.0  0.56700  0.27320  0.67880  1.0000 -0.2735421703
N   N7        1.0  0.10682  0.65457  0.78419  1.0000 -0.1270481418
N   N8        1.0  0.03830  0.56810  0.73300  1.0000 -0.205524957
N   N9        1.0  0.93300  0.61180  0.70620  1.0000 -0.2735421703
N   N10       1.0  0.37038  0.32263  0.71581  1.0000 -0.1270481418
N   N11       1.0  0.33510  0.30530  0.76700  1.0000 -0.205524957
N   N12       1.0  0.40560  0.22680  0.79380  1.0000 -0.2735421703
N   N13       1.0  0.95225  0.12962  0.84543  1.0000 -0.1270481418
N   N14       1.0  0.97020  0.16490  0.93190  1.0000 -0.205524957
N   N15       1.0  0.82120  0.09440  0.88820  1.0000 -0.2735421703
N   N16       1.0  0.54775  0.39318  0.17737  1.0000 -0.1270481418
N   N17       1.0  0.52980  0.46170  0.19470  1.0000 -0.205524957
N   N18       1.0  0.67880  0.56700  0.27320  1.0000 -0.2735421703
N   N19       1.0  0.78419  0.10682  0.65457  1.0000 -0.1270481418
N   N20       1.0  0.73300  0.03830  0.56810  1.0000 -0.205524957
N   N21       1.0  0.70620  0.93300  0.61180  1.0000 -0.2735421703
N   N22       1.0  0.71581  0.37038  0.32263  1.0000 -0.1270481418
N   N23       1.0  0.76700  0.33510  0.30530  1.0000 -0.205524957
N   N24       1.0  0.79380  0.40560  0.22680  1.0000 -0.2735421703
N   N25       1.0  0.84543  0.95225  0.12962  1.0000 -0.1270481418
N   N26       1.0  0.93190  0.97020  0.16490  1.0000 -0.205524957
N   N27       1.0  0.88820  0.82120  0.09440  1.0000 -0.2735421703
N   N28       1.0  0.17737  0.54775  0.39318  1.0000 -0.1270481418
N   N29       1.0  0.19470  0.52980  0.46170  1.0000 -0.205524957
N   N30       1.0  0.27320  0.67880  0.56700  1.0000 -0.2735421703
N   N31       1.0  0.65457  0.78419  0.10682  1.0000 -0.1270481418
N   N32       1.0  0.56810  0.73300  0.03830  1.0000 -0.205524957
N   N33       1.0  0.61180  0.70620  0.93300  1.0000 -0.2735421703
N   N34       1.0  0.32263  0.71581  0.37038  1.0000 -0.1270481418
N   N35       1.0  0.30530  0.76700  0.33510  1.0000 -0.205524957
N   N36       1.0  0.22680  0.79380  0.40560  1.0000 -0.2735421703
N   N37       1.0  0.05420  0.50000  0.00000  1.0000 -0.1610736805
N   N38       1.0  0.00000  0.05420  0.50000  1.0000 -0.1610736805
N   N39       1.0  0.50000  0.00000  0.05420  1.0000 -0.1610736805
N   N40       1.0  0.44580  0.44580  0.44580  1.0000 -0.1610736805
Cl  Cl1       1.0  0.44091  0.75000  0.19091  1.0000 1.255659007
Cl  Cl2       1.0  0.05909  0.25000  0.30909  1.0000 1.255659007
Cl  Cl3       1.0  0.75000  0.19091  0.44091  1.0000 1.255659007
Cl  Cl4       1.0  0.25000  0.30909  0.05909  1.0000 1.255659007
Cl  Cl5       1.0  0.19091  0.44091  0.75000  1.0000 1.255659007
Cl  Cl6       1.0  0.30909  0.05909  0.25000  1.0000 1.255659007
O   O1        1.0  0.42970  0.67670  0.20380  1.0000 -0.4941993068
O   O2        1.0  0.37870  0.77360  0.20290  1.0000 -0.4941993068
O   O3        1.0  0.52710  0.82330  0.25300  1.0000 -0.4941993068
O   O4        1.0  0.42930  0.72640  0.10510  1.0000 -0.4941993068
O   O5        1.0  0.07030  0.27410  0.24700  1.0000 -0.4957608054
O   O6        1.0  0.12130  0.32420  0.39490  1.0000 -0.4941993068
O   O7        1.0  0.97290  0.22590  0.29620  1.0000 -0.4957608054
O   O8        1.0  0.07070  0.17580  0.29710  1.0000 -0.4941993068
O   O9        1.0  0.67670  0.20380  0.42970  1.0000 -0.4941993068
O   O10       1.0  0.77360  0.20290  0.37870  1.0000 -0.4941993068
O   O11       1.0  0.82330  0.25300  0.52710  1.0000 -0.4941993068
O   O12       1.0  0.72640  0.10510  0.42930  1.0000 -0.4941993068
O   O13       1.0  0.27410  0.24700  0.07030  1.0000 -0.4941993068
O   O14       1.0  0.32420  0.39490  0.12130  1.0000 -0.4941993068
O   O15       1.0  0.22590  0.29620  0.97290  1.0000 -0.4941993068
O   O16       1.0  0.17580  0.29710  0.07070  1.0000 -0.4941993068
O   O17       1.0  0.20380  0.42970  0.67670  1.0000 -0.4941993068
O   O18       1.0  0.20290  0.37870  0.77360  1.0000 -0.4941993068
O   O19       1.0  0.25300  0.52710  0.82330  1.0000 -0.4941993068
O   O20       1.0  0.10510  0.42930  0.72640  1.0000 -0.4941993068
O   O21       1.0  0.24700  0.07030  0.27410  1.0000 -0.4957608054
O   O22       1.0  0.39490  0.12130  0.32420  1.0000 -0.4941993068
O   O23       1.0  0.29620  0.97290  0.22590  1.0000 -0.4957608054
O   O24       1.0  0.29710  0.07070  0.17580  1.0000 -0.4941993068
