# DDEC6 charges by PACMAN v1.1 (https://github.com/mtap-research/PACMAN-charge/)
data_2017[Ag][srs]3[ION]6
_chemical_formula_sum              "Ag6 H108 C144 N40 Cl18 O24"
_cell_length_a       18.467
_cell_length_b       18.467
_cell_length_c       18.467
_cell_angle_alpha    109.471
_cell_angle_beta     109.471
_cell_angle_gamma    109.471

_symmetry_space_group_name_H-M    "P 1"
_symmetry_Int_Tables_number       1

loop_
  _symmetry_equiv_pos_as_xyz
  'x, y, z'

loop_
  _atom_site_type_symbol
  _atom_site_label
  _atom_site_symmetry_multiplicity
  _atom_site_fract_x
  _atom_site_fract_y
  _atom_site_fract_z
  _atom_site_occupancy
  _atom_site_charge
Ag  Ag1       1.0  0.78931  0.25000  0.03931  1.0000 0.2964431478
Ag  Ag2       1.0  0.71069  0.75000  0.46069  1.0000 0.2964431478
Ag  Ag3       1.0  0.25000  0.03931  0.78931  1.0000 0.2964431478
Ag  Ag4       1.0  0.75000  0.46069  0.71069  1.0000 0.2964431478
Ag  Ag5       1.0  0.46069  0.71069  0.75000  1.0000 0.2964431478
Ag  Ag6       1.0  0.03931  0.78931  0.25000  1.0000 0.2964431478
H   H1        1.0  0.89850  0.43840  0.35230  1.0000 0.1293321886
H   H2        1.0  0.89810  0.38980  0.21850  1.0000 0.1102854606
H   H3        1.0  0.10670  0.36270  0.32700  1.0000 0.1293321886
H   H4        1.0  0.10660  0.40670  0.45930  1.0000 0.1190899486
H   H5        1.0  0.06310  0.34760  0.18450  1.0000 0.1190899486
H   H6        1.0  0.99240  0.28680  0.90460  1.0000 0.1548407211
H   H7        1.0  0.88230  0.21670  0.75780  1.0000 0.1102854606
H   H8        1.0  0.73430  0.14820  0.71910  1.0000 0.1293321886
H   H9        1.0  0.02350  0.32020  0.05090  1.0000 0.2826037639
H   H10       1.0  0.58610  0.54620  0.14770  1.0000 0.1293321886
H   H11       1.0  0.67130  0.67960  0.28150  1.0000 0.1102854606
H   H12       1.0  0.53570  0.77970  0.17300  1.0000 0.1293321886
H   H13       1.0  0.44740  0.64730  0.04070  1.0000 0.1190899486
H   H14       1.0  0.66310  0.87860  0.31550  1.0000 0.1190899486
H   H15       1.0  0.88220  0.08780  0.59540  1.0000 0.1548407211
H   H16       1.0  0.95890  0.12450  0.74220  1.0000 0.1102854606
H   H17       1.0  0.92910  0.01520  0.78090  1.0000 0.1293321886
H   H18       1.0  0.76930  0.97260  0.44910  1.0000 0.2826037639
H   H19       1.0  0.60150  0.95380  0.53990  1.0000 0.1293321886
H   H20       1.0  0.60190  0.82040  0.49170  1.0000 0.1102854606
H   H21       1.0  0.39330  0.72030  0.25600  1.0000 0.1293321886
H   H22       1.0  0.39340  0.85270  0.30010  1.0000 0.1190899486
H   H23       1.0  0.43690  0.62140  0.28450  1.0000 0.1190899486
H   H24       1.0  0.50760  0.41220  0.29440  1.0000 0.1548407211
H   H25       1.0  0.61770  0.37550  0.33440  1.0000 0.1102854606
H   H26       1.0  0.76570  0.48480  0.41390  1.0000 0.1293321886
H   H27       1.0  0.47650  0.52740  0.29670  1.0000 0.2826037639
H   H28       1.0  0.91390  0.06160  0.96010  1.0000 0.1293321886
H   H29       1.0  0.82870  0.11020  0.00830  1.0000 0.1102854606
H   H30       1.0  0.96430  0.13730  0.24400  1.0000 0.1293321886
H   H31       1.0  0.05260  0.09330  0.19990  1.0000 0.1190899486
H   H32       1.0  0.83690  0.15240  0.21550  1.0000 0.1190899486
H   H33       1.0  0.61780  0.21320  0.20560  1.0000 0.1548407211
H   H34       1.0  0.54110  0.28330  0.16560  1.0000 0.1102854606
H   H35       1.0  0.57090  0.35180  0.08610  1.0000 0.1293321886
H   H36       1.0  0.73070  0.17980  0.20330  1.0000 0.2826037639
H   H37       1.0  0.06160  0.96010  0.91390  1.0000 0.1293321886
H   H38       1.0  0.11020  0.00830  0.82870  1.0000 0.1102854606
H   H39       1.0  0.13730  0.24400  0.96430  1.0000 0.1293321886
H   H40       1.0  0.09330  0.19990  0.05260  1.0000 0.1190899486
H   H41       1.0  0.15240  0.21550  0.83690  1.0000 0.1190899486
H   H42       1.0  0.21320  0.20560  0.61780  1.0000 0.1548407211
H   H43       1.0  0.28330  0.16560  0.54110  1.0000 0.1102854606
H   H44       1.0  0.35180  0.08610  0.57090  1.0000 0.1293321886
H   H45       1.0  0.17980  0.20330  0.73070  1.0000 0.2826037639
H   H46       1.0  0.95380  0.53990  0.60150  1.0000 0.1293321886
H   H47       1.0  0.82040  0.49170  0.60190  1.0000 0.1102854606
H   H48       1.0  0.72030  0.25600  0.39330  1.0000 0.1293321886
H   H49       1.0  0.85270  0.30010  0.39340  1.0000 0.1190899486
H   H50       1.0  0.62140  0.28450  0.43690  1.0000 0.1190899486
H   H51       1.0  0.41220  0.29440  0.50760  1.0000 0.1548407211
H   H52       1.0  0.37550  0.33440  0.61770  1.0000 0.1102854606
H   H53       1.0  0.48480  0.41390  0.76570  1.0000 0.1293321886
H   H54       1.0  0.52740  0.29670  0.47650  1.0000 0.2826037639
H   H55       1.0  0.54620  0.14770  0.58610  1.0000 0.1293321886
H   H56       1.0  0.67960  0.28150  0.67130  1.0000 0.1102854606
H   H57       1.0  0.77970  0.17300  0.53570  1.0000 0.1293321886
H   H58       1.0  0.64730  0.04070  0.44740  1.0000 0.1190899486
H   H59       1.0  0.87860  0.31550  0.66310  1.0000 0.1190899486
H   H60       1.0  0.08780  0.59540  0.88220  1.0000 0.1548407211
H   H61       1.0  0.12450  0.74220  0.95890  1.0000 0.1102854606
H   H62       1.0  0.01520  0.78090  0.92910  1.0000 0.1293321886
H   H63       1.0  0.97260  0.44910  0.76930  1.0000 0.2826037639
H   H64       1.0  0.43840  0.35230  0.89850  1.0000 0.1293321886
H   H65       1.0  0.38980  0.21850  0.89810  1.0000 0.1102854606
H   H66       1.0  0.36270  0.32700  0.10670  1.0000 0.1293321886
H   H67       1.0  0.40670  0.45930  0.10660  1.0000 0.1190899486
H   H68       1.0  0.34760  0.18450  0.06310  1.0000 0.1190899486
H   H69       1.0  0.28680  0.90460  0.99240  1.0000 0.1548407211
H   H70       1.0  0.21670  0.75780  0.88230  1.0000 0.1102854606
H   H71       1.0  0.14820  0.71910  0.73430  1.0000 0.1293321886
H   H72       1.0  0.32020  0.05090  0.02350  1.0000 0.2826037639
H   H73       1.0  0.53990  0.60150  0.95380  1.0000 0.1293321886
H   H74       1.0  0.49170  0.60190  0.82040  1.0000 0.1102854606
H   H75       1.0  0.25600  0.39330  0.72030  1.0000 0.1293321886
H   H76       1.0  0.30010  0.39340  0.85270  1.0000 0.1190899486
H   H77       1.0  0.28450  0.43690  0.62140  1.0000 0.1190899486
H   H78       1.0  0.29440  0.50760  0.41220  1.0000 0.1548407211
H   H79       1.0  0.33440  0.61770  0.37550  1.0000 0.1102854606
H   H80       1.0  0.41390  0.76570  0.48480  1.0000 0.1293321886
H   H81       1.0  0.29670  0.47650  0.52740  1.0000 0.2826037639
H   H82       1.0  0.96010  0.91390  0.06160  1.0000 0.1293321886
H   H83       1.0  0.00830  0.82870  0.11020  1.0000 0.1102854606
H   H84       1.0  0.24400  0.96430  0.13730  1.0000 0.1293321886
H   H85       1.0  0.19990  0.05260  0.09330  1.0000 0.1190899486
H   H86       1.0  0.21550  0.83690  0.15240  1.0000 0.1190899486
H   H87       1.0  0.20560  0.61780  0.21320  1.0000 0.1548407211
H   H88       1.0  0.16560  0.54110  0.28330  1.0000 0.1102854606
H   H89       1.0  0.08610  0.57090  0.35180  1.0000 0.1293321886
H   H90       1.0  0.20330  0.73070  0.17980  1.0000 0.2826037639
H   H91       1.0  0.35230  0.89850  0.43840  1.0000 0.1293321886
H   H92       1.0  0.21850  0.89810  0.38980  1.0000 0.1102854606
H   H93       1.0  0.32700  0.10670  0.36270  1.0000 0.1293321886
H   H94       1.0  0.45930  0.10660  0.40670  1.0000 0.1190899486
H   H95       1.0  0.18450  0.06310  0.34760  1.0000 0.1190899486
H   H96       1.0  0.90460  0.99240  0.28680  1.0000 0.1548407211
H   H97       1.0  0.75780  0.88230  0.21670  1.0000 0.1102854606
H   H98       1.0  0.71910  0.73430  0.14820  1.0000 0.1293321886
H   H99       1.0  0.05090  0.02350  0.32020  1.0000 0.2826037639
H   H100      1.0  0.14770  0.58610  0.54620  1.0000 0.1293321886
H   H101      1.0  0.28150  0.67130  0.67960  1.0000 0.1102854606
H   H102      1.0  0.17300  0.53570  0.77970  1.0000 0.1293321886
H   H103      1.0  0.04070  0.44740  0.64730  1.0000 0.1190899486
H   H104      1.0  0.31550  0.66310  0.87860  1.0000 0.1190899486
H   H105      1.0  0.59540  0.88220  0.08780  1.0000 0.1548407211
H   H106      1.0  0.74220  0.95890  0.12450  1.0000 0.1102854606
H   H107      1.0  0.78090  0.92910  0.01520  1.0000 0.1293321886
H   H108      1.0  0.44910  0.76930  0.97260  1.0000 0.2826037639
C   C1        1.0  0.00060  0.42560  0.41860  1.0000 0.1750284715
C   C2        1.0  0.94030  0.42190  0.34720  1.0000 -0.190087813
C   C3        1.0  0.94090  0.39410  0.26760  1.0000 -0.1359245644
C   C4        1.0  0.00370  0.37280  0.26050  1.0000 0.0585709049
C   C5        1.0  0.06390  0.37760  0.33190  1.0000 -0.1185302763
C   C6        1.0  0.06420  0.40370  0.41110  1.0000 -0.1823332226
C   C7        1.0  0.01040  0.34640  0.18000  1.0000 -0.0059815103
C   C8        1.0  0.90670  0.26530  0.95280  1.0000 0.3397308175
C   C9        1.0  0.93220  0.26120  0.88860  1.0000 -0.2382815024
C   C10       1.0  0.86680  0.21870  0.80170  1.0000 -0.0059815103
C   C11       1.0  0.77980  0.17920  0.77860  1.0000 -0.2382815024
C   C12       1.0  0.76130  0.18670  0.84540  1.0000 0.2852961529
C   C13       1.0  0.50700  0.58200  0.08140  1.0000 0.1750284715
C   C14       1.0  0.57470  0.59310  0.15280  1.0000 -0.190087813
C   C15       1.0  0.62650  0.67330  0.23240  1.0000 -0.1359245644
C   C16       1.0  0.61230  0.74320  0.23950  1.0000 0.0585709049
C   C17       1.0  0.54570  0.73200  0.16810  1.0000 -0.1185302763
C   C18       1.0  0.49260  0.65310  0.08890  1.0000 -0.1823332226
C   C19       1.0  0.66640  0.83040  0.32000  1.0000 -0.0059815103
C   C20       1.0  0.81250  0.95390  0.54720  1.0000 0.3397308175
C   C21       1.0  0.87260  0.04360  0.61140  1.0000 -0.2382815024
C   C22       1.0  0.91700  0.06510  0.69830  1.0000 -0.0059815103
C   C23       1.0  0.90060  0.00120  0.72140  1.0000 -0.2382815024
C   C24       1.0  0.84130  0.91590  0.65460  1.0000 0.2852961529
C   C25       1.0  0.49940  0.91800  0.42500  1.0000 0.1750284715
C   C26       1.0  0.55970  0.90690  0.48160  1.0000 -0.190087813
C   C27       1.0  0.55910  0.82670  0.45320  1.0000 -0.1359245644
C   C28       1.0  0.49630  0.75680  0.36910  1.0000 0.0585709049
C   C29       1.0  0.43610  0.76800  0.31370  1.0000 -0.1185302763
C   C30       1.0  0.43580  0.84690  0.33950  1.0000 -0.1823332226
C   C31       1.0  0.48960  0.66960  0.33600  1.0000 -0.0059815103
C   C32       1.0  0.59330  0.54610  0.35860  1.0000 0.3397308175
C   C33       1.0  0.56780  0.45640  0.32900  1.0000 -0.2382815024
C   C34       1.0  0.63320  0.43490  0.35190  1.0000 -0.0059815103
C   C35       1.0  0.72020  0.49880  0.39940  1.0000 -0.2382815024
C   C36       1.0  0.73870  0.58410  0.42540  1.0000 0.2852961529
C   C37       1.0  0.99300  0.07440  0.07500  1.0000 0.1750284715
C   C38       1.0  0.92530  0.07810  0.01840  1.0000 -0.190087813
C   C39       1.0  0.87350  0.10590  0.04680  1.0000 -0.1359245644
C   C40       1.0  0.88770  0.12720  0.13090  1.0000 0.0585709049
C   C41       1.0  0.95430  0.12240  0.18630  1.0000 -0.1185302763
C   C42       1.0  0.00740  0.09630  0.16050  1.0000 -0.1823332226
C   C43       1.0  0.83360  0.15360  0.16400  1.0000 -0.0059815103
C   C44       1.0  0.68750  0.23470  0.14140  1.0000 0.3397308175
C   C45       1.0  0.62740  0.23880  0.17100  1.0000 -0.2382815024
C   C46       1.0  0.58300  0.28130  0.14810  1.0000 -0.0059815103
C   C47       1.0  0.59940  0.32080  0.10060  1.0000 -0.2382815024
C   C48       1.0  0.65870  0.31330  0.07460  1.0000 0.2852961529
C   C49       1.0  0.07440  0.07500  0.99300  1.0000 0.1750284715
C   C50       1.0  0.07810  0.01840  0.92530  1.0000 -0.190087813
C   C51       1.0  0.10590  0.04680  0.87350  1.0000 -0.1359245644
C   C52       1.0  0.12720  0.13090  0.88770  1.0000 0.0585709049
C   C53       1.0  0.12240  0.18630  0.95430  1.0000 -0.1185302763
C   C54       1.0  0.09630  0.16050  0.00740  1.0000 -0.1823332226
C   C55       1.0  0.15360  0.16400  0.83360  1.0000 -0.0059815103
C   C56       1.0  0.23470  0.14140  0.68750  1.0000 0.3397308175
C   C57       1.0  0.23880  0.17100  0.62740  1.0000 -0.2382815024
C   C58       1.0  0.28130  0.14810  0.58300  1.0000 -0.0059815103
C   C59       1.0  0.32080  0.10060  0.59940  1.0000 -0.2382815024
C   C60       1.0  0.31330  0.07460  0.65870  1.0000 0.2852961529
C   C61       1.0  0.91800  0.42500  0.49940  1.0000 0.1750284715
C   C62       1.0  0.90690  0.48160  0.55970  1.0000 -0.190087813
C   C63       1.0  0.82670  0.45320  0.55910  1.0000 -0.1359245644
C   C64       1.0  0.75680  0.36910  0.49630  1.0000 0.0585709049
C   C65       1.0  0.76800  0.31370  0.43610  1.0000 -0.1185302763
C   C66       1.0  0.84690  0.33950  0.43580  1.0000 -0.1823332226
C   C67       1.0  0.66960  0.33600  0.48960  1.0000 -0.0059815103
C   C68       1.0  0.54610  0.35860  0.59330  1.0000 0.3397308175
C   C69       1.0  0.45640  0.32900  0.56780  1.0000 -0.2382815024
C   C70       1.0  0.43490  0.35190  0.63320  1.0000 -0.0059815103
C   C71       1.0  0.49880  0.39940  0.72020  1.0000 -0.2382815024
C   C72       1.0  0.58410  0.42540  0.73870  1.0000 0.2852961529
C   C73       1.0  0.58200  0.08140  0.50700  1.0000 0.1750284715
C   C74       1.0  0.59310  0.15280  0.57470  1.0000 -0.190087813
C   C75       1.0  0.67330  0.23240  0.62650  1.0000 -0.1359245644
C   C76       1.0  0.74320  0.23950  0.61230  1.0000 0.0585709049
C   C77       1.0  0.73200  0.16810  0.54570  1.0000 -0.1185302763
C   C78       1.0  0.65310  0.08890  0.49260  1.0000 -0.1823332226
C   C79       1.0  0.83040  0.32000  0.66640  1.0000 -0.0059815103
C   C80       1.0  0.95390  0.54720  0.81250  1.0000 0.3397308175
C   C81       1.0  0.04360  0.61140  0.87260  1.0000 -0.2382815024
C   C82       1.0  0.06510  0.69830  0.91700  1.0000 -0.0059815103
C   C83       1.0  0.00120  0.72140  0.90060  1.0000 -0.2382815024
C   C84       1.0  0.91590  0.65460  0.84130  1.0000 0.2852961529
C   C85       1.0  0.42560  0.41860  0.00060  1.0000 0.1750284715
C   C86       1.0  0.42190  0.34720  0.94030  1.0000 -0.190087813
C   C87       1.0  0.39410  0.26760  0.94090  1.0000 -0.1359245644
C   C88       1.0  0.37280  0.26050  0.00370  1.0000 0.0585709049
C   C89       1.0  0.37760  0.33190  0.06390  1.0000 -0.1185302763
C   C90       1.0  0.40370  0.41110  0.06420  1.0000 -0.1823332226
C   C91       1.0  0.34640  0.18000  0.01040  1.0000 -0.0059815103
C   C92       1.0  0.26530  0.95280  0.90670  1.0000 0.3397308175
C   C93       1.0  0.26120  0.88860  0.93220  1.0000 -0.2382815024
C   C94       1.0  0.21870  0.80170  0.86680  1.0000 -0.0059815103
C   C95       1.0  0.17920  0.77860  0.77980  1.0000 -0.2382815024
C   C96       1.0  0.18670  0.84540  0.76130  1.0000 0.2852961529
C   C97       1.0  0.42500  0.49940  0.91800  1.0000 0.1750284715
C   C98       1.0  0.48160  0.55970  0.90690  1.0000 -0.190087813
C   C99       1.0  0.45320  0.55910  0.82670  1.0000 -0.1359245644
C   C100      1.0  0.36910  0.49630  0.75680  1.0000 0.0585709049
C   C101      1.0  0.31370  0.43610  0.76800  1.0000 -0.1185302763
C   C102      1.0  0.33950  0.43580  0.84690  1.0000 -0.1823332226
C   C103      1.0  0.33600  0.48960  0.66960  1.0000 -0.0059815103
C   C104      1.0  0.35860  0.59330  0.54610  1.0000 0.3397308175
C   C105      1.0  0.32900  0.56780  0.45640  1.0000 -0.2382815024
C   C106      1.0  0.35190  0.63320  0.43490  1.0000 -0.0059815103
C   C107      1.0  0.39940  0.72020  0.49880  1.0000 -0.2382815024
C   C108      1.0  0.42540  0.73870  0.58410  1.0000 0.2852961529
C   C109      1.0  0.07500  0.99300  0.07440  1.0000 0.1750284715
C   C110      1.0  0.01840  0.92530  0.07810  1.0000 -0.190087813
C   C111      1.0  0.04680  0.87350  0.10590  1.0000 -0.1359245644
C   C112      1.0  0.13090  0.88770  0.12720  1.0000 0.0585709049
C   C113      1.0  0.18630  0.95430  0.12240  1.0000 -0.1185302763
C   C114      1.0  0.16050  0.00740  0.09630  1.0000 -0.1823332226
C   C115      1.0  0.16400  0.83360  0.15360  1.0000 -0.0059815103
C   C116      1.0  0.14140  0.68750  0.23470  1.0000 0.3397308175
C   C117      1.0  0.17100  0.62740  0.23880  1.0000 -0.2382815024
C   C118      1.0  0.14810  0.58300  0.28130  1.0000 -0.0059815103
C   C119      1.0  0.10060  0.59940  0.32080  1.0000 -0.2382815024
C   C120      1.0  0.07460  0.65870  0.31330  1.0000 0.2852961529
C   C121      1.0  0.41860  0.00060  0.42560  1.0000 0.1750284715
C   C122      1.0  0.34720  0.94030  0.42190  1.0000 -0.190087813
C   C123      1.0  0.26760  0.94090  0.39410  1.0000 -0.1359245644
C   C124      1.0  0.26050  0.00370  0.37280  1.0000 0.0585709049
C   C125      1.0  0.33190  0.06390  0.37760  1.0000 -0.1185302763
C   C126      1.0  0.41110  0.06420  0.40370  1.0000 -0.1823332226
C   C127      1.0  0.18000  0.01040  0.34640  1.0000 -0.0059815103
C   C128      1.0  0.95280  0.90670  0.26530  1.0000 0.3397308175
C   C129      1.0  0.88860  0.93220  0.26120  1.0000 -0.2382815024
C   C130      1.0  0.80170  0.86680  0.21870  1.0000 -0.0059815103
C   C131      1.0  0.77860  0.77980  0.17920  1.0000 -0.2382815024
C   C132      1.0  0.84540  0.76130  0.18670  1.0000 0.2852961529
C   C133      1.0  0.08140  0.50700  0.58200  1.0000 0.1750284715
C   C134      1.0  0.15280  0.57470  0.59310  1.0000 -0.190087813
C   C135      1.0  0.23240  0.62650  0.67330  1.0000 -0.1359245644
C   C136      1.0  0.23950  0.61230  0.74320  1.0000 0.0585709049
C   C137      1.0  0.16810  0.54570  0.73200  1.0000 -0.1185302763
C   C138      1.0  0.08890  0.49260  0.65310  1.0000 -0.1823332226
C   C139      1.0  0.32000  0.66640  0.83040  1.0000 -0.0059815103
C   C140      1.0  0.54720  0.81250  0.95390  1.0000 0.3397308175
C   C141      1.0  0.61140  0.87260  0.04360  1.0000 -0.2382815024
C   C142      1.0  0.69830  0.91700  0.06510  1.0000 -0.0059815103
C   C143      1.0  0.72140  0.90060  0.00120  1.0000 -0.2382815024
C   C144      1.0  0.65460  0.84130  0.91590  1.0000 0.2852961529
N   N1        1.0  0.94967  0.32187  0.10480  1.0000 -0.1134177686
N   N2        1.0  0.96900  0.30490  0.03790  1.0000 -0.190087813
N   N3        1.0  0.82020  0.22730  0.92970  1.0000 -0.3345397673
N   N4        1.0  0.71707  0.84487  0.39520  1.0000 -0.1134177686
N   N5        1.0  0.76700  0.93110  0.46210  1.0000 -0.190087813
N   N6        1.0  0.79760  0.89050  0.57030  1.0000 -0.3345397673
N   N7        1.0  0.55033  0.65513  0.37220  1.0000 -0.1134177686
N   N8        1.0  0.53100  0.56890  0.33590  1.0000 -0.190087813
N   N9        1.0  0.67980  0.60950  0.40710  1.0000 -0.3345397673
N   N10       1.0  0.78293  0.17813  0.12780  1.0000 -0.1134177686
N   N11       1.0  0.73300  0.19510  0.16410  1.0000 -0.190087813
N   N12       1.0  0.70240  0.27270  0.09290  1.0000 -0.3345397673
N   N13       1.0  0.17813  0.12780  0.78293  1.0000 -0.1134177686
N   N14       1.0  0.19510  0.16410  0.73300  1.0000 -0.190087813
N   N15       1.0  0.27270  0.09290  0.70240  1.0000 -0.3345397673
N   N16       1.0  0.65513  0.37220  0.55033  1.0000 -0.1134177686
N   N17       1.0  0.56890  0.33590  0.53100  1.0000 -0.190087813
N   N18       1.0  0.60950  0.40710  0.67980  1.0000 -0.3345397673
N   N19       1.0  0.84487  0.39520  0.71707  1.0000 -0.1134177686
N   N20       1.0  0.93110  0.46210  0.76700  1.0000 -0.190087813
N   N21       1.0  0.89050  0.57030  0.79760  1.0000 -0.3345397673
N   N22       1.0  0.32187  0.10480  0.94967  1.0000 -0.1134177686
N   N23       1.0  0.30490  0.03790  0.96900  1.0000 -0.190087813
N   N24       1.0  0.22730  0.92970  0.82020  1.0000 -0.3358408527
N   N25       1.0  0.37220  0.55033  0.65513  1.0000 -0.1134177686
N   N26       1.0  0.33590  0.53100  0.56890  1.0000 -0.190087813
N   N27       1.0  0.40710  0.67980  0.60950  1.0000 -0.3345397673
N   N28       1.0  0.12780  0.78293  0.17813  1.0000 -0.1134177686
N   N29       1.0  0.16410  0.73300  0.19510  1.0000 -0.190087813
N   N30       1.0  0.09290  0.70240  0.27270  1.0000 -0.3345397673
N   N31       1.0  0.10480  0.94967  0.32187  1.0000 -0.1134177686
N   N32       1.0  0.03790  0.96900  0.30490  1.0000 -0.190087813
N   N33       1.0  0.92970  0.82020  0.22730  1.0000 -0.3345397673
N   N34       1.0  0.39520  0.71707  0.84487  1.0000 -0.1134177686
N   N35       1.0  0.46210  0.76700  0.93110  1.0000 -0.190087813
N   N36       1.0  0.57030  0.79760  0.89050  1.0000 -0.3345397673
N   N37       1.0  1.00000  0.45520  0.50000  1.0000 -0.1687461936
N   N38       1.0  0.45520  0.50000  0.00000  1.0000 -0.1687461936
N   N39       1.0  0.50000  0.00000  0.45520  1.0000 -0.1687461936
N   N40       1.0  0.04480  0.04480  0.04480  1.0000 -0.1687461936
Cl  Cl1       1.0  0.65233  0.14075  0.82124  1.0000 -0.1185302763
Cl  Cl2       1.0  0.81951  0.83109  0.67876  1.0000 -0.1185302763
Cl  Cl3       1.0  0.84767  0.66891  0.48842  1.0000 -0.1185302763
Cl  Cl4       1.0  0.68049  0.35925  0.01158  1.0000 -0.1185302763
Cl  Cl5       1.0  0.35925  0.01158  0.68049  1.0000 -0.1185302763
Cl  Cl6       1.0  0.66891  0.48842  0.84767  1.0000 -0.1185302763
Cl  Cl7       1.0  0.83109  0.67876  0.81951  1.0000 -0.1185302763
Cl  Cl8       1.0  0.14075  0.82124  0.65233  1.0000 -0.1185302763
Cl  Cl9       1.0  0.48842  0.84767  0.66891  1.0000 -0.1185302763
Cl  Cl10      1.0  0.01158  0.68049  0.35925  1.0000 -0.1185302763
Cl  Cl11      1.0  0.82124  0.65233  0.14075  1.0000 -0.1185302763
Cl  Cl12      1.0  0.67876  0.81951  0.83109  1.0000 -0.1185302763
Cl  Cl13      1.0  0.75000  0.06192  0.31192  1.0000 1.266375401
Cl  Cl14      1.0  0.25000  0.43808  0.18808  1.0000 1.266375401
Cl  Cl15      1.0  0.31192  0.75000  0.06192  1.0000 1.266375401
Cl  Cl16      1.0  0.18808  0.25000  0.43808  1.0000 1.266375401
Cl  Cl17      1.0  0.43808  0.18808  0.25000  1.0000 1.266375401
Cl  Cl18      1.0  0.06192  0.31192  0.75000  1.0000 1.266375401
O   O1        1.0  0.67650  0.97470  0.25000  1.0000 -0.4979464042
O   O2        1.0  0.72440  0.12300  0.29920  1.0000 -0.4979464042
O   O3        1.0  0.82350  0.07350  0.29820  1.0000 -0.4979464042
O   O4        1.0  0.77560  0.07480  0.39860  1.0000 -0.4979464042
O   O5        1.0  0.27530  0.52530  0.20180  1.0000 -0.4979464042
O   O6        1.0  0.17620  0.37700  0.10140  1.0000 -0.4979464042
O   O7        1.0  0.22470  0.42650  0.25000  1.0000 -0.4979464042
O   O8        1.0  0.32380  0.42520  0.20080  1.0000 -0.4979464042
O   O9        1.0  0.29820  0.82350  0.07350  1.0000 -0.4979464042
O   O10       1.0  0.39860  0.77560  0.07480  1.0000 -0.4979464042
O   O11       1.0  0.25000  0.67650  0.97470  1.0000 -0.4979464042
O   O12       1.0  0.29920  0.72440  0.12300  1.0000 -0.4979464042
O   O13       1.0  0.25000  0.22470  0.42650  1.0000 -0.4979464042
O   O14       1.0  0.20080  0.32380  0.42520  1.0000 -0.4979464042
O   O15       1.0  0.20180  0.27530  0.52530  1.0000 -0.4979464042
O   O16       1.0  0.10140  0.17620  0.37700  1.0000 -0.4979464042
O   O17       1.0  0.52530  0.20180  0.27530  1.0000 -0.4979464042
O   O18       1.0  0.37700  0.10140  0.17620  1.0000 -0.4979464042
O   O19       1.0  0.42650  0.25000  0.22470  1.0000 -0.4979464042
O   O20       1.0  0.42520  0.20080  0.32380  1.0000 -0.4979464042
O   O21       1.0  0.97470  0.25000  0.67650  1.0000 -0.4979464042
O   O22       1.0  0.12300  0.29920  0.72440  1.0000 -0.4979464042
O   O23       1.0  0.07350  0.29820  0.82350  1.0000 -0.4979464042
O   O24       1.0  0.07480  0.39860  0.77560  1.0000 -0.4979464042
