# DDEC6 charges by PACMAN v1.1 (https://github.com/mtap-research/PACMAN-charge/)
data_2017[Cd][sql]2[ION]1
_chemical_formula_sum              "Cd3 H48 C60 N2 O20"
_cell_length_a       11.6806
_cell_length_b       14.4408
_cell_length_c       14.7293
_cell_angle_alpha    112.663
_cell_angle_beta     103.871
_cell_angle_gamma    100.277

_symmetry_space_group_name_H-M    "P 1"
_symmetry_Int_Tables_number       1

loop_
  _symmetry_equiv_pos_as_xyz
  'x, y, z'

loop_
  _atom_site_type_symbol
  _atom_site_label
  _atom_site_symmetry_multiplicity
  _atom_site_fract_x
  _atom_site_fract_y
  _atom_site_fract_z
  _atom_site_occupancy
  _atom_site_charge
Cd  Cd1       1.0  0.81442  0.50557  0.65256  1.0000 0.9530318142
Cd  Cd2       1.0  0.18558  0.49443  0.34744  1.0000 0.9530318142
Cd  Cd3       1.0  0.00000  0.50000  0.50000  1.0000 1.065765238
H   H1        1.0  0.53340  0.26570  0.71800  1.0000 0.118300625
H   H2        1.0  0.44460  0.21200  0.82090  1.0000 0.1411545934
H   H3        1.0  0.17560  0.76860  0.68300  1.0000 0.1293890747
H   H4        1.0  0.37060  0.35800  0.14850  1.0000 0.1411545934
H   H5        1.0  0.03490  0.19220  0.51980  1.0000 0.118300625
H   H6        1.0  0.78170  0.38280  0.28760  1.0000 0.118300625
H   H7        1.0  0.45830  0.41160  0.32590  1.0000 0.118300625
H   H8        1.0  0.69580  0.33760  0.11220  1.0000 0.1293890747
H   H9        1.0  0.72370  0.54310  0.96570  1.0000 0.118300625
H   H10       1.0  0.63010  0.49090  0.06730  1.0000 0.1293890747
H   H11       1.0  0.11420  0.07500  0.56480  1.0000 0.1293890747
H   H12       1.0  0.10850  0.38110  0.82060  1.0000 0.1293890747
H   H13       1.0  0.19870  0.26750  0.86640  1.0000 0.1411545934
H   H14       1.0  0.28380  0.93150  0.70980  1.0000 0.1411545934
H   H15       1.0  0.99180  0.03300  0.73650  1.0000 0.1293890747
H   H16       1.0  0.88360  0.86820  0.71100  1.0000 0.118300625
H   H17       1.0  0.46660  0.73430  0.28200  1.0000 0.118300625
H   H18       1.0  0.55540  0.78800  0.17910  1.0000 0.1411545934
H   H19       1.0  0.82440  0.23140  0.31700  1.0000 0.1293890747
H   H20       1.0  0.62940  0.64200  0.85150  1.0000 0.1411545934
H   H21       1.0  0.96510  0.80780  0.48020  1.0000 0.118300625
H   H22       1.0  0.21830  0.61720  0.71240  1.0000 0.118300625
H   H23       1.0  0.54170  0.58840  0.67410  1.0000 0.118300625
H   H24       1.0  0.30420  0.66240  0.88780  1.0000 0.1293890747
H   H25       1.0  0.27630  0.45690  0.03430  1.0000 0.118300625
H   H26       1.0  0.36990  0.50910  0.93270  1.0000 0.1293890747
H   H27       1.0  0.88580  0.92500  0.43520  1.0000 0.1293890747
H   H28       1.0  0.89150  0.61890  0.17940  1.0000 0.1293890747
H   H29       1.0  0.80130  0.73250  0.13360  1.0000 0.1411545934
H   H30       1.0  0.71620  0.06850  0.29020  1.0000 0.1411545934
H   H31       1.0  0.00820  0.96700  0.26350  1.0000 0.1293890747
H   H32       1.0  0.11640  0.13180  0.28900  1.0000 0.118300625
H   H33       1.0  0.49630  0.35130  0.57000  1.0000 0.2569528879
H   H34       1.0  0.42750  0.40030  0.51600  1.0000 0.266034341
H   H35       1.0  0.47470  0.27230  0.40020  1.0000 0.1293890747
H   H36       1.0  0.40500  0.19180  0.43080  1.0000 0.1293890747
H   H37       1.0  0.33080  0.24470  0.37250  1.0000 0.1293890747
H   H38       1.0  0.34160  0.38210  0.63170  1.0000 0.1293890747
H   H39       1.0  0.24700  0.31340  0.51780  1.0000 0.1293890747
H   H40       1.0  0.32130  0.26060  0.57610  1.0000 0.118300625
H   H41       1.0  0.50370  0.64870  0.43000  1.0000 0.2569528879
H   H42       1.0  0.57250  0.59970  0.48400  1.0000 0.266034341
H   H43       1.0  0.52530  0.72770  0.59980  1.0000 0.1293890747
H   H44       1.0  0.59500  0.80820  0.56920  1.0000 0.1293890747
H   H45       1.0  0.66920  0.75530  0.62750  1.0000 0.1293890747
H   H46       1.0  0.65840  0.61790  0.36830  1.0000 0.1293890747
H   H47       1.0  0.75300  0.68660  0.48220  1.0000 0.1293890747
H   H48       1.0  0.67870  0.73940  0.42390  1.0000 0.118300625
C   C1        1.0  0.55400  0.31120  0.78850  1.0000 -0.0877701386
C   C2        1.0  0.50050  0.27880  0.84970  1.0000 -0.2018199651
C   C3        1.0  0.13820  0.82180  0.69430  1.0000 -0.0794857884
C   C4        1.0  0.69420  0.44620  0.76590  1.0000 0.5417169096
C   C5        1.0  0.16290  0.16030  0.71960  1.0000 0.2312248336
C   C6        1.0  0.45360  0.36480  0.17700  1.0000 -0.2106085694
C   C7        1.0  0.14900  0.99810  0.72740  1.0000 0.2445852296
C   C8        1.0  0.52580  0.34380  0.11380  1.0000 0.2544880868
C   C9        1.0  0.06660  0.20750  0.58990  1.0000 -0.0877701386
C   C10       1.0  0.69980  0.38000  0.26060  1.0000 -0.0794857884
C   C11       1.0  0.50590  0.39600  0.28280  1.0000 -0.0877701386
C   C12       1.0  0.64800  0.35150  0.15520  1.0000 -0.2178147523
C   C13       1.0  0.68730  0.43860  0.43860  1.0000 0.5618510308
C   C14       1.0  0.66667  0.47660  0.93580  1.0000 -0.0794857884
C   C15       1.0  0.63130  0.40430  0.32600  1.0000 -0.0794857884
C   C16       1.0  0.63810  0.41090  0.83090  1.0000 -0.0548529042
C   C17       1.0  0.61190  0.44530  0.99720  1.0000 -0.2178147523
C   C18       1.0  0.53090  0.34640  0.95330  1.0000 0.2312248336
C   C19       1.0  0.11460  0.13760  0.61660  1.0000 -0.2018199651
C   C20       1.0  0.01870  0.80170  0.69450  1.0000 -0.0417533158
C   C21       1.0  0.94860  0.69520  0.67740  1.0000 0.5688153567
C   C22       1.0  0.01330  0.37640  0.63670  1.0000 0.586395836
C   C23       1.0  0.06490  0.29910  0.66500  1.0000 -0.0346602029
C   C24       1.0  0.11180  0.32020  0.76880  1.0000 -0.0877701386
C   C25       1.0  0.16370  0.25150  0.79640  1.0000 -0.1922542615
C   C26       1.0  0.20320  0.91910  0.71040  1.0000 -0.2018199651
C   C27       1.0  0.02930  0.97990  0.72660  1.0000 -0.2178147523
C   C28       1.0  0.96440  0.88080  0.71070  1.0000 -0.0877701386
C   C29       1.0  0.44600  0.68880  0.21150  1.0000 -0.0877701386
C   C30       1.0  0.49950  0.72120  0.15030  1.0000 -0.2018199651
C   C31       1.0  0.86180  0.17820  0.30570  1.0000 -0.0794857884
C   C32       1.0  0.30580  0.55380  0.23410  1.0000 0.5417169096
C   C33       1.0  0.83710  0.83970  0.28040  1.0000 0.2312248336
C   C34       1.0  0.54640  0.63520  0.82300  1.0000 -0.2106085694
C   C35       1.0  0.85100  0.00190  0.27260  1.0000 0.2445852296
C   C36       1.0  0.47420  0.65620  0.88620  1.0000 0.2544880868
C   C37       1.0  0.93340  0.79250  0.41010  1.0000 -0.0877701386
C   C38       1.0  0.30020  0.62000  0.73940  1.0000 -0.0794857884
C   C39       1.0  0.49410  0.60400  0.71720  1.0000 -0.0877701386
C   C40       1.0  0.35200  0.64850  0.84480  1.0000 -0.2178147523
C   C41       1.0  0.31270  0.56140  0.56140  1.0000 0.5618510308
C   C42       1.0  0.33333  0.52340  0.06420  1.0000 -0.0794857884
C   C43       1.0  0.36870  0.59570  0.67400  1.0000 -0.0794857884
C   C44       1.0  0.36190  0.58910  0.16910  1.0000 -0.0548529042
C   C45       1.0  0.38810  0.55470  0.00280  1.0000 -0.2178147523
C   C46       1.0  0.46910  0.65360  0.04670  1.0000 0.2312248336
C   C47       1.0  0.88540  0.86240  0.38340  1.0000 -0.2018199651
C   C48       1.0  0.98130  0.19830  0.30550  1.0000 -0.0417533158
C   C49       1.0  0.05140  0.30480  0.32260  1.0000 0.5688153567
C   C50       1.0  0.98670  0.62360  0.36330  1.0000 0.586395836
C   C51       1.0  0.93510  0.70090  0.33500  1.0000 -0.0346602029
C   C52       1.0  0.88820  0.67980  0.23120  1.0000 -0.0877701386
C   C53       1.0  0.83630  0.74850  0.20360  1.0000 -0.1922542615
C   C54       1.0  0.79680  0.08090  0.28960  1.0000 -0.2018199651
C   C55       1.0  0.97070  0.02010  0.27340  1.0000 -0.2178147523
C   C56       1.0  0.03560  0.11920  0.28930  1.0000 -0.0877701386
C   C57       1.0  0.40710  0.25510  0.42320  1.0000 -0.2818100689
C   C58       1.0  0.32480  0.32270  0.56590  1.0000 -0.3067748486
C   C59       1.0  0.59290  0.74490  0.57680  1.0000 -0.2818100689
C   C60       1.0  0.67520  0.67730  0.43410  1.0000 -0.3067748486
N   N1        1.0  0.42360  0.34100  0.52350  1.0000 -0.1128824069
N   N2        1.0  0.57640  0.65900  0.47650  1.0000 -0.1128824069
O   O1        1.0  0.94910  0.41830  0.68480  1.0000 -0.5209855078
O   O2        1.0  0.65690  0.39040  0.66820  1.0000 -0.5512446998
O   O3        1.0  0.99930  0.62310  0.65810  1.0000 -0.5779170035
O   O4        1.0  0.04040  0.39090  0.56460  1.0000 -0.5619719265
O   O5        1.0  0.78000  0.52990  0.80850  1.0000 -0.5121038048
O   O6        1.0  0.46770  0.31130  0.00870  1.0000 -0.2106085694
O   O7        1.0  0.63080  0.47790  0.49960  1.0000 -0.5512446998
O   O8        1.0  0.22020  0.09520  0.74890  1.0000 -0.2178147523
O   O9        1.0  0.84410  0.68130  0.68480  1.0000 -0.5121038048
O   O10       1.0  0.79140  0.42770  0.47410  1.0000 -0.5779170035
O   O11       1.0  0.05090  0.58170  0.31520  1.0000 -0.5209855078
O   O12       1.0  0.34310  0.60960  0.33180  1.0000 -0.5512446998
O   O13       1.0  0.00070  0.37690  0.34190  1.0000 -0.5779170035
O   O14       1.0  0.95960  0.60910  0.43540  1.0000 -0.5619719265
O   O15       1.0  0.22000  0.47010  0.19150  1.0000 -0.5121038048
O   O16       1.0  0.53230  0.68870  0.99130  1.0000 -0.2106085694
O   O17       1.0  0.36920  0.52210  0.50040  1.0000 -0.5512446998
O   O18       1.0  0.77980  0.90480  0.25110  1.0000 -0.2178147523
O   O19       1.0  0.15590  0.31870  0.31520  1.0000 -0.5121038048
O   O20       1.0  0.20860  0.57230  0.52590  1.0000 -0.5779170035
