# DDEC6 charges by PACMAN v1.1 (https://github.com/mtap-research/PACMAN-charge/)
data_2017[Ag][srs]3[ION]16
_chemical_formula_sum              "Ag6 H108 C144 Br12 N40 Cl6 O24"
_cell_length_a       18.3251
_cell_length_b       18.3251
_cell_length_c       18.3251
_cell_angle_alpha    109.471
_cell_angle_beta     109.471
_cell_angle_gamma    109.471

_symmetry_space_group_name_H-M    "P 1"
_symmetry_Int_Tables_number       1

loop_
  _symmetry_equiv_pos_as_xyz
  'x, y, z'

loop_
  _atom_site_type_symbol
  _atom_site_label
  _atom_site_symmetry_multiplicity
  _atom_site_fract_x
  _atom_site_fract_y
  _atom_site_fract_z
  _atom_site_occupancy
  _atom_site_charge
Ag  Ag1       1.0  0.21026  0.75000  0.96026  1.0000 0.3399348828
Ag  Ag2       1.0  0.28974  0.25000  0.53974  1.0000 0.3399348828
Ag  Ag3       1.0  0.75000  0.96026  0.21026  1.0000 0.3399348828
Ag  Ag4       1.0  0.25000  0.53974  0.28974  1.0000 0.3399348828
Ag  Ag5       1.0  0.53974  0.28974  0.25000  1.0000 0.3399348828
Ag  Ag6       1.0  0.96026  0.21026  0.75000  1.0000 0.3399348828
H   H1        1.0  0.09360  0.94810  0.04510  1.0000 0.1298170179
H   H2        1.0  0.17780  0.89220  0.99300  1.0000 0.1131388158
H   H3        1.0  0.03810  0.86420  0.75490  1.0000 0.1298170179
H   H4        1.0  0.94540  0.90030  0.79910  1.0000 0.1298170179
H   H5        1.0  0.16180  0.84850  0.78370  1.0000 0.1131388158
H   H6        1.0  0.38500  0.78680  0.78980  1.0000 0.1613715165
H   H7        1.0  0.46240  0.71890  0.83330  1.0000 0.1206775033
H   H8        1.0  0.43380  0.65090  0.90470  1.0000 0.1364928656
H   H9        1.0  0.26690  0.81610  0.79180  1.0000 0.2877417031
H   H10       1.0  0.40300  0.04850  0.45490  1.0000 0.1298170179
H   H11       1.0  0.39920  0.18480  0.50700  1.0000 0.1131388158
H   H12       1.0  0.60930  0.28320  0.74510  1.0000 0.1298170179
H   H13       1.0  0.60120  0.14630  0.70090  1.0000 0.1298170179
H   H14       1.0  0.56480  0.37810  0.71630  1.0000 0.1131388158
H   H15       1.0  0.49700  0.59520  0.71020  1.0000 0.1613715165
H   H16       1.0  0.38560  0.62910  0.66667  1.0000 0.1206775033
H   H17       1.0  0.24620  0.52910  0.59530  1.0000 0.1364928656
H   H18       1.0  0.52430  0.47510  0.70820  1.0000 0.2877417031
H   H19       1.0  0.40640  0.45150  0.85450  1.0000 0.1298170179
H   H20       1.0  0.32220  0.31520  0.71440  1.0000 0.1131388158
H   H21       1.0  0.46190  0.21680  0.82610  1.0000 0.1298170179
H   H22       1.0  0.55460  0.35370  0.95490  1.0000 0.1298170179
H   H23       1.0  0.33820  0.12190  0.68670  1.0000 0.1131388158
H   H24       1.0  0.11500  0.90480  0.40180  1.0000 0.1613715165
H   H25       1.0  0.03760  0.87090  0.25650  1.0000 0.1206775033
H   H26       1.0  0.06620  0.97090  0.21710  1.0000 0.1364928656
H   H27       1.0  0.23310  0.02490  0.54920  1.0000 0.2877417031
H   H28       1.0  0.09700  0.55190  0.64550  1.0000 0.1298170179
H   H29       1.0  0.10080  0.60780  0.78560  1.0000 0.1131388158
H   H30       1.0  0.89070  0.63580  0.67390  1.0000 0.1298170179
H   H31       1.0  0.89880  0.59970  0.54510  1.0000 0.1298170179
H   H32       1.0  0.93520  0.65150  0.81330  1.0000 0.1131388158
H   H33       1.0  0.00300  0.71320  0.09820  1.0000 0.1613715165
H   H34       1.0  0.11440  0.78110  0.24350  1.0000 0.1206775033
H   H35       1.0  0.25380  0.84910  0.28290  1.0000 0.1364928656
H   H36       1.0  0.97570  0.68390  0.95080  1.0000 0.2877417031
H   H37       1.0  0.55190  0.64550  0.09700  1.0000 0.1298170179
H   H38       1.0  0.60780  0.78560  0.10080  1.0000 0.1131388158
H   H39       1.0  0.63580  0.67390  0.89070  1.0000 0.1298170179
H   H40       1.0  0.59970  0.54510  0.89880  1.0000 0.1298170179
H   H41       1.0  0.65150  0.81330  0.93520  1.0000 0.1131388158
H   H42       1.0  0.71320  0.09820  0.00300  1.0000 0.1613715165
H   H43       1.0  0.78110  0.24350  0.11440  1.0000 0.1206775033
H   H44       1.0  0.84910  0.28290  0.25380  1.0000 0.1364928656
H   H45       1.0  0.68390  0.95080  0.97570  1.0000 0.2877417031
H   H46       1.0  0.45150  0.85450  0.40640  1.0000 0.1298170179
H   H47       1.0  0.31520  0.71440  0.32220  1.0000 0.1131388158
H   H48       1.0  0.21680  0.82610  0.46190  1.0000 0.1298170179
H   H49       1.0  0.35370  0.95490  0.55460  1.0000 0.1298170179
H   H50       1.0  0.12190  0.68670  0.33820  1.0000 0.1131388158
H   H51       1.0  0.90480  0.40180  0.11500  1.0000 0.1613715165
H   H52       1.0  0.87090  0.25650  0.03760  1.0000 0.1206775033
H   H53       1.0  0.97090  0.21710  0.06620  1.0000 0.1364928656
H   H54       1.0  0.02490  0.54920  0.23310  1.0000 0.2877417031
H   H55       1.0  0.04850  0.45490  0.40300  1.0000 0.1298170179
H   H56       1.0  0.18480  0.50700  0.39920  1.0000 0.1131388158
H   H57       1.0  0.28320  0.74510  0.60930  1.0000 0.1298170179
H   H58       1.0  0.14630  0.70090  0.60120  1.0000 0.1298170179
H   H59       1.0  0.37810  0.71630  0.56480  1.0000 0.1131388158
H   H60       1.0  0.59520  0.71020  0.49700  1.0000 0.1613715165
H   H61       1.0  0.62910  0.66667  0.38560  1.0000 0.1206775033
H   H62       1.0  0.52910  0.59530  0.24620  1.0000 0.1364928656
H   H63       1.0  0.47510  0.70820  0.52430  1.0000 0.2877417031
H   H64       1.0  0.94810  0.04510  0.09360  1.0000 0.1298170179
H   H65       1.0  0.89220  0.99300  0.17780  1.0000 0.1131388158
H   H66       1.0  0.86420  0.75490  0.03810  1.0000 0.1298170179
H   H67       1.0  0.90030  0.79910  0.94540  1.0000 0.1298170179
H   H68       1.0  0.84850  0.78370  0.16180  1.0000 0.1131388158
H   H69       1.0  0.78680  0.78980  0.38500  1.0000 0.1613715165
H   H70       1.0  0.71890  0.83330  0.46240  1.0000 0.1206775033
H   H71       1.0  0.65090  0.90470  0.43380  1.0000 0.1364928656
H   H72       1.0  0.81610  0.79180  0.26690  1.0000 0.2877417031
H   H73       1.0  0.85450  0.40640  0.45150  1.0000 0.1298170179
H   H74       1.0  0.71440  0.32220  0.31520  1.0000 0.1131388158
H   H75       1.0  0.82610  0.46190  0.21680  1.0000 0.1298170179
H   H76       1.0  0.95490  0.55460  0.35370  1.0000 0.1298170179
H   H77       1.0  0.68670  0.33820  0.12190  1.0000 0.1131388158
H   H78       1.0  0.40180  0.11500  0.90480  1.0000 0.1613715165
H   H79       1.0  0.25650  0.03760  0.87090  1.0000 0.1206775033
H   H80       1.0  0.21710  0.06620  0.97090  1.0000 0.1364928656
H   H81       1.0  0.54920  0.23310  0.02490  1.0000 0.2877417031
H   H82       1.0  0.64550  0.09700  0.55190  1.0000 0.1298170179
H   H83       1.0  0.78560  0.10080  0.60780  1.0000 0.1131388158
H   H84       1.0  0.67390  0.89070  0.63580  1.0000 0.1298170179
H   H85       1.0  0.54510  0.89880  0.59970  1.0000 0.1298170179
H   H86       1.0  0.81330  0.93520  0.65150  1.0000 0.1131388158
H   H87       1.0  0.09820  0.00300  0.71320  1.0000 0.1613715165
H   H88       1.0  0.24350  0.11440  0.78110  1.0000 0.1206775033
H   H89       1.0  0.28290  0.25380  0.84910  1.0000 0.1364928656
H   H90       1.0  0.95080  0.97570  0.68390  1.0000 0.2877417031
H   H91       1.0  0.04510  0.09360  0.94810  1.0000 0.1298170179
H   H92       1.0  0.99300  0.17780  0.89220  1.0000 0.1131388158
H   H93       1.0  0.75490  0.03810  0.86420  1.0000 0.1298170179
H   H94       1.0  0.79910  0.94540  0.90030  1.0000 0.1298170179
H   H95       1.0  0.78370  0.16180  0.84850  1.0000 0.1131388158
H   H96       1.0  0.78980  0.38500  0.78680  1.0000 0.1613715165
H   H97       1.0  0.83330  0.46240  0.71890  1.0000 0.1206775033
H   H98       1.0  0.90470  0.43380  0.65090  1.0000 0.1364928656
H   H99       1.0  0.79180  0.26690  0.81610  1.0000 0.2877417031
H   H100      1.0  0.45490  0.40300  0.04850  1.0000 0.1298170179
H   H101      1.0  0.50700  0.39920  0.18480  1.0000 0.1131388158
H   H102      1.0  0.74510  0.60930  0.28320  1.0000 0.1298170179
H   H103      1.0  0.70090  0.60120  0.14630  1.0000 0.1298170179
H   H104      1.0  0.71630  0.56480  0.37810  1.0000 0.1131388158
H   H105      1.0  0.71020  0.49700  0.59520  1.0000 0.1613715165
H   H106      1.0  0.66667  0.38560  0.62910  1.0000 0.1206775033
H   H107      1.0  0.59530  0.24620  0.52910  1.0000 0.1364928656
H   H108      1.0  0.70820  0.52430  0.47510  1.0000 0.2877417031
C   C1        1.0  0.01190  0.92940  0.92910  1.0000 0.1749615742
C   C2        1.0  0.07960  0.92778  0.98518  1.0000 -0.1959393548
C   C3        1.0  0.13150  0.89560  0.95470  1.0000 -0.1428526964
C   C4        1.0  0.11100  0.87000  0.86760  1.0000 0.0487649377
C   C5        1.0  0.04660  0.87670  0.81210  1.0000 -0.1154279592
C   C6        1.0  0.99410  0.90150  0.83960  1.0000 -0.1873963632
C   C7        1.0  0.16510  0.84520  0.83470  1.0000 -0.0053680234
C   C8        1.0  0.31260  0.76310  0.85410  1.0000 0.3481294089
C   C9        1.0  0.37500  0.76080  0.82440  1.0000 -0.240757776
C   C10       1.0  0.41860  0.71930  0.84890  1.0000 -0.0235491949
C   C11       1.0  0.40270  0.68090  0.89220  1.0000 -0.1873963632
C   C12       1.0  0.34240  0.68020  0.92280  1.0000 0.2304053777
C   C13       1.0  0.50030  0.08280  0.57090  1.0000 0.1749615742
C   C14       1.0  0.44260  0.09442  0.51482  1.0000 -0.1959393548
C   C15       1.0  0.44090  0.17680  0.54530  1.0000 -0.1428526964
C   C16       1.0  0.50240  0.24340  0.63240  1.0000 0.0487649377
C   C17       1.0  0.56460  0.23450  0.68790  1.0000 -0.1154279592
C   C18       1.0  0.56190  0.15450  0.66040  1.0000 -0.1873963632
C   C19       1.0  0.51050  0.33040  0.66530  1.0000 -0.0053680234
C   C20       1.0  0.40900  0.45850  0.64590  1.0000 0.3481294089
C   C21       1.0  0.43640  0.55060  0.67560  1.0000 -0.240757776
C   C22       1.0  0.37040  0.56970  0.65110  1.0000 -0.0235491949
C   C23       1.0  0.28870  0.51050  0.60780  1.0000 -0.1873963632
C   C24       1.0  0.25740  0.41960  0.57720  1.0000 0.2304053777
C   C25       1.0  0.48810  0.41720  0.91750  1.0000 0.1749615742
C   C26       1.0  0.42040  0.40558  0.84818  1.0000 -0.1959393548
C   C27       1.0  0.36850  0.32320  0.76410  1.0000 -0.1428526964
C   C28       1.0  0.38900  0.25660  0.75900  1.0000 0.0487649377
C   C29       1.0  0.45340  0.26550  0.83010  1.0000 -0.1154279592
C   C30       1.0  0.50590  0.34550  0.90740  1.0000 -0.1873963632
C   C31       1.0  0.33490  0.16960  0.68010  1.0000 -0.0053680234
C   C32       1.0  0.18740  0.04150  0.45050  1.0000 0.3481294089
C   C33       1.0  0.12500  0.94940  0.38580  1.0000 -0.240757776
C   C34       1.0  0.08140  0.93030  0.30070  1.0000 -0.0235491949
C   C35       1.0  0.09730  0.98950  0.27820  1.0000 -0.1873963632
C   C36       1.0  0.15760  0.08040  0.33780  1.0000 0.2304053777
C   C37       1.0  0.99970  0.57060  0.58250  1.0000 0.1749615742
C   C38       1.0  0.05740  0.57222  0.65182  1.0000 -0.1959393548
C   C39       1.0  0.05910  0.60440  0.73590  1.0000 -0.1428526964
C   C40       1.0  0.99760  0.63000  0.74100  1.0000 0.0487649377
C   C41       1.0  0.93540  0.62330  0.66990  1.0000 -0.1154279592
C   C42       1.0  0.93810  0.59850  0.59260  1.0000 -0.1873963632
C   C43       1.0  0.98950  0.65480  0.81990  1.0000 -0.0053680234
C   C44       1.0  0.09100  0.73690  0.04950  1.0000 0.3481294089
C   C45       1.0  0.06360  0.73920  0.11420  1.0000 -0.240757776
C   C46       1.0  0.12960  0.78070  0.19930  1.0000 -0.0235491949
C   C47       1.0  0.21130  0.81910  0.22180  1.0000 -0.1873963632
C   C48       1.0  0.24260  0.81980  0.16220  1.0000 0.2304053777
C   C49       1.0  0.57060  0.58250  0.99970  1.0000 0.1749615742
C   C50       1.0  0.57222  0.65182  0.05740  1.0000 -0.1959393548
C   C51       1.0  0.60440  0.73590  0.05910  1.0000 -0.1428526964
C   C52       1.0  0.63000  0.74100  0.99760  1.0000 0.0487649377
C   C53       1.0  0.62330  0.66990  0.93540  1.0000 -0.1154279592
C   C54       1.0  0.59850  0.59260  0.93810  1.0000 -0.1873963632
C   C55       1.0  0.65480  0.81990  0.98950  1.0000 -0.0053680234
C   C56       1.0  0.73690  0.04950  0.09100  1.0000 0.3481294089
C   C57       1.0  0.73920  0.11420  0.06360  1.0000 -0.240757776
C   C58       1.0  0.78070  0.19930  0.12960  1.0000 -0.0235491949
C   C59       1.0  0.81910  0.22180  0.21130  1.0000 -0.1873963632
C   C60       1.0  0.81980  0.16220  0.24260  1.0000 0.2304053777
C   C61       1.0  0.41720  0.91750  0.48810  1.0000 0.1749615742
C   C62       1.0  0.40558  0.84818  0.42040  1.0000 -0.1959393548
C   C63       1.0  0.32320  0.76410  0.36850  1.0000 -0.1428526964
C   C64       1.0  0.25660  0.75900  0.38900  1.0000 0.0487649377
C   C65       1.0  0.26550  0.83010  0.45340  1.0000 -0.1154279592
C   C66       1.0  0.34550  0.90740  0.50590  1.0000 -0.1873963632
C   C67       1.0  0.16960  0.68010  0.33490  1.0000 -0.0053680234
C   C68       1.0  0.04150  0.45050  0.18740  1.0000 0.3481294089
C   C69       1.0  0.94940  0.38580  0.12500  1.0000 -0.240757776
C   C70       1.0  0.93030  0.30070  0.08140  1.0000 -0.0235491949
C   C71       1.0  0.98950  0.27820  0.09730  1.0000 -0.1873963632
C   C72       1.0  0.08040  0.33780  0.15760  1.0000 0.2304053777
C   C73       1.0  0.08280  0.57090  0.50030  1.0000 0.1749615742
C   C74       1.0  0.09442  0.51482  0.44260  1.0000 -0.1959393548
C   C75       1.0  0.17680  0.54530  0.44090  1.0000 -0.1428526964
C   C76       1.0  0.24340  0.63240  0.50240  1.0000 0.0487649377
C   C77       1.0  0.23450  0.68790  0.56460  1.0000 -0.1154279592
C   C78       1.0  0.15450  0.66040  0.56190  1.0000 -0.1873963632
C   C79       1.0  0.33040  0.66530  0.51050  1.0000 -0.0053680234
C   C80       1.0  0.45850  0.64590  0.40900  1.0000 0.3481294089
C   C81       1.0  0.55060  0.67560  0.43640  1.0000 -0.240757776
C   C82       1.0  0.56970  0.65110  0.37040  1.0000 -0.0235491949
C   C83       1.0  0.51050  0.60780  0.28870  1.0000 -0.1873963632
C   C84       1.0  0.41960  0.57720  0.25740  1.0000 0.2304053777
C   C85       1.0  0.92940  0.92910  0.01190  1.0000 0.1749615742
C   C86       1.0  0.92778  0.98518  0.07960  1.0000 -0.1959393548
C   C87       1.0  0.89560  0.95470  0.13150  1.0000 -0.1428526964
C   C88       1.0  0.87000  0.86760  0.11100  1.0000 0.0487649377
C   C89       1.0  0.87670  0.81210  0.04660  1.0000 -0.1154279592
C   C90       1.0  0.90150  0.83960  0.99410  1.0000 -0.1873963632
C   C91       1.0  0.84520  0.83470  0.16510  1.0000 -0.0053680234
C   C92       1.0  0.76310  0.85410  0.31260  1.0000 0.3481294089
C   C93       1.0  0.76080  0.82440  0.37500  1.0000 -0.240757776
C   C94       1.0  0.71930  0.84890  0.41860  1.0000 -0.0235491949
C   C95       1.0  0.68090  0.89220  0.40270  1.0000 -0.1873963632
C   C96       1.0  0.68020  0.92280  0.34240  1.0000 0.2304053777
C   C97       1.0  0.91750  0.48810  0.41720  1.0000 0.1749615742
C   C98       1.0  0.84818  0.42040  0.40558  1.0000 -0.1959393548
C   C99       1.0  0.76410  0.36850  0.32320  1.0000 -0.1428526964
C   C100      1.0  0.75900  0.38900  0.25660  1.0000 0.0487649377
C   C101      1.0  0.83010  0.45340  0.26550  1.0000 -0.1154279592
C   C102      1.0  0.90740  0.50590  0.34550  1.0000 -0.1873963632
C   C103      1.0  0.68010  0.33490  0.16960  1.0000 -0.0053680234
C   C104      1.0  0.45050  0.18740  0.04150  1.0000 0.3481294089
C   C105      1.0  0.38580  0.12500  0.94940  1.0000 -0.240757776
C   C106      1.0  0.30070  0.08140  0.93030  1.0000 -0.0235491949
C   C107      1.0  0.27820  0.09730  0.98950  1.0000 -0.1873963632
C   C108      1.0  0.33780  0.15760  0.08040  1.0000 0.2304053777
C   C109      1.0  0.58250  0.99970  0.57060  1.0000 0.1749615742
C   C110      1.0  0.65182  0.05740  0.57222  1.0000 -0.1959393548
C   C111      1.0  0.73590  0.05910  0.60440  1.0000 -0.1428526964
C   C112      1.0  0.74100  0.99760  0.63000  1.0000 0.0487649377
C   C113      1.0  0.66990  0.93540  0.62330  1.0000 -0.1154279592
C   C114      1.0  0.59260  0.93810  0.59850  1.0000 -0.1873963632
C   C115      1.0  0.81990  0.98950  0.65480  1.0000 -0.0053680234
C   C116      1.0  0.04950  0.09100  0.73690  1.0000 0.3481294089
C   C117      1.0  0.11420  0.06360  0.73920  1.0000 -0.240757776
C   C118      1.0  0.19930  0.12960  0.78070  1.0000 -0.0235491949
C   C119      1.0  0.22180  0.21130  0.81910  1.0000 -0.1873963632
C   C120      1.0  0.16220  0.24260  0.81980  1.0000 0.2304053777
C   C121      1.0  0.92910  0.01190  0.92940  1.0000 0.1749615742
C   C122      1.0  0.98518  0.07960  0.92778  1.0000 -0.1959393548
C   C123      1.0  0.95470  0.13150  0.89560  1.0000 -0.1428526964
C   C124      1.0  0.86760  0.11100  0.87000  1.0000 0.0487649377
C   C125      1.0  0.81210  0.04660  0.87670  1.0000 -0.1154279592
C   C126      1.0  0.83960  0.99410  0.90150  1.0000 -0.1873963632
C   C127      1.0  0.83470  0.16510  0.84520  1.0000 -0.0053680234
C   C128      1.0  0.85410  0.31260  0.76310  1.0000 0.3481294089
C   C129      1.0  0.82440  0.37500  0.76080  1.0000 -0.240757776
C   C130      1.0  0.84890  0.41860  0.71930  1.0000 -0.0235491949
C   C131      1.0  0.89220  0.40270  0.68090  1.0000 -0.1873963632
C   C132      1.0  0.92280  0.34240  0.68020  1.0000 0.2304053777
C   C133      1.0  0.57090  0.50030  0.08280  1.0000 0.1749615742
C   C134      1.0  0.51482  0.44260  0.09442  1.0000 -0.1959393548
C   C135      1.0  0.54530  0.44090  0.17680  1.0000 -0.1428526964
C   C136      1.0  0.63240  0.50240  0.24340  1.0000 0.0487649377
C   C137      1.0  0.68790  0.56460  0.23450  1.0000 -0.1154279592
C   C138      1.0  0.66040  0.56190  0.15450  1.0000 -0.1873963632
C   C139      1.0  0.66530  0.51050  0.33040  1.0000 -0.0053680234
C   C140      1.0  0.64590  0.40900  0.45850  1.0000 0.3481294089
C   C141      1.0  0.67560  0.43640  0.55060  1.0000 -0.240757776
C   C142      1.0  0.65110  0.37040  0.56970  1.0000 -0.0235491949
C   C143      1.0  0.60780  0.28870  0.51050  1.0000 -0.1873963632
C   C144      1.0  0.57720  0.25740  0.41960  1.0000 0.2304053777
Br  Br1       1.0  0.31712  0.63155  0.99267  1.0000 -0.0858196785
Br  Br2       1.0  0.13888  0.32445  0.50733  1.0000 -0.0858196785
Br  Br3       1.0  0.18288  0.17555  0.31443  1.0000 -0.0858196785
Br  Br4       1.0  0.36112  0.86845  0.18557  1.0000 -0.0858196785
Br  Br5       1.0  0.86845  0.18557  0.36112  1.0000 -0.0858196785
Br  Br6       1.0  0.17555  0.31443  0.18288  1.0000 -0.0858196785
Br  Br7       1.0  0.32445  0.50733  0.13888  1.0000 -0.0858196785
Br  Br8       1.0  0.63155  0.99267  0.31712  1.0000 -0.0858196785
Br  Br9       1.0  0.31443  0.18288  0.17555  1.0000 -0.0858196785
Br  Br10      1.0  0.18557  0.36112  0.86845  1.0000 -0.0858196785
Br  Br11      1.0  0.99267  0.31712  0.63155  1.0000 -0.0858196785
Br  Br12      1.0  0.50733  0.13888  0.32445  1.0000 -0.0858196785
N   N1        1.0  0.21490  0.82050  0.86700  1.0000 -0.1012513689
N   N2        1.0  0.26520  0.80170  0.83210  1.0000 -0.1783724851
N   N3        1.0  0.29670  0.72570  0.90620  1.0000 -0.3818799135
N   N4        1.0  0.45350  0.34790  0.63300  1.0000 -0.1012513689
N   N5        1.0  0.46960  0.43310  0.66790  1.0000 -0.1783724851
N   N6        1.0  0.31950  0.39050  0.59380  1.0000 -0.3818799135
N   N7        1.0  0.28510  0.15210  0.60560  1.0000 -0.1012513689
N   N8        1.0  0.23480  0.06690  0.53650  1.0000 -0.1783724851
N   N9        1.0  0.20330  0.10950  0.42900  1.0000 -0.3818799135
N   N10       1.0  0.04650  0.67950  0.89440  1.0000 -0.1012513689
N   N11       1.0  0.03040  0.69830  0.96350  1.0000 -0.1783724851
N   N12       1.0  0.18050  0.77430  0.07100  1.0000 -0.3818799135
N   N13       1.0  0.67950  0.89440  0.04650  1.0000 -0.1012513689
N   N14       1.0  0.69830  0.96350  0.03040  1.0000 -0.1783724851
N   N15       1.0  0.77430  0.07100  0.18050  1.0000 -0.3818799135
N   N16       1.0  0.15210  0.60560  0.28510  1.0000 -0.1012513689
N   N17       1.0  0.06690  0.53650  0.23480  1.0000 -0.1783724851
N   N18       1.0  0.10950  0.42900  0.20330  1.0000 -0.3818799135
N   N19       1.0  0.34790  0.63300  0.45350  1.0000 -0.1012513689
N   N20       1.0  0.43310  0.66790  0.46960  1.0000 -0.1783724851
N   N21       1.0  0.39050  0.59380  0.31950  1.0000 -0.3818799135
N   N22       1.0  0.82050  0.86700  0.21490  1.0000 -0.1012513689
N   N23       1.0  0.80170  0.83210  0.26520  1.0000 -0.1783724851
N   N24       1.0  0.72570  0.90620  0.29670  1.0000 -0.3818799135
N   N25       1.0  0.60560  0.28510  0.15210  1.0000 -0.1012513689
N   N26       1.0  0.53650  0.23480  0.06690  1.0000 -0.1783724851
N   N27       1.0  0.42900  0.20330  0.10950  1.0000 -0.3818799135
N   N28       1.0  0.89440  0.04650  0.67950  1.0000 -0.1012513689
N   N29       1.0  0.96350  0.03040  0.69830  1.0000 -0.1783724851
N   N30       1.0  0.07100  0.18050  0.77430  1.0000 -0.3818799135
N   N31       1.0  0.86700  0.21490  0.82050  1.0000 -0.1012513689
N   N32       1.0  0.83210  0.26520  0.80170  1.0000 -0.1783724851
N   N33       1.0  0.90620  0.29670  0.72570  1.0000 -0.3818799135
N   N34       1.0  0.63300  0.45350  0.34790  1.0000 -0.1012513689
N   N35       1.0  0.66790  0.46960  0.43310  1.0000 -0.1783724851
N   N36       1.0  0.59380  0.31950  0.39050  1.0000 -0.3818799135
N   N37       1.0  0.95860  0.95860  0.95860  1.0000 -0.1692230864
N   N38       1.0  0.50000  0.00000  0.54140  1.0000 -0.1692230864
N   N39       1.0  0.54140  0.50000  0.00000  1.0000 -0.1692230864
N   N40       1.0  0.00000  0.54140  0.50000  1.0000 -0.1692230864
Cl  Cl1       1.0  0.81310  0.75000  0.56310  1.0000 1.2835863206
Cl  Cl2       1.0  0.68690  0.25000  0.93690  1.0000 1.2835863206
Cl  Cl3       1.0  0.93690  0.68690  0.25000  1.0000 1.2835863206
Cl  Cl4       1.0  0.56310  0.81310  0.75000  1.0000 1.2835863206
Cl  Cl5       1.0  0.75000  0.56310  0.81310  1.0000 1.2835863206
Cl  Cl6       1.0  0.25000  0.93690  0.68690  1.0000 1.2835863206
O   O1        1.0  0.90140  0.83260  0.61460  1.0000 -0.5280924119
O   O2        1.0  0.74730  0.77260  0.57150  1.0000 -0.5055228896
O   O3        1.0  0.78200  0.66740  0.56880  1.0000 -0.5280924119
O   O4        1.0  0.79890  0.72740  0.47470  1.0000 -0.5055228896
O   O5        1.0  0.59860  0.21320  0.93120  1.0000 -0.5280924119
O   O6        1.0  0.75270  0.32420  0.02530  1.0000 -0.5055228896
O   O7        1.0  0.71800  0.28680  0.88540  1.0000 -0.5280924119
O   O8        1.0  0.70110  0.17580  0.92850  1.0000 -0.5055228896
O   O9        1.0  0.93120  0.59860  0.21320  1.0000 -0.5280924119
O   O10       1.0  0.02530  0.75270  0.32420  1.0000 -0.5055228896
O   O11       1.0  0.88540  0.71800  0.28680  1.0000 -0.5280924119
O   O12       1.0  0.92850  0.70110  0.17580  1.0000 -0.5055228896
O   O13       1.0  0.61460  0.90140  0.83260  1.0000 -0.5280924119
O   O14       1.0  0.57150  0.74730  0.77260  1.0000 -0.5055228896
O   O15       1.0  0.56880  0.78200  0.66740  1.0000 -0.5280924119
O   O16       1.0  0.47470  0.79890  0.72740  1.0000 -0.5055228896
O   O17       1.0  0.66740  0.56880  0.78200  1.0000 -0.5280924119
O   O18       1.0  0.72740  0.47470  0.79890  1.0000 -0.5055228896
O   O19       1.0  0.83260  0.61460  0.90140  1.0000 -0.5280924119
O   O20       1.0  0.77260  0.57150  0.74730  1.0000 -0.5055228896
O   O21       1.0  0.28680  0.88540  0.71800  1.0000 -0.5280924119
O   O22       1.0  0.17580  0.92850  0.70110  1.0000 -0.5055228896
O   O23       1.0  0.21320  0.93120  0.59860  1.0000 -0.5280924119
O   O24       1.0  0.32420  0.02530  0.75270  1.0000 -0.5055228896
