# DDEC6 charges by PACMAN v1.1 (https://github.com/mtap-research/PACMAN-charge/)
data_2017[Ag][srs]3[ION]31
_chemical_formula_sum              "Ag6 H120 C144 N40 Cl6 O24"
_cell_length_a       18.4496
_cell_length_b       18.4496
_cell_length_c       18.4496
_cell_angle_alpha    109.471
_cell_angle_beta     109.471
_cell_angle_gamma    109.471

_symmetry_space_group_name_H-M    "P 1"
_symmetry_Int_Tables_number       1

loop_
  _symmetry_equiv_pos_as_xyz
  'x, y, z'

loop_
  _atom_site_type_symbol
  _atom_site_label
  _atom_site_symmetry_multiplicity
  _atom_site_fract_x
  _atom_site_fract_y
  _atom_site_fract_z
  _atom_site_occupancy
  _atom_site_charge
Ag  Ag1       1.0  0.04244  0.75000  0.79244  1.0000 0.263303098
Ag  Ag2       1.0  0.45756  0.25000  0.70756  1.0000 0.263303098
Ag  Ag3       1.0  0.79244  0.04244  0.75000  1.0000 0.263303098
Ag  Ag4       1.0  0.70756  0.45756  0.25000  1.0000 0.263303098
Ag  Ag5       1.0  0.75000  0.79244  0.04244  1.0000 0.263303098
Ag  Ag6       1.0  0.25000  0.70756  0.45756  1.0000 0.263303098
H   H1        1.0  0.96570  0.54530  0.89700  1.0000 0.1231090694
H   H2        1.0  0.01330  0.68110  0.90200  1.0000 0.10171888
H   H3        1.0  0.24910  0.78130  0.11160  1.0000 0.1261722216
H   H4        1.0  0.20750  0.64690  0.10460  1.0000 0.1261722216
H   H5        1.0  0.21930  0.88120  0.06570  1.0000 0.1099334999
H   H6        1.0  0.20350  0.08660  0.99110  1.0000 0.1549538194
H   H7        1.0  0.16720  0.12210  0.87970  1.0000 0.1099334999
H   H8        1.0  0.08590  0.00770  0.72780  1.0000 0.1261722216
H   H9        1.0  0.03960  0.86470  0.69870  1.0000 0.10171888
H   H10       1.0  0.20370  0.97480  0.02490  1.0000 0.2793235748
H   H11       1.0  0.14830  0.06870  0.60300  1.0000 0.1231090694
H   H12       1.0  0.27910  0.11130  0.59800  1.0000 0.10171888
H   H13       1.0  0.16970  0.13750  0.38840  1.0000 0.1261722216
H   H14       1.0  0.04230  0.10290  0.39540  1.0000 0.1261722216
H   H15       1.0  0.31550  0.15360  0.43430  1.0000 0.1099334999
H   H16       1.0  0.59550  0.21240  0.50890  1.0000 0.1549538194
H   H17       1.0  0.74240  0.28750  0.62030  1.0000 0.1099334999
H   H18       1.0  0.77990  0.35810  0.77220  1.0000 0.1261722216
H   H19       1.0  0.66600  0.34090  0.80130  1.0000 0.10171888
H   H20       1.0  0.44990  0.17880  0.47510  1.0000 0.2793235748
H   H21       1.0  0.35170  0.95470  0.92040  1.0000 0.1231090694
H   H22       1.0  0.22090  0.81890  0.83220  1.0000 0.10171888
H   H23       1.0  0.33030  0.71870  0.96780  1.0000 0.1261722216
H   H24       1.0  0.45770  0.85310  0.06060  1.0000 0.1261722216
H   H25       1.0  0.18450  0.61880  0.83810  1.0000 0.1099334999
H   H26       1.0  0.90450  0.41340  0.61690  1.0000 0.1549538194
H   H27       1.0  0.75760  0.37790  0.54510  1.0000 0.1099334999
H   H28       1.0  0.72010  0.49230  0.57820  1.0000 0.1261722216
H   H29       1.0  0.83400  0.63530  0.67490  1.0000 0.10171888
H   H30       1.0  0.05010  0.52520  0.72890  1.0000 0.2793235748
H   H31       1.0  0.53430  0.43130  0.57960  1.0000 0.1231090694
H   H32       1.0  0.48670  0.38870  0.66780  1.0000 0.10171888
H   H33       1.0  0.25090  0.36250  0.53220  1.0000 0.1261722216
H   H34       1.0  0.29250  0.39710  0.43940  1.0000 0.1261722216
H   H35       1.0  0.28070  0.34640  0.66190  1.0000 0.1099334999
H   H36       1.0  0.29650  0.28760  0.88310  1.0000 0.1549538194
H   H37       1.0  0.33280  0.21250  0.95490  1.0000 0.1099334999
H   H38       1.0  0.41410  0.14190  0.92180  1.0000 0.1261722216
H   H39       1.0  0.46040  0.15910  0.82510  1.0000 0.10171888
H   H40       1.0  0.29630  0.32120  0.77110  1.0000 0.2793235748
H   H41       1.0  0.89700  0.96570  0.54530  1.0000 0.1231090694
H   H42       1.0  0.90200  0.01330  0.68110  1.0000 0.10171888
H   H43       1.0  0.11160  0.24910  0.78130  1.0000 0.1261722216
H   H44       1.0  0.10460  0.20750  0.64690  1.0000 0.1261722216
H   H45       1.0  0.06570  0.21930  0.88120  1.0000 0.1099334999
H   H46       1.0  0.99110  0.20350  0.08660  1.0000 0.1549538194
H   H47       1.0  0.87970  0.16720  0.12210  1.0000 0.1099334999
H   H48       1.0  0.72780  0.08590  0.00770  1.0000 0.1261722216
H   H49       1.0  0.69870  0.03960  0.86470  1.0000 0.10171888
H   H50       1.0  0.02490  0.20370  0.97480  1.0000 0.2793235748
H   H51       1.0  0.60300  0.14830  0.06870  1.0000 0.1231090694
H   H52       1.0  0.59800  0.27910  0.11130  1.0000 0.10171888
H   H53       1.0  0.38840  0.16970  0.13750  1.0000 0.1261722216
H   H54       1.0  0.39540  0.04230  0.10290  1.0000 0.1261722216
H   H55       1.0  0.43430  0.31550  0.15360  1.0000 0.1099334999
H   H56       1.0  0.50890  0.59550  0.21240  1.0000 0.1549538194
H   H57       1.0  0.62030  0.74240  0.28750  1.0000 0.1099334999
H   H58       1.0  0.77220  0.77990  0.35810  1.0000 0.1261722216
H   H59       1.0  0.80130  0.66600  0.34090  1.0000 0.10171888
H   H60       1.0  0.47510  0.44990  0.17880  1.0000 0.2793235748
H   H61       1.0  0.92040  0.35170  0.95470  1.0000 0.1231090694
H   H62       1.0  0.83220  0.22090  0.81890  1.0000 0.10171888
H   H63       1.0  0.96780  0.33030  0.71870  1.0000 0.1261722216
H   H64       1.0  0.06060  0.45770  0.85310  1.0000 0.1261722216
H   H65       1.0  0.83810  0.18450  0.61880  1.0000 0.1099334999
H   H66       1.0  0.61690  0.90450  0.41340  1.0000 0.1549538194
H   H67       1.0  0.54510  0.75760  0.37790  1.0000 0.1099334999
H   H68       1.0  0.57820  0.72010  0.49230  1.0000 0.1261722216
H   H69       1.0  0.67490  0.83400  0.63530  1.0000 0.10171888
H   H70       1.0  0.72890  0.05010  0.52520  1.0000 0.2793235748
H   H71       1.0  0.57960  0.53430  0.43130  1.0000 0.1231090694
H   H72       1.0  0.66780  0.48670  0.38870  1.0000 0.10171888
H   H73       1.0  0.53220  0.25090  0.36250  1.0000 0.1261722216
H   H74       1.0  0.43940  0.29250  0.39710  1.0000 0.1261722216
H   H75       1.0  0.66190  0.28070  0.34640  1.0000 0.1099334999
H   H76       1.0  0.88310  0.29650  0.28760  1.0000 0.1549538194
H   H77       1.0  0.95490  0.33280  0.21250  1.0000 0.1099334999
H   H78       1.0  0.92180  0.41410  0.14190  1.0000 0.1261722216
H   H79       1.0  0.82510  0.46040  0.15910  1.0000 0.10171888
H   H80       1.0  0.77110  0.29630  0.32120  1.0000 0.2793235748
H   H81       1.0  0.54530  0.89700  0.96570  1.0000 0.1231090694
H   H82       1.0  0.68110  0.90200  0.01330  1.0000 0.10171888
H   H83       1.0  0.78130  0.11160  0.24910  1.0000 0.1261722216
H   H84       1.0  0.64690  0.10460  0.20750  1.0000 0.1261722216
H   H85       1.0  0.88120  0.06570  0.21930  1.0000 0.1099334999
H   H86       1.0  0.08660  0.99110  0.20350  1.0000 0.1549538194
H   H87       1.0  0.12210  0.87970  0.16720  1.0000 0.1099334999
H   H88       1.0  0.00770  0.72780  0.08590  1.0000 0.1261722216
H   H89       1.0  0.86470  0.69870  0.03960  1.0000 0.10171888
H   H90       1.0  0.97480  0.02490  0.20370  1.0000 0.2793235748
H   H91       1.0  0.06870  0.60300  0.14830  1.0000 0.1231090694
H   H92       1.0  0.11130  0.59800  0.27910  1.0000 0.10171888
H   H93       1.0  0.13750  0.38840  0.16970  1.0000 0.1261722216
H   H94       1.0  0.10290  0.39540  0.04230  1.0000 0.1261722216
H   H95       1.0  0.15360  0.43430  0.31550  1.0000 0.1099334999
H   H96       1.0  0.21240  0.50890  0.59550  1.0000 0.1549538194
H   H97       1.0  0.28750  0.62030  0.74240  1.0000 0.1099334999
H   H98       1.0  0.35810  0.77220  0.77990  1.0000 0.1261722216
H   H99       1.0  0.34090  0.80130  0.66600  1.0000 0.10171888
H   H100      1.0  0.17880  0.47510  0.44990  1.0000 0.2793235748
H   H101      1.0  0.95470  0.92040  0.35170  1.0000 0.1231090694
H   H102      1.0  0.81890  0.83220  0.22090  1.0000 0.10171888
H   H103      1.0  0.71870  0.96780  0.33030  1.0000 0.1261722216
H   H104      1.0  0.85310  0.06060  0.45770  1.0000 0.1261722216
H   H105      1.0  0.61880  0.83810  0.18450  1.0000 0.1099334999
H   H106      1.0  0.41340  0.61690  0.90450  1.0000 0.1549538194
H   H107      1.0  0.37790  0.54510  0.75760  1.0000 0.1099334999
H   H108      1.0  0.49230  0.57820  0.72010  1.0000 0.1261722216
H   H109      1.0  0.63530  0.67490  0.83400  1.0000 0.10171888
H   H110      1.0  0.52520  0.72890  0.05010  1.0000 0.2793235748
H   H111      1.0  0.43130  0.57960  0.53430  1.0000 0.1231090694
H   H112      1.0  0.38870  0.66780  0.48670  1.0000 0.10171888
H   H113      1.0  0.36250  0.53220  0.25090  1.0000 0.1261722216
H   H114      1.0  0.39710  0.43940  0.29250  1.0000 0.1261722216
H   H115      1.0  0.34640  0.66190  0.28070  1.0000 0.1099334999
H   H116      1.0  0.28760  0.88310  0.29650  1.0000 0.1549538194
H   H117      1.0  0.21250  0.95490  0.33280  1.0000 0.1099334999
H   H118      1.0  0.14190  0.92180  0.41410  1.0000 0.1261722216
H   H119      1.0  0.15910  0.82510  0.46040  1.0000 0.10171888
H   H120      1.0  0.32120  0.77110  0.29630  1.0000 0.2793235748
C   C1        1.0  0.08200  0.58160  0.00260  1.0000 0.1767125596
C   C2        1.0  0.02350  0.59270  0.94040  1.0000 -0.1972832126
C   C3        1.0  0.05200  0.67410  0.94390  1.0000 -0.1397813329
C   C4        1.0  0.13540  0.74470  0.00710  1.0000 0.0589392714
C   C5        1.0  0.19200  0.73320  0.06740  1.0000 -0.1216468544
C   C6        1.0  0.16660  0.65340  0.06420  1.0000 -0.1837247939
C   C7        1.0  0.16770  0.83260  0.01350  1.0000 -0.0200374916
C   C8        1.0  0.14120  0.95210  0.90630  1.0000 0.3371125131
C   C9        1.0  0.17040  0.04210  0.93110  1.0000 -0.2340983295
C   C10       1.0  0.14910  0.06270  0.86500  1.0000 -0.014060194
C   C11       1.0  0.09980  0.99480  0.77420  1.0000 -0.1972832126
C   C12       1.0  0.07410  0.91070  0.75820  1.0000 0.0589392714
C   C13       1.0  0.07900  0.07940  0.49740  1.0000 0.1767125596
C   C14       1.0  0.15230  0.08310  0.55960  1.0000 -0.2064854955
C   C15       1.0  0.23020  0.10810  0.55610  1.0000 -0.1397813329
C   C16       1.0  0.23760  0.12830  0.49290  1.0000 0.0589392714
C   C17       1.0  0.16580  0.12460  0.43260  1.0000 -0.1216468544
C   C18       1.0  0.08920  0.10240  0.43580  1.0000 -0.1837247939
C   C19       1.0  0.31910  0.15420  0.48650  1.0000 -0.0200374916
C   C20       1.0  0.54580  0.23490  0.59370  1.0000 0.3371125131
C   C21       1.0  0.61100  0.23930  0.56890  1.0000 -0.2340983295
C   C22       1.0  0.69770  0.28410  0.63500  1.0000 -0.014060194
C   C23       1.0  0.72060  0.32560  0.72580  1.0000 -0.1972832126
C   C24       1.0  0.65250  0.31590  0.74180  1.0000 0.0589392714
C   C25       1.0  0.42100  0.91840  0.00040  1.0000 0.1767125596
C   C26       1.0  0.34770  0.90730  0.93080  1.0000 -0.2064854955
C   C27       1.0  0.26980  0.82590  0.87790  1.0000 -0.1397813329
C   C28       1.0  0.26240  0.75530  0.89070  1.0000 0.0589392714
C   C29       1.0  0.33420  0.76680  0.95880  1.0000 -0.1216468544
C   C30       1.0  0.41080  0.84660  0.01320  1.0000 -0.1837247939
C   C31       1.0  0.18090  0.66740  0.83510  1.0000 -0.0200374916
C   C32       1.0  0.95420  0.54790  0.68910  1.0000 0.3371125131
C   C33       1.0  0.88900  0.45790  0.62830  1.0000 -0.2340983295
C   C34       1.0  0.80230  0.43730  0.58640  1.0000 -0.014060194
C   C35       1.0  0.77940  0.50520  0.60500  1.0000 -0.1972832126
C   C36       1.0  0.84750  0.58930  0.66340  1.0000 0.0589392714
C   C37       1.0  0.41800  0.42060  0.49960  1.0000 0.1767125596
C   C38       1.0  0.47650  0.41690  0.56920  1.0000 -0.2064854955
C   C39       1.0  0.44800  0.39190  0.62210  1.0000 -0.1397813329
C   C40       1.0  0.36460  0.37170  0.60930  1.0000 0.0589392714
C   C41       1.0  0.30800  0.37540  0.54120  1.0000 -0.1216468544
C   C42       1.0  0.33340  0.39760  0.48680  1.0000 -0.1837247939
C   C43       1.0  0.33230  0.34580  0.66490  1.0000 -0.0200374916
C   C44       1.0  0.35880  0.26510  0.81090  1.0000 0.3371125131
C   C45       1.0  0.32960  0.26070  0.87170  1.0000 -0.2340983295
C   C46       1.0  0.35090  0.21590  0.91360  1.0000 -0.014060194
C   C47       1.0  0.40020  0.17440  0.89500  1.0000 -0.1972832126
C   C48       1.0  0.42590  0.18410  0.83660  1.0000 0.0589392714
C   C49       1.0  0.00260  0.08200  0.58160  1.0000 0.1767125596
C   C50       1.0  0.94040  0.02350  0.59270  1.0000 -0.2064854955
C   C51       1.0  0.94390  0.05200  0.67410  1.0000 -0.1397813329
C   C52       1.0  0.00710  0.13540  0.74470  1.0000 0.0589392714
C   C53       1.0  0.06740  0.19200  0.73320  1.0000 -0.1216468544
C   C54       1.0  0.06420  0.16660  0.65340  1.0000 -0.1837247939
C   C55       1.0  0.01350  0.16770  0.83260  1.0000 -0.0200374916
C   C56       1.0  0.90630  0.14120  0.95210  1.0000 0.3371125131
C   C57       1.0  0.93110  0.17040  0.04210  1.0000 -0.2340983295
C   C58       1.0  0.86500  0.14910  0.06270  1.0000 -0.014060194
C   C59       1.0  0.77420  0.09980  0.99480  1.0000 -0.1972832126
C   C60       1.0  0.75820  0.07410  0.91070  1.0000 0.0589392714
C   C61       1.0  0.49740  0.07900  0.07940  1.0000 0.1767125596
C   C62       1.0  0.55960  0.15230  0.08310  1.0000 -0.2064854955
C   C63       1.0  0.55610  0.23020  0.10810  1.0000 -0.1397813329
C   C64       1.0  0.49290  0.23760  0.12830  1.0000 0.0589392714
C   C65       1.0  0.43260  0.16580  0.12460  1.0000 -0.1216468544
C   C66       1.0  0.43580  0.08920  0.10240  1.0000 -0.1837247939
C   C67       1.0  0.48650  0.31910  0.15420  1.0000 -0.0200374916
C   C68       1.0  0.59370  0.54580  0.23490  1.0000 0.3371125131
C   C69       1.0  0.56890  0.61100  0.23930  1.0000 -0.2340983295
C   C70       1.0  0.63500  0.69770  0.28410  1.0000 -0.014060194
C   C71       1.0  0.72580  0.72060  0.32560  1.0000 -0.1972832126
C   C72       1.0  0.74180  0.65250  0.31590  1.0000 0.0589392714
C   C73       1.0  0.00040  0.42100  0.91840  1.0000 0.1767125596
C   C74       1.0  0.93080  0.34770  0.90730  1.0000 -0.2064854955
C   C75       1.0  0.87790  0.26980  0.82590  1.0000 -0.1397813329
C   C76       1.0  0.89070  0.26240  0.75530  1.0000 0.0589392714
C   C77       1.0  0.95880  0.33420  0.76680  1.0000 -0.1216468544
C   C78       1.0  0.01320  0.41080  0.84660  1.0000 -0.1837247939
C   C79       1.0  0.83510  0.18090  0.66740  1.0000 -0.0200374916
C   C80       1.0  0.68910  0.95420  0.54790  1.0000 0.3371125131
C   C81       1.0  0.62830  0.88900  0.45790  1.0000 -0.2340983295
C   C82       1.0  0.58640  0.80230  0.43730  1.0000 -0.014060194
C   C83       1.0  0.60500  0.77940  0.50520  1.0000 -0.1972832126
C   C84       1.0  0.66340  0.84750  0.58930  1.0000 0.0589392714
C   C85       1.0  0.49960  0.41800  0.42060  1.0000 0.1767125596
C   C86       1.0  0.56920  0.47650  0.41690  1.0000 -0.2064854955
C   C87       1.0  0.62210  0.44800  0.39190  1.0000 -0.1397813329
C   C88       1.0  0.60930  0.36460  0.37170  1.0000 0.0589392714
C   C89       1.0  0.54120  0.30800  0.37540  1.0000 -0.1216468544
C   C90       1.0  0.48680  0.33340  0.39760  1.0000 -0.1837247939
C   C91       1.0  0.66490  0.33230  0.34580  1.0000 -0.0200374916
C   C92       1.0  0.81090  0.35880  0.26510  1.0000 0.3371125131
C   C93       1.0  0.87170  0.32960  0.26070  1.0000 -0.2340983295
C   C94       1.0  0.91360  0.35090  0.21590  1.0000 -0.014060194
C   C95       1.0  0.89500  0.40020  0.17440  1.0000 -0.1972832126
C   C96       1.0  0.83660  0.42590  0.18410  1.0000 0.0589392714
C   C97       1.0  0.58160  0.00260  0.08200  1.0000 0.1767125596
C   C98       1.0  0.59270  0.94040  0.02350  1.0000 -0.2064854955
C   C99       1.0  0.67410  0.94390  0.05200  1.0000 -0.1397813329
C   C100      1.0  0.74470  0.00710  0.13540  1.0000 0.0589392714
C   C101      1.0  0.73320  0.06740  0.19200  1.0000 -0.1216468544
C   C102      1.0  0.65340  0.06420  0.16660  1.0000 -0.1837247939
C   C103      1.0  0.83260  0.01350  0.16770  1.0000 -0.0200374916
C   C104      1.0  0.95210  0.90630  0.14120  1.0000 0.3371125131
C   C105      1.0  0.04210  0.93110  0.17040  1.0000 -0.2340983295
C   C106      1.0  0.06270  0.86500  0.14910  1.0000 -0.014060194
C   C107      1.0  0.99480  0.77420  0.09980  1.0000 -0.1972832126
C   C108      1.0  0.91070  0.75820  0.07410  1.0000 0.0589392714
C   C109      1.0  0.07940  0.49740  0.07900  1.0000 0.1767125596
C   C110      1.0  0.08310  0.55960  0.15230  1.0000 -0.2064854955
C   C111      1.0  0.10810  0.55610  0.23020  1.0000 -0.1397813329
C   C112      1.0  0.12830  0.49290  0.23760  1.0000 0.0589392714
C   C113      1.0  0.12460  0.43260  0.16580  1.0000 -0.1216468544
C   C114      1.0  0.10240  0.43580  0.08920  1.0000 -0.1837247939
C   C115      1.0  0.15420  0.48650  0.31910  1.0000 -0.0200374916
C   C116      1.0  0.23490  0.59370  0.54580  1.0000 0.3371125131
C   C117      1.0  0.23930  0.56890  0.61100  1.0000 -0.2340983295
C   C118      1.0  0.28410  0.63500  0.69770  1.0000 -0.014060194
C   C119      1.0  0.32560  0.72580  0.72060  1.0000 -0.1972832126
C   C120      1.0  0.31590  0.74180  0.65250  1.0000 0.0589392714
C   C121      1.0  0.91840  0.00040  0.42100  1.0000 0.1767125596
C   C122      1.0  0.90730  0.93080  0.34770  1.0000 -0.2064854955
C   C123      1.0  0.82590  0.87790  0.26980  1.0000 -0.1397813329
C   C124      1.0  0.75530  0.89070  0.26240  1.0000 0.0589392714
C   C125      1.0  0.76680  0.95880  0.33420  1.0000 -0.1216468544
C   C126      1.0  0.84660  0.01320  0.41080  1.0000 -0.1837247939
C   C127      1.0  0.66740  0.83510  0.18090  1.0000 -0.0200374916
C   C128      1.0  0.54790  0.68910  0.95420  1.0000 0.3371125131
C   C129      1.0  0.45790  0.62830  0.88900  1.0000 -0.2340983295
C   C130      1.0  0.43730  0.58640  0.80230  1.0000 -0.014060194
C   C131      1.0  0.50520  0.60500  0.77940  1.0000 -0.1972832126
C   C132      1.0  0.58930  0.66340  0.84750  1.0000 0.0589392714
C   C133      1.0  0.42060  0.49960  0.41800  1.0000 0.1767125596
C   C134      1.0  0.41690  0.56920  0.47650  1.0000 -0.2064854955
C   C135      1.0  0.39190  0.62210  0.44800  1.0000 -0.1397813329
C   C136      1.0  0.37170  0.60930  0.36460  1.0000 0.0589392714
C   C137      1.0  0.37540  0.54120  0.30800  1.0000 -0.1216468544
C   C138      1.0  0.39760  0.48680  0.33340  1.0000 -0.1837247939
C   C139      1.0  0.34580  0.66490  0.33230  1.0000 -0.0200374916
C   C140      1.0  0.26510  0.81090  0.35880  1.0000 0.3371125131
C   C141      1.0  0.26070  0.87170  0.32960  1.0000 -0.2340983295
C   C142      1.0  0.21590  0.91360  0.35090  1.0000 -0.014060194
C   C143      1.0  0.17440  0.89500  0.40020  1.0000 -0.1972832126
C   C144      1.0  0.18410  0.83660  0.42590  1.0000 0.0589392714
N   N1        1.0  0.12960  0.84560  0.95240  1.0000 -0.1280029298
N   N2        1.0  0.16500  0.93210  0.97050  1.0000 -0.2064854955
N   N3        1.0  0.09430  0.88840  0.82110  1.0000 -0.2717490923
N   N4        1.0  0.39320  0.17720  0.54760  1.0000 -0.1280029298
N   N5        1.0  0.46160  0.19450  0.52950  1.0000 -0.2064854955
N   N6        1.0  0.56730  0.27320  0.67890  1.0000 -0.2717490923
N   N7        1.0  0.10680  0.65440  0.78400  1.0000 -0.1280029298
N   N8        1.0  0.03840  0.56790  0.73290  1.0000 -0.2064854955
N   N9        1.0  0.93270  0.61160  0.70590  1.0000 -0.2717490923
N   N10       1.0  0.37040  0.32280  0.71600  1.0000 -0.1280029298
N   N11       1.0  0.33500  0.30550  0.76710  1.0000 -0.2064854955
N   N12       1.0  0.40570  0.22680  0.79410  1.0000 -0.2717490923
N   N13       1.0  0.95240  0.12960  0.84560  1.0000 -0.1280029298
N   N14       1.0  0.97050  0.16500  0.93210  1.0000 -0.2064854955
N   N15       1.0  0.82110  0.09430  0.88840  1.0000 -0.2717490923
N   N16       1.0  0.54760  0.39320  0.17720  1.0000 -0.1280029298
N   N17       1.0  0.52950  0.46160  0.19450  1.0000 -0.2064854955
N   N18       1.0  0.67890  0.56730  0.27320  1.0000 -0.2717490923
N   N19       1.0  0.78400  0.10680  0.65440  1.0000 -0.1280029298
N   N20       1.0  0.73290  0.03840  0.56790  1.0000 -0.2064854955
N   N21       1.0  0.70590  0.93270  0.61160  1.0000 -0.2717490923
N   N22       1.0  0.71600  0.37040  0.32280  1.0000 -0.1280029298
N   N23       1.0  0.76710  0.33500  0.30550  1.0000 -0.2064854955
N   N24       1.0  0.79410  0.40570  0.22680  1.0000 -0.2717490923
N   N25       1.0  0.84560  0.95240  0.12960  1.0000 -0.1280029298
N   N26       1.0  0.93210  0.97050  0.16500  1.0000 -0.2064854955
N   N27       1.0  0.88840  0.82110  0.09430  1.0000 -0.2717490923
N   N28       1.0  0.17720  0.54760  0.39320  1.0000 -0.1280029298
N   N29       1.0  0.19450  0.52950  0.46160  1.0000 -0.2064854955
N   N30       1.0  0.27320  0.67890  0.56730  1.0000 -0.2717490923
N   N31       1.0  0.65440  0.78400  0.10680  1.0000 -0.1280029298
N   N32       1.0  0.56790  0.73290  0.03840  1.0000 -0.2064854955
N   N33       1.0  0.61160  0.70590  0.93270  1.0000 -0.2717490923
N   N34       1.0  0.32280  0.71600  0.37040  1.0000 -0.1280029298
N   N35       1.0  0.30550  0.76710  0.33500  1.0000 -0.2064854955
N   N36       1.0  0.22680  0.79410  0.40570  1.0000 -0.2717490923
N   N37       1.0  0.05460  0.50000  0.00000  1.0000 -0.1585530669
N   N38       1.0  0.00000  0.05460  0.50000  1.0000 -0.1585530669
N   N39       1.0  0.50000  0.00000  0.05460  1.0000 -0.1585530669
N   N40       1.0  0.44540  0.44540  0.44540  1.0000 -0.1585530669
Cl  Cl1       1.0  0.44080  0.75000  0.19080  1.0000 1.2514047592
Cl  Cl2       1.0  0.05920  0.25000  0.30920  1.0000 1.2514047592
Cl  Cl3       1.0  0.75000  0.19080  0.44080  1.0000 1.2514047592
Cl  Cl4       1.0  0.25000  0.30920  0.05920  1.0000 1.2514047592
Cl  Cl5       1.0  0.19080  0.44080  0.75000  1.0000 1.2514047592
Cl  Cl6       1.0  0.30920  0.05920  0.25000  1.0000 1.2514047592
O   O1        1.0  0.42850  0.67640  0.20230  1.0000 -0.4848474593
O   O2        1.0  0.37940  0.77390  0.20370  1.0000 -0.4879785857
O   O3        1.0  0.52590  0.82360  0.25210  1.0000 -0.4848474593
O   O4        1.0  0.42980  0.72610  0.10550  1.0000 -0.4879785857
O   O5        1.0  0.07150  0.27380  0.24790  1.0000 -0.4848474593
O   O6        1.0  0.12060  0.32430  0.39450  1.0000 -0.4879785857
O   O7        1.0  0.97410  0.22620  0.29770  1.0000 -0.4848474593
O   O8        1.0  0.07020  0.17570  0.29630  1.0000 -0.4879785857
O   O9        1.0  0.67640  0.20230  0.42850  1.0000 -0.4848474593
O   O10       1.0  0.77390  0.20370  0.37940  1.0000 -0.4879785857
O   O11       1.0  0.82360  0.25210  0.52590  1.0000 -0.4848474593
O   O12       1.0  0.72610  0.10550  0.42980  1.0000 -0.4879785857
O   O13       1.0  0.27380  0.24790  0.07150  1.0000 -0.4848474593
O   O14       1.0  0.32430  0.39450  0.12060  1.0000 -0.4879785857
O   O15       1.0  0.22620  0.29770  0.97410  1.0000 -0.4848474593
O   O16       1.0  0.17570  0.29630  0.07020  1.0000 -0.4879785857
O   O17       1.0  0.20230  0.42850  0.67640  1.0000 -0.4848474593
O   O18       1.0  0.20370  0.37940  0.77390  1.0000 -0.4879785857
O   O19       1.0  0.25210  0.52590  0.82360  1.0000 -0.4848474593
O   O20       1.0  0.10550  0.42980  0.72610  1.0000 -0.4879785857
O   O21       1.0  0.24790  0.07150  0.27380  1.0000 -0.4848474593
O   O22       1.0  0.39450  0.12060  0.32430  1.0000 -0.4879785857
O   O23       1.0  0.29770  0.97410  0.22620  1.0000 -0.4848474593
O   O24       1.0  0.29630  0.07020  0.17570  1.0000 -0.4879785857
