# DDEC6 charges by PACMAN v1.1 (https://github.com/mtap-research/PACMAN-charge/)
data_2017[MnCu][tfz]3[ION]1
_chemical_formula_sum              "Mn12 Cu4 H276 C308 N64 O84"
_cell_length_a       12.4161
_cell_length_b       33.388
_cell_length_c       25.6925
_cell_angle_alpha    90
_cell_angle_beta     95.474
_cell_angle_gamma    90

_symmetry_space_group_name_H-M    "P 1"
_symmetry_Int_Tables_number       1

loop_
  _symmetry_equiv_pos_as_xyz
  'x, y, z'

loop_
  _atom_site_type_symbol
  _atom_site_label
  _atom_site_symmetry_multiplicity
  _atom_site_fract_x
  _atom_site_fract_y
  _atom_site_fract_z
  _atom_site_occupancy
  _atom_site_charge
Mn  Mn1       1.0  0.23011  0.93277  0.30042  1.0000 0.8856817024
Mn  Mn2       1.0  0.83588  0.07356  0.20226  1.0000 0.8856817024
Mn  Mn3       1.0  0.02451  0.00210  0.25268  1.0000 1.0876155334
Mn  Mn4       1.0  0.76989  0.43277  0.19958  1.0000 0.8856817024
Mn  Mn5       1.0  0.16412  0.57356  0.29774  1.0000 0.8856817024
Mn  Mn6       1.0  0.97549  0.50210  0.24732  1.0000 1.0876155334
Mn  Mn7       1.0  0.76989  0.06723  0.69958  1.0000 0.8856817024
Mn  Mn8       1.0  0.16412  0.92644  0.79774  1.0000 0.8856817024
Mn  Mn9       1.0  0.97549  0.99790  0.74732  1.0000 1.0876155334
Mn  Mn10      1.0  0.23011  0.56723  0.80042  1.0000 0.8856817024
Mn  Mn11      1.0  0.83588  0.42644  0.70226  1.0000 0.8856817024
Mn  Mn12      1.0  0.02451  0.49790  0.75268  1.0000 1.0876155334
Cu  Cu1       1.0  0.70666  0.25980  0.37122  1.0000 0.7579093712
Cu  Cu2       1.0  0.29334  0.75980  0.12878  1.0000 0.7579093712
Cu  Cu3       1.0  0.29334  0.74020  0.62878  1.0000 0.7579093712
Cu  Cu4       1.0  0.70666  0.24020  0.87122  1.0000 0.7579093712
H   H1        1.0  0.69570  0.94860  0.33600  1.0000 0.1207984
H   H2        1.0  0.55350  0.08890  0.38320  1.0000 0.128966163
H   H3        1.0  0.20000  0.04120  0.18520  1.0000 0.128966163
H   H4        1.0  0.38000  0.05140  0.17570  1.0000 0.1207984
H   H5        1.0  0.71520  0.83270  0.29110  1.0000 0.128966163
H   H6        1.0  0.28670  0.15570  0.34540  1.0000 0.128966163
H   H7        1.0  0.67010  0.10480  0.94990  1.0000 0.1207984
H   H8        1.0  0.89520  0.84340  0.27720  1.0000 0.128966163
H   H9        1.0  0.87820  0.95800  0.32630  1.0000 0.128966163
H   H10       1.0  0.18790  0.09680  0.32070  1.0000 0.128966163
H   H11       1.0  0.15140  0.40600  0.31540  1.0000 0.1207984
H   H12       1.0  0.88890  0.01980  0.10950  1.0000 0.1604638514
H   H13       1.0  0.88070  0.01720  0.04700  1.0000 0.1410351559
H   H14       1.0  0.98550  0.03650  0.07850  1.0000 0.1508171951
H   H15       1.0  0.25510  0.35070  0.34130  1.0000 0.1207984
H   H16       1.0  0.34240  0.82590  0.38620  1.0000 0.128966163
H   H17       1.0  0.25960  0.84340  0.34000  1.0000 0.1604638514
H   H18       1.0  0.51740  0.79970  0.36380  1.0000 0.1508171951
H   H19       1.0  0.63310  0.82060  0.37550  1.0000 0.1508171951
H   H20       1.0  0.54190  0.82700  0.41470  1.0000 0.1410351559
H   H21       1.0  0.72460  0.18070  0.12280  1.0000 0.1410351559
H   H22       1.0  0.80660  0.16070  0.16730  1.0000 0.1674061167
H   H23       1.0  0.61620  0.25910  0.47370  1.0000 0.1508171951
H   H24       1.0  0.48940  0.25630  0.48060  1.0000 0.1410351559
H   H25       1.0  0.39990  0.47900  0.36010  1.0000 0.128966163
H   H26       1.0  0.49590  0.97360  0.28440  1.0000 0.1604638514
H   H27       1.0  0.56430  0.94710  0.24740  1.0000 0.1508171951
H   H28       1.0  0.43540  0.94950  0.23630  1.0000 0.1604638514
H   H29       1.0  0.07430  0.96740  0.38840  1.0000 0.1604638514
H   H30       1.0  0.08510  0.97260  0.45060  1.0000 0.1410351559
H   H31       1.0  0.17360  0.99200  0.41690  1.0000 0.1604638514
H   H32       1.0  0.64410  0.05490  0.26690  1.0000 0.1604638514
H   H33       1.0  0.51600  0.06050  0.26600  1.0000 0.1508171951
H   H34       1.0  0.56470  0.03240  0.22360  1.0000 0.1604638514
H   H35       1.0  0.34470  0.17020  0.19790  1.0000 0.128966163
H   H36       1.0  0.16090  0.16090  0.20600  1.0000 0.128966163
H   H37       1.0  0.53850  0.17950  0.08950  1.0000 0.1410351559
H   H38       1.0  0.42830  0.17690  0.11690  1.0000 0.1604638514
H   H39       1.0  0.52530  0.20470  0.14140  1.0000 0.1604638514
H   H40       1.0  0.13330  0.87680  0.63280  1.0000 0.128966163
H   H41       1.0  0.71240  0.17640  0.32190  1.0000 0.1604638514
H   H42       1.0  0.64330  0.13590  0.32240  1.0000 0.1508171951
H   H43       1.0  0.60120  0.17230  0.28530  1.0000 0.1604638514
H   H44       1.0  0.74970  0.19080  0.03990  1.0000 0.1604638514
H   H45       1.0  0.75360  0.16820  0.98510  1.0000 0.1604638514
H   H46       1.0  0.64880  0.16440  0.01660  1.0000 0.1508171951
H   H47       1.0  0.17020  0.86230  0.54710  1.0000 0.1207984
H   H48       1.0  0.45490  0.03020  0.35840  1.0000 0.1207984
H   H49       1.0  0.17570  0.99450  0.60570  1.0000 0.128966163
H   H50       1.0  0.22660  0.98050  0.52350  1.0000 0.1207984
H   H51       1.0  0.57280  0.37500  0.30310  1.0000 0.1508171951
H   H52       1.0  0.67040  0.34380  0.31270  1.0000 0.1604638514
H   H53       1.0  0.56090  0.33090  0.27900  1.0000 0.1604638514
H   H54       1.0  0.97600  0.06280  0.97870  1.0000 0.1207984
H   H55       1.0  0.50090  0.42450  0.39040  1.0000 0.1207984
H   H56       1.0  0.40920  0.84020  0.47330  1.0000 0.1508171951
H   H57       1.0  0.35440  0.85450  0.52410  1.0000 0.1508171951
H   H58       1.0  0.29660  0.82110  0.48640  1.0000 0.1604638514
H   H59       1.0  0.67290  0.08800  0.86340  1.0000 0.1207984
H   H60       1.0  0.34410  0.16330  0.45790  1.0000 0.1508171951
H   H61       1.0  0.39620  0.20140  0.48850  1.0000 0.1410351559
H   H62       1.0  0.30990  0.20750  0.43870  1.0000 0.1508171951
H   H63       1.0  0.96950  0.04050  0.89170  1.0000 0.128966163
H   H64       1.0  0.39310  0.31990  0.49520  1.0000 0.1508171951
H   H65       1.0  0.31100  0.34180  0.45260  1.0000 0.1508171951
H   H66       1.0  0.31790  0.29400  0.45380  1.0000 0.1508171951
H   H67       1.0  0.03800  0.33110  0.34000  1.0000 0.1786961031
H   H68       1.0  0.95940  0.36640  0.31800  1.0000 0.1786961031
H   H69       1.0  0.99910  0.36430  0.37910  1.0000 0.1674061167
H   H70       1.0  0.30430  0.44860  0.16400  1.0000 0.1207984
H   H71       1.0  0.44650  0.58890  0.11680  1.0000 0.128966163
H   H72       1.0  0.80000  0.54120  0.31480  1.0000 0.128966163
H   H73       1.0  0.62000  0.55140  0.32430  1.0000 0.1207984
H   H74       1.0  0.28480  0.33270  0.20890  1.0000 0.128966163
H   H75       1.0  0.71330  0.65570  0.15460  1.0000 0.128966163
H   H76       1.0  0.32990  0.60480  0.55010  1.0000 0.1207984
H   H77       1.0  0.10480  0.34340  0.22280  1.0000 0.128966163
H   H78       1.0  0.12180  0.45800  0.17370  1.0000 0.128966163
H   H79       1.0  0.81210  0.59680  0.17930  1.0000 0.128966163
H   H80       1.0  0.84860  0.90600  0.18460  1.0000 0.1207984
H   H81       1.0  0.11110  0.51980  0.39050  1.0000 0.1604638514
H   H82       1.0  0.11930  0.51720  0.45300  1.0000 0.1410351559
H   H83       1.0  0.01450  0.53650  0.42150  1.0000 0.1508171951
H   H84       1.0  0.74490  0.85070  0.15870  1.0000 0.1207984
H   H85       1.0  0.65760  0.32590  0.11380  1.0000 0.128966163
H   H86       1.0  0.74040  0.34340  0.16000  1.0000 0.1604638514
H   H87       1.0  0.48260  0.29970  0.13620  1.0000 0.1508171951
H   H88       1.0  0.36690  0.32060  0.12450  1.0000 0.1508171951
H   H89       1.0  0.45810  0.32700  0.08530  1.0000 0.1410351559
H   H90       1.0  0.27540  0.68070  0.37720  1.0000 0.1410351559
H   H91       1.0  0.19340  0.66070  0.33270  1.0000 0.1674061167
H   H92       1.0  0.38380  0.75910  0.02630  1.0000 0.1508171951
H   H93       1.0  0.51060  0.75630  0.01940  1.0000 0.1410351559
H   H94       1.0  0.60010  0.97900  0.13990  1.0000 0.128966163
H   H95       1.0  0.50410  0.47360  0.21560  1.0000 0.1604638514
H   H96       1.0  0.43570  0.44710  0.25260  1.0000 0.1508171951
H   H97       1.0  0.56460  0.44950  0.26370  1.0000 0.1604638514
H   H98       1.0  0.92570  0.46740  0.11160  1.0000 0.1604638514
H   H99       1.0  0.91490  0.47260  0.04940  1.0000 0.1410351559
H   H100      1.0  0.82640  0.49200  0.08310  1.0000 0.1604638514
H   H101      1.0  0.35590  0.55490  0.23310  1.0000 0.1604638514
H   H102      1.0  0.48400  0.56050  0.23400  1.0000 0.1508171951
H   H103      1.0  0.43530  0.53240  0.27640  1.0000 0.1604638514
H   H104      1.0  0.65530  0.67020  0.30210  1.0000 0.128966163
H   H105      1.0  0.83910  0.66090  0.29400  1.0000 0.128966163
H   H106      1.0  0.46150  0.67950  0.41050  1.0000 0.1410351559
H   H107      1.0  0.57170  0.67690  0.38310  1.0000 0.1604638514
H   H108      1.0  0.47470  0.70470  0.35860  1.0000 0.1604638514
H   H109      1.0  0.86670  0.37680  0.86720  1.0000 0.128966163
H   H110      1.0  0.28760  0.67640  0.17810  1.0000 0.1604638514
H   H111      1.0  0.35670  0.63590  0.17760  1.0000 0.1508171951
H   H112      1.0  0.39880  0.67230  0.21470  1.0000 0.1604638514
H   H113      1.0  0.25030  0.69080  0.46010  1.0000 0.1604638514
H   H114      1.0  0.24640  0.66820  0.51490  1.0000 0.1604638514
H   H115      1.0  0.35120  0.66440  0.48340  1.0000 0.1508171951
H   H116      1.0  0.82980  0.36230  0.95290  1.0000 0.1207984
H   H117      1.0  0.54510  0.53020  0.14160  1.0000 0.1207984
H   H118      1.0  0.82430  0.49450  0.89430  1.0000 0.128966163
H   H119      1.0  0.77340  0.48050  0.97650  1.0000 0.1207984
H   H120      1.0  0.42720  0.87500  0.19690  1.0000 0.1508171951
H   H121      1.0  0.32960  0.84380  0.18730  1.0000 0.1604638514
H   H122      1.0  0.43910  0.83090  0.22100  1.0000 0.1604638514
H   H123      1.0  0.02400  0.56280  0.52130  1.0000 0.1207984
H   H124      1.0  0.49910  0.92450  0.10960  1.0000 0.1207984
H   H125      1.0  0.59080  0.34020  0.02670  1.0000 0.1508171951
H   H126      1.0  0.64560  0.35450  0.97590  1.0000 0.1508171951
H   H127      1.0  0.70340  0.32110  0.01360  1.0000 0.1604638514
H   H128      1.0  0.32710  0.58800  0.63660  1.0000 0.1207984
H   H129      1.0  0.65590  0.66330  0.04210  1.0000 0.1508171951
H   H130      1.0  0.60380  0.70140  0.01150  1.0000 0.1410351559
H   H131      1.0  0.69010  0.70750  0.06130  1.0000 0.1508171951
H   H132      1.0  0.03050  0.54050  0.60830  1.0000 0.128966163
H   H133      1.0  0.60690  0.81990  0.00480  1.0000 0.1508171951
H   H134      1.0  0.68900  0.84180  0.04740  1.0000 0.1508171951
H   H135      1.0  0.68210  0.79400  0.04620  1.0000 0.1508171951
H   H136      1.0  0.96200  0.83110  0.16000  1.0000 0.1786961031
H   H137      1.0  0.04060  0.86640  0.18200  1.0000 0.1786961031
H   H138      1.0  0.00090  0.86430  0.12090  1.0000 0.1674061167
H   H139      1.0  0.30430  0.05140  0.66400  1.0000 0.1207984
H   H140      1.0  0.44650  0.91110  0.61680  1.0000 0.128966163
H   H141      1.0  0.80000  0.95880  0.81480  1.0000 0.128966163
H   H142      1.0  0.62000  0.94860  0.82430  1.0000 0.1207984
H   H143      1.0  0.28480  0.16730  0.70890  1.0000 0.128966163
H   H144      1.0  0.71330  0.84430  0.65460  1.0000 0.128966163
H   H145      1.0  0.32990  0.89520  0.05010  1.0000 0.1207984
H   H146      1.0  0.10480  0.15660  0.72280  1.0000 0.128966163
H   H147      1.0  0.12180  0.04200  0.67370  1.0000 0.128966163
H   H148      1.0  0.81210  0.90320  0.67930  1.0000 0.128966163
H   H149      1.0  0.84860  0.59400  0.68460  1.0000 0.1207984
H   H150      1.0  0.11110  0.98020  0.89050  1.0000 0.1604638514
H   H151      1.0  0.11930  0.98280  0.95300  1.0000 0.1410351559
H   H152      1.0  0.01450  0.96350  0.92150  1.0000 0.1508171951
H   H153      1.0  0.74490  0.64930  0.65870  1.0000 0.1207984
H   H154      1.0  0.65760  0.17410  0.61380  1.0000 0.128966163
H   H155      1.0  0.74040  0.15660  0.66000  1.0000 0.1604638514
H   H156      1.0  0.48260  0.20030  0.63620  1.0000 0.1508171951
H   H157      1.0  0.36690  0.17940  0.62450  1.0000 0.1508171951
H   H158      1.0  0.45810  0.17300  0.58530  1.0000 0.1410351559
H   H159      1.0  0.27540  0.81930  0.87720  1.0000 0.1410351559
H   H160      1.0  0.19340  0.83930  0.83270  1.0000 0.1604638514
H   H161      1.0  0.38380  0.74090  0.52630  1.0000 0.1508171951
H   H162      1.0  0.51060  0.74370  0.51940  1.0000 0.1410351559
H   H163      1.0  0.60010  0.52100  0.63990  1.0000 0.128966163
H   H164      1.0  0.50410  0.02640  0.71560  1.0000 0.1604638514
H   H165      1.0  0.43570  0.05290  0.75260  1.0000 0.1508171951
H   H166      1.0  0.56460  0.05050  0.76370  1.0000 0.1604638514
H   H167      1.0  0.92570  0.03260  0.61160  1.0000 0.1604638514
H   H168      1.0  0.91490  0.02740  0.54940  1.0000 0.1410351559
H   H169      1.0  0.82640  0.00800  0.58310  1.0000 0.1604638514
H   H170      1.0  0.35590  0.94510  0.73310  1.0000 0.1604638514
H   H171      1.0  0.48400  0.93950  0.73400  1.0000 0.1508171951
H   H172      1.0  0.43530  0.96760  0.77640  1.0000 0.1604638514
H   H173      1.0  0.65530  0.82980  0.80210  1.0000 0.128966163
H   H174      1.0  0.83910  0.83910  0.79400  1.0000 0.128966163
H   H175      1.0  0.46150  0.82050  0.91050  1.0000 0.1410351559
H   H176      1.0  0.57170  0.82310  0.88310  1.0000 0.1604638514
H   H177      1.0  0.47470  0.79530  0.85860  1.0000 0.1604638514
H   H178      1.0  0.86670  0.12320  0.36720  1.0000 0.128966163
H   H179      1.0  0.28760  0.82360  0.67810  1.0000 0.1604638514
H   H180      1.0  0.35670  0.86410  0.67760  1.0000 0.1508171951
H   H181      1.0  0.39880  0.82770  0.71470  1.0000 0.1604638514
H   H182      1.0  0.25030  0.80920  0.96010  1.0000 0.1604638514
H   H183      1.0  0.24640  0.83180  0.01490  1.0000 0.1604638514
H   H184      1.0  0.35120  0.83560  0.98340  1.0000 0.1508171951
H   H185      1.0  0.82980  0.13770  0.45290  1.0000 0.1207984
H   H186      1.0  0.54510  0.96980  0.64160  1.0000 0.1207984
H   H187      1.0  0.82430  0.00550  0.39430  1.0000 0.128966163
H   H188      1.0  0.77340  0.01950  0.47650  1.0000 0.1207984
H   H189      1.0  0.42720  0.62500  0.69690  1.0000 0.1508171951
H   H190      1.0  0.32960  0.65620  0.68730  1.0000 0.1604638514
H   H191      1.0  0.43910  0.66910  0.72100  1.0000 0.1604638514
H   H192      1.0  0.02400  0.93720  0.02130  1.0000 0.1207984
H   H193      1.0  0.49910  0.57550  0.60960  1.0000 0.1207984
H   H194      1.0  0.59080  0.15980  0.52670  1.0000 0.1508171951
H   H195      1.0  0.64560  0.14550  0.47590  1.0000 0.1508171951
H   H196      1.0  0.70340  0.17890  0.51360  1.0000 0.1604638514
H   H197      1.0  0.32710  0.91200  0.13660  1.0000 0.1207984
H   H198      1.0  0.65590  0.83670  0.54210  1.0000 0.1508171951
H   H199      1.0  0.60380  0.79860  0.51150  1.0000 0.1410351559
H   H200      1.0  0.69010  0.79250  0.56130  1.0000 0.1508171951
H   H201      1.0  0.03050  0.95950  0.10830  1.0000 0.128966163
H   H202      1.0  0.60690  0.68010  0.50480  1.0000 0.1508171951
H   H203      1.0  0.68900  0.65820  0.54740  1.0000 0.1508171951
H   H204      1.0  0.68210  0.70600  0.54620  1.0000 0.1508171951
H   H205      1.0  0.96200  0.66890  0.66000  1.0000 0.1786961031
H   H206      1.0  0.04060  0.63360  0.68200  1.0000 0.1786961031
H   H207      1.0  0.00090  0.63570  0.62090  1.0000 0.1674061167
H   H208      1.0  0.69570  0.55140  0.83600  1.0000 0.1207984
H   H209      1.0  0.55350  0.41110  0.88320  1.0000 0.128966163
H   H210      1.0  0.20000  0.45880  0.68520  1.0000 0.128966163
H   H211      1.0  0.38000  0.44860  0.67570  1.0000 0.1207984
H   H212      1.0  0.71520  0.66730  0.79110  1.0000 0.128966163
H   H213      1.0  0.28670  0.34430  0.84540  1.0000 0.128966163
H   H214      1.0  0.67010  0.39520  0.44990  1.0000 0.1207984
H   H215      1.0  0.89520  0.65660  0.77720  1.0000 0.128966163
H   H216      1.0  0.87820  0.54200  0.82630  1.0000 0.128966163
H   H217      1.0  0.18790  0.40320  0.82070  1.0000 0.128966163
H   H218      1.0  0.15140  0.09400  0.81540  1.0000 0.1207984
H   H219      1.0  0.88890  0.48020  0.60950  1.0000 0.1604638514
H   H220      1.0  0.88070  0.48280  0.54700  1.0000 0.1410351559
H   H221      1.0  0.98550  0.46350  0.57850  1.0000 0.1508171951
H   H222      1.0  0.25510  0.14930  0.84130  1.0000 0.1207984
H   H223      1.0  0.34240  0.67410  0.88620  1.0000 0.128966163
H   H224      1.0  0.25960  0.65660  0.84000  1.0000 0.1604638514
H   H225      1.0  0.51740  0.70030  0.86380  1.0000 0.1508171951
H   H226      1.0  0.63310  0.67940  0.87550  1.0000 0.1508171951
H   H227      1.0  0.54190  0.67300  0.91470  1.0000 0.1410351559
H   H228      1.0  0.72460  0.31930  0.62280  1.0000 0.1410351559
H   H229      1.0  0.80660  0.33930  0.66730  1.0000 0.1604638514
H   H230      1.0  0.61620  0.24090  0.97370  1.0000 0.1508171951
H   H231      1.0  0.48940  0.24370  0.98060  1.0000 0.1410351559
H   H232      1.0  0.39990  0.02100  0.86010  1.0000 0.128966163
H   H233      1.0  0.49590  0.52640  0.78440  1.0000 0.1604638514
H   H234      1.0  0.56430  0.55290  0.74740  1.0000 0.1508171951
H   H235      1.0  0.43540  0.55050  0.73630  1.0000 0.1604638514
H   H236      1.0  0.07430  0.53260  0.88840  1.0000 0.1604638514
H   H237      1.0  0.08510  0.52740  0.95060  1.0000 0.1410351559
H   H238      1.0  0.17360  0.50800  0.91690  1.0000 0.1604638514
H   H239      1.0  0.64410  0.44510  0.76690  1.0000 0.1604638514
H   H240      1.0  0.51600  0.43950  0.76600  1.0000 0.1508171951
H   H241      1.0  0.56470  0.46760  0.72360  1.0000 0.1604638514
H   H242      1.0  0.34470  0.32980  0.69790  1.0000 0.1207984
H   H243      1.0  0.16090  0.33910  0.70600  1.0000 0.128966163
H   H244      1.0  0.53850  0.32050  0.58950  1.0000 0.1410351559
H   H245      1.0  0.42830  0.32310  0.61690  1.0000 0.1604638514
H   H246      1.0  0.52530  0.29530  0.64140  1.0000 0.1604638514
H   H247      1.0  0.13330  0.62320  0.13280  1.0000 0.128966163
H   H248      1.0  0.71240  0.32360  0.82190  1.0000 0.1604638514
H   H249      1.0  0.64330  0.36410  0.82240  1.0000 0.1508171951
H   H250      1.0  0.60120  0.32770  0.78530  1.0000 0.1604638514
H   H251      1.0  0.74970  0.30920  0.53990  1.0000 0.1604638514
H   H252      1.0  0.75360  0.33180  0.48510  1.0000 0.1604638514
H   H253      1.0  0.64880  0.33560  0.51660  1.0000 0.1508171951
H   H254      1.0  0.17020  0.63770  0.04710  1.0000 0.1207984
H   H255      1.0  0.45490  0.46980  0.85840  1.0000 0.1207984
H   H256      1.0  0.17570  0.50550  0.10570  1.0000 0.128966163
H   H257      1.0  0.22660  0.51950  0.02350  1.0000 0.1207984
H   H258      1.0  0.57280  0.12500  0.80310  1.0000 0.1508171951
H   H259      1.0  0.67040  0.15620  0.81270  1.0000 0.1604638514
H   H260      1.0  0.56090  0.16910  0.77900  1.0000 0.1604638514
H   H261      1.0  0.97600  0.43720  0.47870  1.0000 0.1207984
H   H262      1.0  0.50090  0.07550  0.89040  1.0000 0.1207984
H   H263      1.0  0.40920  0.65980  0.97330  1.0000 0.1508171951
H   H264      1.0  0.35440  0.64550  0.02410  1.0000 0.1508171951
H   H265      1.0  0.29660  0.67890  0.98640  1.0000 0.1604638514
H   H266      1.0  0.67290  0.41200  0.36340  1.0000 0.1207984
H   H267      1.0  0.34410  0.33670  0.95790  1.0000 0.1508171951
H   H268      1.0  0.39620  0.29860  0.98850  1.0000 0.1410351559
H   H269      1.0  0.30990  0.29250  0.93870  1.0000 0.1508171951
H   H270      1.0  0.96950  0.45950  0.39170  1.0000 0.128966163
H   H271      1.0  0.39310  0.18010  0.99520  1.0000 0.1508171951
H   H272      1.0  0.31100  0.15820  0.95260  1.0000 0.1508171951
H   H273      1.0  0.31790  0.20600  0.95380  1.0000 0.1508171951
H   H274      1.0  0.03800  0.16890  0.84000  1.0000 0.1786961031
H   H275      1.0  0.95940  0.13360  0.81800  1.0000 0.1786961031
H   H276      1.0  0.99910  0.13570  0.87910  1.0000 0.1674061167
C   C1        1.0  0.90330  0.90080  0.30120  1.0000 -0.0307436788
C   C2        1.0  0.24860  0.02200  0.31830  1.0000 0.5869849982
C   C3        1.0  0.57990  0.18150  0.36140  1.0000 0.2336648168
C   C4        1.0  0.77550  0.13090  0.04770  1.0000 0.1604638514
C   C5        1.0  0.38070  0.11160  0.18820  1.0000 0.1120584241
C   C6        1.0  0.15900  0.10020  0.19710  1.0000 -0.0307436788
C   C7        1.0  0.31290  0.05870  0.33630  1.0000 -0.0307436788
C   C8        1.0  0.82080  0.05070  0.81320  1.0000 0.5869849982
C   C9        1.0  0.19590  0.48320  0.31320  1.0000 0.5869849982
C   C10       1.0  0.81850  0.09720  0.02940  1.0000 -0.1576732171
C   C11       1.0  0.12600  0.94540  0.68200  1.0000 0.5869849982
C   C12       1.0  0.56800  0.88700  0.32060  1.0000 -0.1811640238
C   C13       1.0  0.73640  0.92670  0.32460  1.0000 -0.1400252524
C   C14       1.0  0.28080  0.87750  0.45630  1.0000 0.1786961031
C   C15       1.0  0.55160  0.14520  0.15550  1.0000 0.1956571477
C   C16       1.0  0.68350  0.89020  0.31470  1.0000 0.1207984
C   C17       1.0  0.51570  0.85860  0.34820  1.0000 0.1786961031
C   C18       1.0  0.02040  0.90740  0.29380  1.0000 0.5681489545
C   C19       1.0  0.42940  0.12780  0.36690  1.0000 0.1120584241
C   C20       1.0  0.49900  0.11660  0.18440  1.0000 -0.1696705048
C   C21       1.0  0.82150  0.06230  0.86940  1.0000 -0.0307436788
C   C22       1.0  0.47930  0.09080  0.37050  1.0000 -0.147540066
C   C23       1.0  0.19880  0.92010  0.52570  1.0000 0.1120584241
C   C24       1.0  0.22870  0.06760  0.18790  1.0000 -0.0920085611
C   C25       1.0  0.48520  0.91290  0.29890  1.0000 0.2515598722
C   C26       1.0  0.85430  0.07350  0.07380  1.0000 0.2390421766
C   C27       1.0  0.82250  0.08540  0.97480  1.0000 0.1120584241
C   C28       1.0  0.33570  0.07350  0.18290  1.0000 -0.1400252524
C   C29       1.0  0.22270  0.90960  0.47200  1.0000 -0.1696705048
C   C30       1.0  0.74680  0.85840  0.29750  1.0000 -0.1400252524
C   C31       1.0  0.45810  0.19100  0.41960  1.0000 0.1674061167
C   C32       1.0  0.32140  0.13040  0.34820  1.0000 -0.147540066
C   C33       1.0  0.19020  0.93170  0.42560  1.0000 0.2515598722
C   C34       1.0  0.73270  0.09250  0.93850  1.0000 -0.1400252524
C   C35       1.0  0.85440  0.86470  0.29020  1.0000 -0.0998422121
C   C36       1.0  0.26350  0.44840  0.33310  1.0000 -0.0371998701
C   C37       1.0  0.84480  0.93280  0.31860  1.0000 -0.0998422121
C   C38       1.0  0.26230  0.09500  0.33300  1.0000 -0.0920085611
C   C39       1.0  0.54690  0.33250  0.35720  1.0000 0.2336648168
C   C40       1.0  0.04310  0.09390  0.20410  1.0000 0.5681489545
C   C41       1.0  0.22430  0.40990  0.32930  1.0000 -0.0998422121
C   C42       1.0  0.90690  0.03330  0.07750  1.0000 -0.4792290268
C   C43       1.0  0.28540  0.37680  0.34480  1.0000 -0.147540066
C   C44       1.0  0.31810  0.85060  0.36730  1.0000 -0.0800887871
C   C45       1.0  0.55530  0.82360  0.37800  1.0000 -0.4906343892
C   C46       1.0  0.74700  0.15500  0.13990  1.0000 -0.0800887871
C   C47       1.0  0.54320  0.25760  0.45460  1.0000 -0.0920085611
C   C48       1.0  0.36960  0.45290  0.35610  1.0000 -0.0920085611
C   C49       1.0  0.48730  0.16520  0.38290  1.0000 -0.1576732171
C   C50       1.0  0.45980  0.34660  0.38130  1.0000 -0.1811640238
C   C51       1.0  0.49620  0.94900  0.26360  1.0000 -0.4906343892
C   C52       1.0  0.12520  0.96910  0.41990  1.0000 -0.4792290268
C   C53       1.0  0.57610  0.05690  0.24430  1.0000 -0.4792290268
C   C54       1.0  0.31500  0.14400  0.19580  1.0000 -0.1400252524
C   C55       1.0  0.39440  0.38220  0.36600  1.0000 0.1207984
C   C56       1.0  0.15090  0.93710  0.62790  1.0000 -0.0371998701
C   C57       1.0  0.20520  0.13830  0.20040  1.0000 -0.0920085611
C   C58       1.0  0.50710  0.17950  0.12300  1.0000 -0.4992605739
C   C59       1.0  0.14970  0.89800  0.61010  1.0000 -0.0920085611
C   C60       1.0  0.63920  0.16520  0.31920  1.0000 -0.4906343892
C   C61       1.0  0.72790  0.16660  0.02000  1.0000 -0.4992605739
C   C62       1.0  0.17260  0.88920  0.55910  1.0000 -0.131641188
C   C63       1.0  0.42070  0.05560  0.35540  1.0000 -0.0920085611
C   C64       1.0  0.17690  0.96740  0.59420  1.0000 -0.1118798361
C   C65       1.0  0.20410  0.95940  0.54480  1.0000 -0.1400252524
C   C66       1.0  0.59160  0.34680  0.30890  1.0000 -0.4906343892
C   C67       1.0  0.91230  0.06690  0.95580  1.0000 -0.1576732171
C   C68       1.0  0.43080  0.42020  0.37310  1.0000 -0.1400252524
C   C69       1.0  0.34030  0.84560  0.48770  1.0000 -0.4992605739
C   C70       1.0  0.58130  0.09250  0.20820  1.0000 0.2515598722
C   C71       1.0  0.73380  0.08180  0.88730  1.0000 -0.0998422121
C   C72       1.0  0.36970  0.19080  0.45410  1.0000 -0.4906343892
C   C73       1.0  0.44580  0.32010  0.42200  1.0000 0.190365492
C   C74       1.0  0.90960  0.05440  0.90340  1.0000 -0.0998422121
C   C75       1.0  0.35940  0.31880  0.45910  1.0000 -0.4906343892
C   C76       1.0  0.88320  0.32360  0.35650  1.0000 0.4532787489
C   C77       1.0  0.97790  0.34840  0.34770  1.0000 -0.4992605739
C   C78       1.0  0.09670  0.40080  0.19880  1.0000 -0.0307436788
C   C79       1.0  0.75140  0.52200  0.18170  1.0000 0.5869849982
C   C80       1.0  0.42010  0.68150  0.13860  1.0000 0.2336648168
C   C81       1.0  0.22450  0.63090  0.45230  1.0000 0.1604638514
C   C82       1.0  0.61930  0.61160  0.31180  1.0000 0.1120584241
C   C83       1.0  0.84100  0.60020  0.30290  1.0000 -0.0307436788
C   C84       1.0  0.68710  0.55870  0.16370  1.0000 -0.0307436788
C   C85       1.0  0.17920  0.55070  0.68680  1.0000 0.5869849982
C   C86       1.0  0.80410  0.98320  0.18680  1.0000 0.5869849982
C   C87       1.0  0.18150  0.59720  0.47060  1.0000 -0.1576732171
C   C88       1.0  0.87400  0.44540  0.81800  1.0000 0.5869849982
C   C89       1.0  0.43200  0.38700  0.17940  1.0000 -0.1811640238
C   C90       1.0  0.26360  0.42670  0.17540  1.0000 -0.1400252524
C   C91       1.0  0.71920  0.37750  0.04370  1.0000 0.1786961031
C   C92       1.0  0.44840  0.64520  0.34450  1.0000 0.1956571477
C   C93       1.0  0.31650  0.39020  0.18530  1.0000 0.1207984
C   C94       1.0  0.48430  0.35860  0.15180  1.0000 0.1786961031
C   C95       1.0  0.97960  0.40740  0.20620  1.0000 0.5681489545
C   C96       1.0  0.57060  0.62780  0.13310  1.0000 0.1120584241
C   C97       1.0  0.50100  0.61660  0.31560  1.0000 -0.1696705048
C   C98       1.0  0.17850  0.56230  0.63060  1.0000 -0.0307436788
C   C99       1.0  0.52070  0.59080  0.12950  1.0000 -0.147540066
C   C100      1.0  0.80120  0.42010  0.97430  1.0000 0.1120584241
C   C101      1.0  0.77130  0.56760  0.31210  1.0000 -0.0920085611
C   C102      1.0  0.51480  0.41290  0.20110  1.0000 0.2515598722
C   C103      1.0  0.14570  0.57350  0.42620  1.0000 0.2390421766
C   C104      1.0  0.17750  0.58540  0.52520  1.0000 0.1120584241
C   C105      1.0  0.66430  0.57350  0.31710  1.0000 -0.1400252524
C   C106      1.0  0.77730  0.40960  0.02800  1.0000 -0.1696705048
C   C107      1.0  0.25320  0.35840  0.20250  1.0000 -0.1400252524
C   C108      1.0  0.54190  0.69100  0.08040  1.0000 0.1674061167
C   C109      1.0  0.67860  0.63040  0.15180  1.0000 -0.147540066
C   C110      1.0  0.80980  0.43170  0.07440  1.0000 0.2515598722
C   C111      1.0  0.26730  0.59250  0.56150  1.0000 -0.1400252524
C   C112      1.0  0.14560  0.36470  0.20980  1.0000 -0.0998422121
C   C113      1.0  0.73650  0.94840  0.16690  1.0000 -0.0371998701
C   C114      1.0  0.15520  0.43280  0.18140  1.0000 -0.0998422121
C   C115      1.0  0.73770  0.59500  0.16700  1.0000 -0.0920085611
C   C116      1.0  0.45310  0.83250  0.14280  1.0000 0.2336648168
C   C117      1.0  0.95690  0.59390  0.29590  1.0000 0.5681489545
C   C118      1.0  0.77570  0.90990  0.17070  1.0000 -0.0998422121
C   C119      1.0  0.09310  0.53330  0.42250  1.0000 -0.4792290268
C   C120      1.0  0.71460  0.87680  0.15520  1.0000 -0.147540066
C   C121      1.0  0.68190  0.35060  0.13270  1.0000 -0.0800887871
C   C122      1.0  0.44470  0.32360  0.12200  1.0000 -0.4906343892
C   C123      1.0  0.25300  0.65500  0.36010  1.0000 -0.0800887871
C   C124      1.0  0.45680  0.75760  0.04540  1.0000 -0.0920085611
C   C125      1.0  0.63040  0.95290  0.14390  1.0000 -0.0920085611
C   C126      1.0  0.51270  0.66520  0.11710  1.0000 -0.147540066
C   C127      1.0  0.54020  0.84660  0.11870  1.0000 -0.1811640238
C   C128      1.0  0.50380  0.44900  0.23640  1.0000 -0.4906343892
C   C129      1.0  0.87480  0.46910  0.08010  1.0000 -0.4792290268
C   C130      1.0  0.42390  0.55690  0.25570  1.0000 -0.4792290268
C   C131      1.0  0.68500  0.64400  0.30420  1.0000 -0.1400252524
C   C132      1.0  0.60560  0.88220  0.13400  1.0000 0.1207984
C   C133      1.0  0.84910  0.43710  0.87210  1.0000 -0.0371998701
C   C134      1.0  0.79480  0.63830  0.29960  1.0000 -0.0920085611
C   C135      1.0  0.49290  0.67950  0.37700  1.0000 -0.4992605739
C   C136      1.0  0.85030  0.39800  0.88990  1.0000 -0.0920085611
C   C137      1.0  0.36080  0.66520  0.18080  1.0000 -0.4906343892
C   C138      1.0  0.27210  0.66667  0.48000  1.0000 -0.4992605739
C   C139      1.0  0.82740  0.38920  0.94090  1.0000 -0.131641188
C   C140      1.0  0.57930  0.55560  0.14460  1.0000 -0.0920085611
C   C141      1.0  0.82310  0.46740  0.90580  1.0000 -0.1118798361
C   C142      1.0  0.79590  0.45940  0.95520  1.0000 -0.1400252524
C   C143      1.0  0.40840  0.84680  0.19110  1.0000 -0.4906343892
C   C144      1.0  0.08770  0.56690  0.54420  1.0000 -0.1576732171
C   C145      1.0  0.56920  0.92020  0.12690  1.0000 -0.1400252524
C   C146      1.0  0.65970  0.34560  0.01230  1.0000 -0.4992605739
C   C147      1.0  0.41870  0.59250  0.29180  1.0000 0.2515598722
C   C148      1.0  0.26620  0.58180  0.61270  1.0000 -0.0998422121
C   C149      1.0  0.63030  0.69080  0.04590  1.0000 -0.4906343892
C   C150      1.0  0.55420  0.82010  0.07800  1.0000 0.190365492
C   C151      1.0  0.09040  0.55440  0.59660  1.0000 -0.0998422121
C   C152      1.0  0.64060  0.81880  0.04090  1.0000 -0.4906343892
C   C153      1.0  0.11680  0.82360  0.14350  1.0000 0.4532787489
C   C154      1.0  0.02210  0.84840  0.15230  1.0000 -0.4992605739
C   C155      1.0  0.09670  0.09920  0.69880  1.0000 -0.0307436788
C   C156      1.0  0.75140  0.97800  0.68170  1.0000 0.5869849982
C   C157      1.0  0.42010  0.81850  0.63860  1.0000 0.2336648168
C   C158      1.0  0.22450  0.86910  0.95230  1.0000 0.1604638514
C   C159      1.0  0.61930  0.88840  0.81180  1.0000 0.1120584241
C   C160      1.0  0.84100  0.89980  0.80290  1.0000 -0.0307436788
C   C161      1.0  0.68710  0.94130  0.66370  1.0000 -0.0307436788
C   C162      1.0  0.17920  0.94930  0.18680  1.0000 0.5869849982
C   C163      1.0  0.80410  0.51680  0.68680  1.0000 0.5869849982
C   C164      1.0  0.18150  0.90280  0.97060  1.0000 -0.1576732171
C   C165      1.0  0.87400  0.05460  0.31800  1.0000 0.5869849982
C   C166      1.0  0.43200  0.11300  0.67940  1.0000 -0.1811640238
C   C167      1.0  0.26360  0.07330  0.67540  1.0000 -0.1400252524
C   C168      1.0  0.71920  0.12250  0.54370  1.0000 0.1786961031
C   C169      1.0  0.44840  0.85480  0.84450  1.0000 0.1956571477
C   C170      1.0  0.31650  0.10980  0.68530  1.0000 0.1207984
C   C171      1.0  0.48430  0.14140  0.65180  1.0000 0.1786961031
C   C172      1.0  0.97960  0.09260  0.70620  1.0000 0.5681489545
C   C173      1.0  0.57060  0.87220  0.63310  1.0000 0.1120584241
C   C174      1.0  0.50100  0.88340  0.81560  1.0000 -0.1696705048
C   C175      1.0  0.17850  0.93770  0.13060  1.0000 -0.0307436788
C   C176      1.0  0.52070  0.90920  0.62950  1.0000 -0.147540066
C   C177      1.0  0.80120  0.07990  0.47430  1.0000 0.1120584241
C   C178      1.0  0.77130  0.93240  0.81210  1.0000 -0.0920085611
C   C179      1.0  0.51480  0.08710  0.70110  1.0000 0.2515598722
C   C180      1.0  0.14570  0.92650  0.92620  1.0000 0.2390421766
C   C181      1.0  0.17750  0.91460  0.02520  1.0000 0.1120584241
C   C182      1.0  0.66430  0.92650  0.81710  1.0000 -0.1400252524
C   C183      1.0  0.77730  0.09040  0.52800  1.0000 -0.1696705048
C   C184      1.0  0.25320  0.14160  0.70250  1.0000 -0.1400252524
C   C185      1.0  0.54190  0.80900  0.58040  1.0000 0.1674061167
C   C186      1.0  0.67860  0.86960  0.65180  1.0000 -0.147540066
C   C187      1.0  0.80980  0.06830  0.57440  1.0000 0.2515598722
C   C188      1.0  0.26730  0.90750  0.06150  1.0000 -0.1400252524
C   C189      1.0  0.14560  0.13530  0.70980  1.0000 -0.0998422121
C   C190      1.0  0.73650  0.55160  0.66690  1.0000 -0.0371998701
C   C191      1.0  0.15520  0.06720  0.68140  1.0000 -0.0998422121
C   C192      1.0  0.73770  0.90500  0.66700  1.0000 -0.0920085611
C   C193      1.0  0.45310  0.66750  0.64280  1.0000 0.2336648168
C   C194      1.0  0.95690  0.90610  0.79590  1.0000 0.5681489545
C   C195      1.0  0.77570  0.59010  0.67070  1.0000 -0.0998422121
C   C196      1.0  0.09310  0.96670  0.92250  1.0000 -0.4792290268
C   C197      1.0  0.71460  0.62320  0.65520  1.0000 -0.147540066
C   C198      1.0  0.68190  0.14940  0.63270  1.0000 -0.0800887871
C   C199      1.0  0.44470  0.17640  0.62200  1.0000 -0.4906343892
C   C200      1.0  0.25300  0.84500  0.86010  1.0000 -0.0800887871
C   C201      1.0  0.45680  0.74240  0.54540  1.0000 -0.0920085611
C   C202      1.0  0.63040  0.54710  0.64390  1.0000 -0.0920085611
C   C203      1.0  0.51270  0.83480  0.61710  1.0000 -0.147540066
C   C204      1.0  0.54020  0.65340  0.61870  1.0000 -0.1811640238
C   C205      1.0  0.50380  0.05100  0.73640  1.0000 -0.4906343892
C   C206      1.0  0.87480  0.03090  0.58010  1.0000 -0.4792290268
C   C207      1.0  0.42390  0.94310  0.75570  1.0000 -0.4792290268
C   C208      1.0  0.68500  0.85600  0.80420  1.0000 -0.1400252524
C   C209      1.0  0.60560  0.61780  0.63400  1.0000 0.1207984
C   C210      1.0  0.84910  0.06290  0.37210  1.0000 -0.0371998701
C   C211      1.0  0.79480  0.86170  0.79960  1.0000 -0.0920085611
C   C212      1.0  0.49290  0.82050  0.87700  1.0000 -0.4992605739
C   C213      1.0  0.85030  0.10200  0.38990  1.0000 -0.0920085611
C   C214      1.0  0.36080  0.83480  0.68080  1.0000 -0.4906343892
C   C215      1.0  0.27210  0.83340  0.98000  1.0000 -0.4992605739
C   C216      1.0  0.82740  0.11080  0.44090  1.0000 -0.131641188
C   C217      1.0  0.57930  0.94440  0.64460  1.0000 -0.0920085611
C   C218      1.0  0.82310  0.03260  0.40580  1.0000 -0.1118798361
C   C219      1.0  0.79590  0.04060  0.45520  1.0000 -0.1400252524
C   C220      1.0  0.40840  0.65320  0.69110  1.0000 -0.4906343892
C   C221      1.0  0.08770  0.93310  0.04420  1.0000 -0.1576732171
C   C222      1.0  0.56920  0.57980  0.62690  1.0000 -0.1400252524
C   C223      1.0  0.65970  0.15440  0.51230  1.0000 -0.4992605739
C   C224      1.0  0.41870  0.90750  0.79180  1.0000 0.2515598722
C   C225      1.0  0.26620  0.91820  0.11270  1.0000 -0.0998422121
C   C226      1.0  0.63030  0.80920  0.54590  1.0000 -0.4906343892
C   C227      1.0  0.55420  0.67990  0.57800  1.0000 0.190365492
C   C228      1.0  0.09040  0.94560  0.09660  1.0000 -0.0998422121
C   C229      1.0  0.64060  0.68120  0.54090  1.0000 -0.4906343892
C   C230      1.0  0.11680  0.67640  0.64350  1.0000 0.4532787489
C   C231      1.0  0.02210  0.65160  0.65230  1.0000 -0.4992605739
C   C232      1.0  0.90330  0.59920  0.80120  1.0000 -0.0307436788
C   C233      1.0  0.24860  0.47800  0.81830  1.0000 0.5869849982
C   C234      1.0  0.57990  0.31850  0.86140  1.0000 0.2336648168
C   C235      1.0  0.77550  0.36910  0.54770  1.0000 0.1604638514
C   C236      1.0  0.38070  0.38840  0.68820  1.0000 0.1120584241
C   C237      1.0  0.15900  0.39980  0.69710  1.0000 -0.0307436788
C   C238      1.0  0.31290  0.44130  0.83630  1.0000 -0.0307436788
C   C239      1.0  0.82080  0.44930  0.31320  1.0000 0.5869849982
C   C240      1.0  0.19590  0.01680  0.81320  1.0000 0.5869849982
C   C241      1.0  0.81850  0.40280  0.52940  1.0000 -0.1576732171
C   C242      1.0  0.12600  0.55460  0.18200  1.0000 0.5869849982
C   C243      1.0  0.56800  0.61300  0.82060  1.0000 -0.1811640238
C   C244      1.0  0.73640  0.57330  0.82460  1.0000 -0.1400252524
C   C245      1.0  0.28080  0.62250  0.95630  1.0000 0.1786961031
C   C246      1.0  0.55160  0.35480  0.65550  1.0000 0.1956571477
C   C247      1.0  0.68350  0.60980  0.81470  1.0000 0.1207984
C   C248      1.0  0.51570  0.64140  0.84820  1.0000 0.1786961031
C   C249      1.0  0.02040  0.59260  0.79380  1.0000 0.5681489545
C   C250      1.0  0.42940  0.37220  0.86690  1.0000 0.1120584241
C   C251      1.0  0.49900  0.38340  0.68440  1.0000 -0.1696705048
C   C252      1.0  0.82150  0.43770  0.36940  1.0000 -0.0307436788
C   C253      1.0  0.47930  0.40920  0.87050  1.0000 -0.147540066
C   C254      1.0  0.19880  0.57990  0.02570  1.0000 0.1120584241
C   C255      1.0  0.22870  0.43240  0.68790  1.0000 -0.0920085611
C   C256      1.0  0.48520  0.58710  0.79890  1.0000 0.2515598722
C   C257      1.0  0.85430  0.42650  0.57380  1.0000 0.2390421766
C   C258      1.0  0.82250  0.41460  0.47480  1.0000 0.1120584241
C   C259      1.0  0.33570  0.42650  0.68290  1.0000 -0.1400252524
C   C260      1.0  0.22270  0.59040  0.97200  1.0000 -0.1696705048
C   C261      1.0  0.74680  0.64160  0.79750  1.0000 -0.1400252524
C   C262      1.0  0.45810  0.30900  0.91960  1.0000 0.1674061167
C   C263      1.0  0.32140  0.36960  0.84820  1.0000 -0.147540066
C   C264      1.0  0.19020  0.56830  0.92560  1.0000 0.2515598722
C   C265      1.0  0.73270  0.40750  0.43850  1.0000 -0.1400252524
C   C266      1.0  0.85440  0.63530  0.79020  1.0000 -0.0998422121
C   C267      1.0  0.26350  0.05160  0.83310  1.0000 -0.0371998701
C   C268      1.0  0.84480  0.56720  0.81860  1.0000 -0.0998422121
C   C269      1.0  0.26230  0.40500  0.83300  1.0000 -0.0920085611
C   C270      1.0  0.54690  0.16750  0.85720  1.0000 0.2336648168
C   C271      1.0  0.04310  0.40610  0.70410  1.0000 0.5681489545
C   C272      1.0  0.22430  0.09010  0.82930  1.0000 -0.0998422121
C   C273      1.0  0.90690  0.46670  0.57750  1.0000 -0.4792290268
C   C274      1.0  0.28540  0.12320  0.84480  1.0000 -0.147540066
C   C275      1.0  0.31810  0.64940  0.86730  1.0000 -0.0800887871
C   C276      1.0  0.55530  0.67640  0.87800  1.0000 -0.4906343892
C   C277      1.0  0.74700  0.34500  0.63990  1.0000 -0.0800887871
C   C278      1.0  0.54320  0.24240  0.95460  1.0000 -0.0920085611
C   C279      1.0  0.36960  0.04710  0.85610  1.0000 -0.0920085611
C   C280      1.0  0.48730  0.33480  0.88290  1.0000 -0.1576732171
C   C281      1.0  0.45980  0.15340  0.88130  1.0000 -0.1811640238
C   C282      1.0  0.49620  0.55100  0.76360  1.0000 -0.4906343892
C   C283      1.0  0.12520  0.53090  0.91990  1.0000 -0.4792290268
C   C284      1.0  0.57610  0.44310  0.74430  1.0000 -0.4792290268
C   C285      1.0  0.31500  0.35600  0.69580  1.0000 -0.1400252524
C   C286      1.0  0.39440  0.11780  0.86600  1.0000 0.1207984
C   C287      1.0  0.15090  0.56290  0.12790  1.0000 -0.0371998701
C   C288      1.0  0.20520  0.36170  0.70040  1.0000 -0.0920085611
C   C289      1.0  0.50710  0.32050  0.62300  1.0000 -0.4992605739
C   C290      1.0  0.14970  0.60200  0.11010  1.0000 -0.0920085611
C   C291      1.0  0.63920  0.33480  0.81920  1.0000 -0.4906343892
C   C292      1.0  0.72790  0.33340  0.52000  1.0000 -0.4992605739
C   C293      1.0  0.17260  0.61080  0.05910  1.0000 -0.131641188
C   C294      1.0  0.42070  0.44440  0.85540  1.0000 -0.0920085611
C   C295      1.0  0.17690  0.53260  0.09420  1.0000 -0.1118798361
C   C296      1.0  0.20410  0.54060  0.04480  1.0000 -0.1400252524
C   C297      1.0  0.59160  0.15320  0.80890  1.0000 -0.4906343892
C   C298      1.0  0.91230  0.43310  0.45580  1.0000 -0.1576732171
C   C299      1.0  0.43080  0.07980  0.87310  1.0000 -0.1400252524
C   C300      1.0  0.34030  0.65440  0.98770  1.0000 -0.4992605739
C   C301      1.0  0.58130  0.40750  0.70820  1.0000 0.2515598722
C   C302      1.0  0.73380  0.41820  0.38730  1.0000 -0.0998422121
C   C303      1.0  0.36970  0.30920  0.95410  1.0000 -0.4906343892
C   C304      1.0  0.44580  0.17990  0.92200  1.0000 0.190365492
C   C305      1.0  0.90960  0.44560  0.40340  1.0000 -0.0998422121
C   C306      1.0  0.35940  0.18120  0.95910  1.0000 -0.4906343892
C   C307      1.0  0.88320  0.17640  0.85650  1.0000 0.4532787489
C   C308      1.0  0.97790  0.15160  0.84770  1.0000 -0.4992605739
N   N1        1.0  0.40900  0.86826  0.34260  1.0000 0.0895842325
N   N2        1.0  0.39060  0.90125  0.31200  1.0000 -0.2880165515
N   N3        1.0  0.27730  0.87922  0.40370  1.0000 0.0895842325
N   N4        1.0  0.67800  0.10497  0.19630  1.0000 -0.3011452419
N   N5        1.0  0.58960  0.29926  0.38200  1.0000 -0.323785947
N   N6        1.0  0.53490  0.22159  0.42180  1.0000 0.0895842325
N   N7        1.0  0.22110  0.91214  0.38390  1.0000 -0.3074241144
N   N8        1.0  0.60670  0.21574  0.38720  1.0000 -0.2631142078
N   N9        1.0  0.52380  0.29283  0.42190  1.0000 0.073233253
N   N10       1.0  0.65570  0.13778  0.16390  1.0000 0.0895842325
N   N11       1.0  0.78510  0.12781  0.10120  1.0000 0.1120584241
N   N12       1.0  0.83220  0.09315  0.11739  1.0000 -0.2880165515
N   N13       1.0  0.71380  0.26380  0.24840  1.0000 0.700512623
N   N14       1.0  0.81580  0.30260  0.36250  1.0000 -0.4044427735
N   N15       1.0  0.86290  0.22490  0.43540  1.0000 0.700512623
N   N16       1.0  0.59100  0.36826  0.15740  1.0000 0.0895842325
N   N17       1.0  0.60940  0.40125  0.18800  1.0000 -0.2880165515
N   N18       1.0  0.72270  0.37922  0.09630  1.0000 0.0895842325
N   N19       1.0  0.32200  0.60497  0.30370  1.0000 -0.3011452419
N   N20       1.0  0.41040  0.79926  0.11800  1.0000 -0.323785947
N   N21       1.0  0.46510  0.72159  0.07820  1.0000 0.0895842325
N   N22       1.0  0.77890  0.41214  0.11610  1.0000 -0.3074241144
N   N23       1.0  0.39330  0.71574  0.11280  1.0000 -0.2631142078
N   N24       1.0  0.47620  0.79283  0.07810  1.0000 0.073233253
N   N25       1.0  0.34430  0.63778  0.33610  1.0000 0.0895842325
N   N26       1.0  0.21490  0.62781  0.39880  1.0000 0.1120584241
N   N27       1.0  0.16780  0.59315  0.38261  1.0000 -0.2880165515
N   N28       1.0  0.28620  0.76380  0.25160  1.0000 0.700512623
N   N29       1.0  0.18420  0.80260  0.13750  1.0000 -0.4044427735
N   N30       1.0  0.13710  0.72490  0.06460  1.0000 0.700512623
N   N31       1.0  0.59100  0.13174  0.65740  1.0000 0.0895842325
N   N32       1.0  0.60940  0.09875  0.68800  1.0000 -0.2880165515
N   N33       1.0  0.72270  0.12078  0.59630  1.0000 0.0895842325
N   N34       1.0  0.32200  0.89503  0.80370  1.0000 -0.3011452419
N   N35       1.0  0.41040  0.70074  0.61800  1.0000 -0.323785947
N   N36       1.0  0.46510  0.77841  0.57820  1.0000 0.0895842325
N   N37       1.0  0.77890  0.08786  0.61610  1.0000 -0.3074241144
N   N38       1.0  0.39330  0.78426  0.61280  1.0000 -0.2631142078
N   N39       1.0  0.47620  0.70717  0.57810  1.0000 0.073233253
N   N40       1.0  0.34430  0.86222  0.83610  1.0000 0.0895842325
N   N41       1.0  0.21490  0.87219  0.89880  1.0000 0.1120584241
N   N42       1.0  0.16780  0.90685  0.88261  1.0000 -0.2880165515
N   N43       1.0  0.28620  0.73620  0.75160  1.0000 0.700512623
N   N44       1.0  0.18420  0.69740  0.63750  1.0000 -0.4044427735
N   N45       1.0  0.13710  0.77510  0.56460  1.0000 0.700512623
N   N46       1.0  0.40900  0.63174  0.84260  1.0000 0.0895842325
N   N47       1.0  0.39060  0.59875  0.81200  1.0000 -0.2880165515
N   N48       1.0  0.27730  0.62078  0.90370  1.0000 0.0895842325
N   N49       1.0  0.67800  0.39503  0.69630  1.0000 -0.3011452419
N   N50       1.0  0.58960  0.20074  0.88200  1.0000 -0.323785947
N   N51       1.0  0.53490  0.27841  0.92180  1.0000 0.0895842325
N   N52       1.0  0.22110  0.58786  0.88390  1.0000 -0.3074241144
N   N53       1.0  0.60670  0.28426  0.88720  1.0000 -0.2631142078
N   N54       1.0  0.52380  0.20717  0.92190  1.0000 0.073233253
N   N55       1.0  0.65570  0.36222  0.66390  1.0000 0.0895842325
N   N56       1.0  0.78510  0.37219  0.60120  1.0000 0.1120584241
N   N57       1.0  0.83220  0.40685  0.61739  1.0000 -0.2880165515
N   N58       1.0  0.71380  0.23620  0.74840  1.0000 0.700512623
N   N59       1.0  0.81580  0.19740  0.86250  1.0000 -0.4044427735
N   N60       1.0  0.86290  0.27510  0.93540  1.0000 0.7053863841
N   N61       1.0  0.69970  0.75160  0.93110  1.0000 0.6770499982
N   N62       1.0  0.30030  0.25160  0.56890  1.0000 0.6770499982
N   N63       1.0  0.30030  0.24840  0.06890  1.0000 0.6746059495
N   N64       1.0  0.69970  0.74840  0.43110  1.0000 0.6770499982
O   O1        1.0  0.05510  0.94338  0.29654  1.0000 -0.5787930531
O   O2        1.0  0.98110  0.12290  0.20636  1.0000 -0.5167454941
O   O3        1.0  0.08130  0.97793  0.69136  1.0000 -0.5518295777
O   O4        1.0  0.76160  0.07090  0.78021  1.0000 -0.530909614
O   O5        1.0  0.23750  0.51802  0.31694  1.0000 -0.5518295777
O   O6        1.0  0.08260  0.87829  0.28776  1.0000 -0.5412973724
O   O7        1.0  0.29640  0.98861  0.32335  1.0000 -0.5412973724
O   O8        1.0  0.10150  0.47494  0.29480  1.0000 -0.5518295777
O   O9        1.0  0.00570  0.05768  0.20404  1.0000 -0.5787930531
O   O10       1.0  0.15570  0.91883  0.71617  1.0000 -0.5412973724
O   O11       1.0  0.15190  0.02766  0.30147  1.0000 -0.5518295777
O   O12       1.0  0.87680  0.02110  0.80263  1.0000 -0.5590471191
O   O13       1.0  0.83220  0.22261  0.38440  1.0000 -0.4584725661
O   O14       1.0  0.94110  0.20495  0.45280  1.0000 -0.3704692063
O   O15       1.0  0.81100  0.24790  0.46170  1.0000 -0.4659959338
O   O16       1.0  0.66190  0.25432  0.28430  1.0000 -0.4196385679
O   O17       1.0  0.66980  0.27670  0.20710  1.0000 -0.4196385679
O   O18       1.0  0.81770  0.26250  0.25430  1.0000 -0.4498678905
O   O19       1.0  0.94490  0.44338  0.20346  1.0000 -0.5787930531
O   O20       1.0  0.01890  0.62290  0.29364  1.0000 -0.5167454941
O   O21       1.0  0.91870  0.47793  0.80864  1.0000 -0.5518295777
O   O22       1.0  0.23840  0.57090  0.71979  1.0000 -0.530909614
O   O23       1.0  0.76250  0.01802  0.18306  1.0000 -0.5518295777
O   O24       1.0  0.91740  0.37829  0.21224  1.0000 -0.5412973724
O   O25       1.0  0.70360  0.48861  0.17665  1.0000 -0.5412973724
O   O26       1.0  0.89850  0.97494  0.20520  1.0000 -0.5518295777
O   O27       1.0  0.99430  0.55768  0.29596  1.0000 -0.5787930531
O   O28       1.0  0.84430  0.41883  0.78383  1.0000 -0.5412973724
O   O29       1.0  0.84810  0.52766  0.19853  1.0000 -0.5518295777
O   O30       1.0  0.12320  0.52110  0.69737  1.0000 -0.5590471191
O   O31       1.0  0.16780  0.72261  0.11560  1.0000 -0.4584725661
O   O32       1.0  0.05890  0.70495  0.04720  1.0000 -0.3704692063
O   O33       1.0  0.18900  0.74790  0.03830  1.0000 -0.4659959338
O   O34       1.0  0.33810  0.75432  0.21570  1.0000 -0.4196385679
O   O35       1.0  0.33020  0.77670  0.29290  1.0000 -0.4196385679
O   O36       1.0  0.18230  0.76250  0.24570  1.0000 -0.4498678905
O   O37       1.0  0.94490  0.05662  0.70346  1.0000 -0.5743247432
O   O38       1.0  0.01890  0.87710  0.79364  1.0000 -0.5167454941
O   O39       1.0  0.91870  0.02207  0.30864  1.0000 -0.5518295777
O   O40       1.0  0.23840  0.92910  0.21979  1.0000 -0.530909614
O   O41       1.0  0.76250  0.48198  0.68306  1.0000 -0.5518295777
O   O42       1.0  0.91740  0.12171  0.71224  1.0000 -0.5412973724
O   O43       1.0  0.70360  0.01139  0.67665  1.0000 -0.5412973724
O   O44       1.0  0.89850  0.52506  0.70520  1.0000 -0.5518295777
O   O45       1.0  0.99430  0.94232  0.79596  1.0000 -0.5852855009
O   O46       1.0  0.84430  0.08117  0.28383  1.0000 -0.5412973724
O   O47       1.0  0.84810  0.97234  0.69853  1.0000 -0.5518295777
O   O48       1.0  0.12320  0.97890  0.19737  1.0000 -0.5590471191
O   O49       1.0  0.16780  0.77739  0.61560  1.0000 -0.4498678905
O   O50       1.0  0.05890  0.79505  0.54720  1.0000 -0.3704692063
O   O51       1.0  0.18900  0.75210  0.53830  1.0000 -0.4584725661
O   O52       1.0  0.33810  0.74568  0.71570  1.0000 -0.4196385679
O   O53       1.0  0.33020  0.72330  0.79290  1.0000 -0.4196385679
O   O54       1.0  0.18230  0.73750  0.74570  1.0000 -0.4498678905
O   O55       1.0  0.05510  0.55662  0.79654  1.0000 -0.5787930531
O   O56       1.0  0.98110  0.37710  0.70636  1.0000 -0.5167454941
O   O57       1.0  0.08130  0.52207  0.19136  1.0000 -0.5518295777
O   O58       1.0  0.76160  0.42910  0.28021  1.0000 -0.530909614
O   O59       1.0  0.23750  0.98198  0.81694  1.0000 -0.5518295777
O   O60       1.0  0.08260  0.62171  0.78776  1.0000 -0.5412973724
O   O61       1.0  0.29640  0.51139  0.82335  1.0000 -0.5412973724
O   O62       1.0  0.10150  0.02506  0.79480  1.0000 -0.5518295777
O   O63       1.0  0.00570  0.44232  0.70404  1.0000 -0.5852855009
O   O64       1.0  0.15570  0.58117  0.21617  1.0000 -0.5412973724
O   O65       1.0  0.15190  0.47234  0.80147  1.0000 -0.5518295777
O   O66       1.0  0.87680  0.47890  0.30263  1.0000 -0.5590471191
O   O67       1.0  0.83220  0.27739  0.88440  1.0000 -0.4584725661
O   O68       1.0  0.94110  0.29505  0.95280  1.0000 -0.3704692063
O   O69       1.0  0.81100  0.25210  0.96170  1.0000 -0.4659959338
O   O70       1.0  0.66190  0.24568  0.78430  1.0000 -0.4196385679
O   O71       1.0  0.66980  0.22330  0.70710  1.0000 -0.4196385679
O   O72       1.0  0.81770  0.23750  0.75430  1.0000 -0.4498678905
O   O73       1.0  0.60870  0.75495  0.94390  1.0000 -0.4196385679
O   O74       1.0  0.76980  0.73010  0.95920  1.0000 -0.4398897079
O   O75       1.0  0.73030  0.76720  0.89080  1.0000 -0.4196385679
O   O76       1.0  0.39130  0.25495  0.55610  1.0000 -0.4196385679
O   O77       1.0  0.23020  0.23010  0.54080  1.0000 -0.4398897079
O   O78       1.0  0.26970  0.26720  0.60920  1.0000 -0.4196385679
O   O79       1.0  0.39130  0.24505  0.05610  1.0000 -0.4196385679
O   O80       1.0  0.23020  0.26990  0.04080  1.0000 -0.4398897079
O   O81       1.0  0.26970  0.23280  0.10920  1.0000 -0.4196385679
O   O82       1.0  0.60870  0.74505  0.44390  1.0000 -0.4196385679
O   O83       1.0  0.76980  0.76990  0.45920  1.0000 -0.4398897079
O   O84       1.0  0.73030  0.73280  0.39080  1.0000 -0.4196385679
