# DDEC6 charges by PACMAN v1.1 (https://github.com/mtap-research/PACMAN-charge/)
data_2017[Pr][flu]3[ION]1
_chemical_formula_sum              "Pr2 H62 C60 N6 Cl4 O16"
_cell_length_a       9.5285
_cell_length_b       12.76
_cell_length_c       18.896
_cell_angle_alpha    106.72
_cell_angle_beta     98.91
_cell_angle_gamma    98.59

_symmetry_space_group_name_H-M    "P 1"
_symmetry_Int_Tables_number       1

loop_
  _symmetry_equiv_pos_as_xyz
  'x, y, z'

loop_
  _atom_site_type_symbol
  _atom_site_label
  _atom_site_symmetry_multiplicity
  _atom_site_fract_x
  _atom_site_fract_y
  _atom_site_fract_z
  _atom_site_occupancy
  _atom_site_charge
Pr  Pr1       1.0  0.76770  0.98611  0.49706  1.0000 2.1484592148
Pr  Pr2       1.0  0.23230  0.01389  0.50294  1.0000 2.1484592148
H   H1        1.0  0.54200  0.76340  0.46240  1.0000 0.4080507048
H   H2        1.0  0.45800  0.23660  0.53760  1.0000 0.4080507048
H   H3        1.0  0.57190  0.82790  0.54650  1.0000 0.3951945492
H   H4        1.0  0.42810  0.17210  0.45350  1.0000 0.3951945492
H   H5        1.0  0.74070  0.20520  0.47780  1.0000 0.4080507048
H   H6        1.0  0.25930  0.79480  0.52220  1.0000 0.4080507048
H   H7        1.0  0.68650  0.21750  0.55170  1.0000 0.3800273874
H   H8        1.0  0.31350  0.78250  0.44830  1.0000 0.3800273874
H   H9        1.0  0.64250  0.83560  0.16640  1.0000 0.119956431
H   H10       1.0  0.35750  0.16440  0.83360  1.0000 0.119956431
H   H11       1.0  0.64730  0.90270  0.29270  1.0000 0.1473920036
H   H12       1.0  0.35270  0.09730  0.70730  1.0000 0.1473920036
H   H13       1.0  0.22250  0.89750  0.24490  1.0000 0.1289972731
H   H14       1.0  0.77750  0.10250  0.75510  1.0000 0.1289972731
H   H15       1.0  0.22570  0.83170  0.11840  1.0000 0.1112975963
H   H16       1.0  0.77430  0.16830  0.88160  1.0000 0.1112975963
H   H17       1.0  0.80620  0.87640  0.80300  1.0000 0.1289972731
H   H18       1.0  0.19380  0.12360  0.19700  1.0000 0.1289972731
H   H19       1.0  0.80680  0.89060  0.68440  1.0000 0.1473920036
H   H20       1.0  0.19320  0.10940  0.31560  1.0000 0.1473920036
H   H21       1.0  0.22820  0.88120  0.71480  1.0000 0.1473920036
H   H22       1.0  0.77180  0.11880  0.28520  1.0000 0.1473920036
H   H23       1.0  0.21870  0.85900  0.83080  1.0000 0.119956431
H   H24       1.0  0.78130  0.14100  0.16920  1.0000 0.119956431
H   H25       1.0  0.25020  0.44790  0.84160  1.0000 0.1289972731
H   H26       1.0  0.74980  0.55210  0.15840  1.0000 0.1289972731
H   H27       1.0  0.28510  0.33630  0.72910  1.0000 0.1551439353
H   H28       1.0  0.71490  0.66370  0.27090  1.0000 0.1551439353
H   H29       1.0  0.85770  0.22980  0.66480  1.0000 0.1398920178
H   H30       1.0  0.14230  0.77020  0.33520  1.0000 0.1398920178
H   H31       1.0  0.83170  0.34370  0.77640  1.0000 0.119956431
H   H32       1.0  0.16830  0.65630  0.22360  1.0000 0.1289972731
H   H33       1.0  0.37220  0.52290  0.97050  1.0000 0.1473920036
H   H34       1.0  0.62780  0.47710  0.02950  1.0000 0.1398920178
H   H35       1.0  0.23660  0.48620  0.00190  1.0000 0.1289972731
H   H36       1.0  0.76340  0.51380  0.99810  1.0000 0.1289972731
H   H37       1.0  0.36020  0.58710  0.05290  1.0000 0.1398920178
H   H38       1.0  0.63980  0.41290  0.94710  1.0000 0.1398920178
H   H39       1.0  0.91970  0.46390  0.89510  1.0000 0.119956431
H   H40       1.0  0.08030  0.53610  0.10490  1.0000 0.119956431
H   H41       1.0  0.06010  0.43420  0.93290  1.0000 0.119956431
H   H42       1.0  0.93990  0.56580  0.06710  1.0000 0.119956431
H   H43       1.0  0.89870  0.57260  0.79400  1.0000 0.1289972731
H   H44       1.0  0.10130  0.42740  0.20600  1.0000 0.1289972731
H   H45       1.0  0.85000  0.68430  0.83060  1.0000 0.119956431
H   H46       1.0  0.15000  0.31570  0.16940  1.0000 0.119956431
H   H47       1.0  0.81580  0.58260  0.86040  1.0000 0.1473920036
H   H48       1.0  0.18420  0.41740  0.13960  1.0000 0.1473920036
H   H49       1.0  0.90800  0.84140  0.90820  1.0000 0.119956431
H   H50       1.0  0.09200  0.15860  0.09180  1.0000 0.119956431
H   H51       1.0  0.05050  0.93400  0.93920  1.0000 0.1112975963
H   H52       1.0  0.94950  0.06600  0.06080  1.0000 0.1112975963
H   H53       1.0  0.32360  0.96210  0.96020  1.0000 0.1398920178
H   H54       1.0  0.67640  0.03790  0.03980  1.0000 0.1398920178
H   H55       1.0  0.38050  0.95290  0.04020  1.0000 0.1289972731
H   H56       1.0  0.61950  0.04710  0.95980  1.0000 0.1289972731
H   H57       1.0  0.22770  0.98180  0.02130  1.0000 0.1289972731
H   H58       1.0  0.77230  0.01820  0.97870  1.0000 0.1289972731
H   H59       1.0  0.48950  0.84540  0.03570  1.0000 0.119956431
H   H60       1.0  0.51050  0.15460  0.96430  1.0000 0.119956431
H   H61       1.0  0.49380  0.72550  0.04090  1.0000 0.119956431
H   H62       1.0  0.50620  0.27450  0.95910  1.0000 0.119956431
C   C1        1.0  0.43160  0.94560  0.36480  1.0000 0.6285982021
C   C2        1.0  0.56840  0.05440  0.63520  1.0000 0.6285982021
C   C3        1.0  0.55750  0.84760  0.18290  1.0000 0.0117302994
C   C4        1.0  0.44250  0.15240  0.81710  1.0000 0.0117302994
C   C5        1.0  0.56050  0.88740  0.25790  1.0000 -0.1238541118
C   C6        1.0  0.43950  0.11260  0.74210  1.0000 -0.1238541118
C   C7        1.0  0.43370  0.90510  0.28260  1.0000 0.0315866267
C   C8        1.0  0.56630  0.09490  0.71740  1.0000 0.0315866267
C   C9        1.0  0.30840  0.88460  0.22970  1.0000 -0.161374323
C   C10       1.0  0.69160  0.11540  0.77030  1.0000 -0.161374323
C   C11       1.0  0.31050  0.84500  0.15430  1.0000 0.0231743279
C   C12       1.0  0.68950  0.15500  0.84570  1.0000 0.0231743279
C   C13       1.0  0.02460  0.91100  0.61320  1.0000 0.6285982021
C   C14       1.0  0.97540  0.08900  0.38680  1.0000 0.6285982021
C   C15       1.0  0.89070  0.87540  0.78420  1.0000 0.0117302994
C   C16       1.0  0.10930  0.12460  0.21580  1.0000 0.0117302994
C   C17       1.0  0.89180  0.88650  0.71420  1.0000 -0.1507913879
C   C18       1.0  0.10820  0.11350  0.28580  1.0000 -0.1507913879
C   C19       1.0  0.01940  0.89170  0.68810  1.0000 0.0315866267
C   C20       1.0  0.98060  0.10830  0.31190  1.0000 0.0315866267
C   C21       1.0  0.14180  0.87990  0.73190  1.0000 -0.1433030329
C   C22       1.0  0.85820  0.12010  0.26810  1.0000 -0.1433030329
C   C23       1.0  0.13600  0.86620  0.80080  1.0000 -0.0035803543
C   C24       1.0  0.86400  0.13380  0.19920  1.0000 -0.0035803543
C   C25       1.0  0.09580  0.18350  0.61500  1.0000 0.6285982021
C   C26       1.0  0.90420  0.81650  0.38500  1.0000 0.6285982021
C   C27       1.0  0.17020  0.40210  0.80550  1.0000 0.0315866267
C   C28       1.0  0.82980  0.59790  0.19450  1.0000 0.0315866267
C   C29       1.0  0.19200  0.33470  0.73850  1.0000 -0.161374323
C   C30       1.0  0.80800  0.66530  0.26150  1.0000 -0.161374323
C   C31       1.0  0.07510  0.26550  0.68580  1.0000 0.0390384235
C   C32       1.0  0.92490  0.73450  0.31420  1.0000 0.0390384235
C   C33       1.0  0.93960  0.27250  0.70080  1.0000 -0.1507913879
C   C34       1.0  0.06040  0.72750  0.29920  1.0000 -0.1507913879
C   C35       1.0  0.92410  0.34030  0.76690  1.0000 -0.0162386484
C   C36       1.0  0.07590  0.65970  0.23310  1.0000 -0.0162386484
C   C37       1.0  0.29430  0.74110  0.99790  1.0000 -0.0350003577
C   C38       1.0  0.70570  0.25890  0.00210  1.0000 -0.0340660027
C   C39       1.0  0.23120  0.62620  0.97350  1.0000 0.0671801456
C   C40       1.0  0.76880  0.37380  0.02650  1.0000 0.0671801456
C   C41       1.0  0.09560  0.58800  0.92240  1.0000 -0.0510066542
C   C42       1.0  0.90440  0.41200  0.07760  1.0000 -0.0510066542
C   C43       1.0  0.02580  0.66320  0.89580  1.0000 0.0773746409
C   C44       1.0  0.97420  0.33680  0.10420  1.0000 0.0773746409
C   C45       1.0  0.09000  0.77640  0.92360  1.0000 -0.0510066542
C   C46       1.0  0.91000  0.22360  0.07640  1.0000 -0.0510066542
C   C47       1.0  0.22430  0.81630  0.97300  1.0000 0.0671801456
C   C48       1.0  0.77570  0.18370  0.02700  1.0000 0.0671801456
C   C49       1.0  0.30670  0.54880  0.00230  1.0000 -0.479685109
C   C50       1.0  0.69330  0.45120  0.99770  1.0000 -0.479685109
C   C51       1.0  0.02270  0.46870  0.89640  1.0000 -0.1813266537
C   C52       1.0  0.97730  0.53130  0.10360  1.0000 -0.1813266537
C   C53       1.0  0.88510  0.62200  0.84030  1.0000 -0.4519517681
C   C54       1.0  0.11490  0.37800  0.15970  1.0000 -0.4519517681
C   C55       1.0  0.00780  0.86020  0.90350  1.0000 -0.1725888959
C   C56       1.0  0.99220  0.13980  0.09650  1.0000 -0.1725888959
C   C57       1.0  0.29600  0.93950  0.00130  1.0000 -0.4676733873
C   C58       1.0  0.70400  0.06050  0.99870  1.0000 -0.4676733873
C   C59       1.0  0.43840  0.78430  0.04890  1.0000 -0.1813266537
C   C60       1.0  0.56160  0.21570  0.95110  1.0000 -0.1813266537
N   N1        1.0  0.43250  0.82550  0.13200  1.0000 0.1112975963
N   N2        1.0  0.56750  0.17450  0.86800  1.0000 0.1112975963
N   N3        1.0  0.00960  0.86340  0.82500  1.0000 0.0974375197
N   N4        1.0  0.99040  0.13660  0.17500  1.0000 0.0974375197
N   N5        1.0  0.04250  0.40380  0.81980  1.0000 0.1112975963
N   N6        1.0  0.95750  0.59620  0.18020  1.0000 0.1112975963
Cl  Cl1       1.0  0.58470  0.39490  0.79660  1.0000 -0.6839279643
Cl  Cl2       1.0  0.41530  0.60510  0.20340  1.0000 -0.6839279643
Cl  Cl3       1.0  0.49020  0.13340  0.18110  1.0000 -0.7043150476
Cl  Cl4       1.0  0.50980  0.86660  0.81890  1.0000 -0.7043150476
O   O1        1.0  0.54530  0.96140  0.41139  1.0000 -0.6705287806
O   O2        1.0  0.45470  0.03860  0.58861  1.0000 -0.6705287806
O   O3        1.0  0.59890  0.81460  0.50250  1.0000 -0.7900885305
O   O4        1.0  0.40110  0.18540  0.49750  1.0000 -0.7900885305
O   O5        1.0  0.31230  0.95920  0.38227  1.0000 -0.6705287806
O   O6        1.0  0.68770  0.04080  0.61773  1.0000 -0.6705287806
O   O7        1.0  0.71350  0.17890  0.51520  1.0000 -0.7900885305
O   O8        1.0  0.28650  0.82110  0.48480  1.0000 -0.7900885305
O   O9        1.0  0.14370  0.94260  0.60099  1.0000 -0.6279846243
O   O10       1.0  0.85630  0.05740  0.39901  1.0000 -0.6279846243
O   O11       1.0  0.90400  0.89470  0.57077  1.0000 -0.6388046554
O   O12       1.0  0.09600  0.10530  0.42923  1.0000 -0.6388046554
O   O13       1.0  0.98850  0.11650  0.57177  1.0000 -0.6856134347
O   O14       1.0  0.01150  0.88350  0.42823  1.0000 -0.6856134347
O   O15       1.0  0.22330  0.18190  0.60630  1.0000 -0.6112255863
O   O16       1.0  0.77670  0.81810  0.39370  1.0000 -0.6112255863
