# DDEC6 charges by PACMAN v1.1 (https://github.com/mtap-research/PACMAN-charge/)
data_2017[Ag][sql]2[ION]1
_chemical_formula_sum              "Ag4 P2 H88 C160 N16 F12"
_cell_length_a       11.6135
_cell_length_b       17.5633
_cell_length_c       25.2483
_cell_angle_alpha    91.177
_cell_angle_beta     99.446
_cell_angle_gamma    90.35

_symmetry_space_group_name_H-M    "P 1"
_symmetry_Int_Tables_number       1

loop_
  _symmetry_equiv_pos_as_xyz
  'x, y, z'

loop_
  _atom_site_type_symbol
  _atom_site_label
  _atom_site_symmetry_multiplicity
  _atom_site_fract_x
  _atom_site_fract_y
  _atom_site_fract_z
  _atom_site_occupancy
  _atom_site_charge
Ag  Ag1       1.0  0.14784  0.57347  0.35600  1.0000 0.2108820913
Ag  Ag2       1.0  0.35816  0.91521  0.14135  1.0000 0.2301006553
Ag  Ag3       1.0  0.85216  0.42653  0.64400  1.0000 0.2108820913
Ag  Ag4       1.0  0.64184  0.08479  0.85865  1.0000 0.2301006553
P   P1        1.0  0.45878  0.31955  0.75632  1.0000 1.542936751
P   P2        1.0  0.54122  0.68045  0.24368  1.0000 1.542936751
H   H1        1.0  0.10640  0.37800  0.14910  1.0000 0.1189462906
H   H2        1.0  0.13050  0.25850  0.11350  1.0000 0.1189462906
H   H3        1.0  0.32710  0.30060  0.87300  1.0000 0.1189462906
H   H4        1.0  0.34480  0.42900  0.85920  1.0000 0.1399473688
H   H5        1.0  0.31700  0.57420  0.90270  1.0000 0.1189462906
H   H6        1.0  0.26420  0.63940  0.97500  1.0000 0.1189462906
H   H7        1.0  0.29540  0.58760  0.17460  1.0000 0.1399473688
H   H8        1.0  0.28760  0.60660  0.26480  1.0000 0.1189462906
H   H9        1.0  0.97330  0.51620  0.24770  1.0000 0.109764078
H   H10       1.0  0.97000  0.49620  0.15680  1.0000 0.1293819648
H   H11       1.0  0.32710  0.20540  0.10660  1.0000 0.1399473688
H   H12       1.0  0.37310  0.09330  0.15140  1.0000 0.0989920184
H   H13       1.0  0.17100  0.97460  0.03910  1.0000 0.0989920184
H   H14       1.0  0.12410  0.08200  0.98910  1.0000 0.1399473688
H   H15       1.0  0.42640  0.15580  0.00580  1.0000 0.1293819648
H   H16       1.0  0.54230  0.07550  0.96460  1.0000 0.0989920184
H   H17       1.0  0.33870  0.09340  0.82560  1.0000 0.1189462906
H   H18       1.0  0.21170  0.17090  0.86300  1.0000 0.1469819857
H   H19       1.0  0.38360  0.63400  0.07730  1.0000 0.1469819857
H   H20       1.0  0.44360  0.75720  0.10200  1.0000 0.109764078
H   H21       1.0  0.12170  0.81840  0.10970  1.0000 0.0989920184
H   H22       1.0  0.05340  0.69590  0.08800  1.0000 0.1293819648
H   H23       1.0  0.36710  0.24020  0.38870  1.0000 0.109764078
H   H24       1.0  0.39570  0.12340  0.35020  1.0000 0.1189462906
H   H25       1.0  0.25370  0.84660  0.52010  1.0000 0.109764078
H   H26       1.0  0.20360  0.90620  0.59510  1.0000 0.1189462906
H   H27       1.0  0.16920  0.04950  0.64190  1.0000 0.1189462906
H   H28       1.0  0.17440  0.17850  0.62920  1.0000 0.1189462906
H   H29       1.0  0.34950  0.41160  0.52210  1.0000 0.1399473688
H   H30       1.0  0.30590  0.52110  0.47360  1.0000 0.0989920184
H   H31       1.0  0.14720  0.40280  0.34860  1.0000 0.0989920184
H   H32       1.0  0.18360  0.28980  0.39350  1.0000 0.1293819648
H   H33       1.0  0.23970  0.03650  0.31150  1.0000 0.1293819648
H   H34       1.0  0.24580  0.01270  0.22180  1.0000 0.0909045029
H   H35       1.0  0.48700  0.85750  0.25690  1.0000 0.1189462906
H   H36       1.0  0.48950  0.87730  0.34810  1.0000 0.1399473688
H   H37       1.0  0.15110  0.86980  0.36540  1.0000 0.1399473688
H   H38       1.0  0.09470  0.74720  0.33930  1.0000 0.109764078
H   H39       1.0  0.37930  0.66550  0.42090  1.0000 0.0989920184
H   H40       1.0  0.44010  0.78550  0.45320  1.0000 0.1293819648
H   H41       1.0  0.27220  0.31200  0.64110  1.0000 0.155157247
H   H42       1.0  0.13900  0.38600  0.67700  1.0000 0.1189462906
H   H43       1.0  0.93850  0.39900  0.53660  1.0000 0.0989920184
H   H44       1.0  0.06320  0.32370  0.49650  1.0000 0.1293819648
H   H45       1.0  0.89360  0.62200  0.85090  1.0000 0.1189462906
H   H46       1.0  0.86950  0.74150  0.88650  1.0000 0.1189462906
H   H47       1.0  0.67290  0.69940  0.12700  1.0000 0.1189462906
H   H48       1.0  0.65520  0.57100  0.14080  1.0000 0.1399473688
H   H49       1.0  0.68300  0.42580  0.09730  1.0000 0.1189462906
H   H50       1.0  0.73580  0.36060  0.02500  1.0000 0.1189462906
H   H51       1.0  0.70460  0.41240  0.82540  1.0000 0.1399473688
H   H52       1.0  0.71240  0.39340  0.73520  1.0000 0.1189462906
H   H53       1.0  0.02670  0.48380  0.75230  1.0000 0.109764078
H   H54       1.0  0.03000  0.50380  0.84320  1.0000 0.1293819648
H   H55       1.0  0.67290  0.79460  0.89340  1.0000 0.1399473688
H   H56       1.0  0.62690  0.90670  0.84860  1.0000 0.0989920184
H   H57       1.0  0.82900  0.02540  0.96090  1.0000 0.0989920184
H   H58       1.0  0.87590  0.91800  0.01090  1.0000 0.1399473688
H   H59       1.0  0.57360  0.84420  0.99420  1.0000 0.1293819648
H   H60       1.0  0.45770  0.92450  0.03540  1.0000 0.0989920184
H   H61       1.0  0.66130  0.90660  0.17440  1.0000 0.1189462906
H   H62       1.0  0.78830  0.82910  0.13700  1.0000 0.1469819857
H   H63       1.0  0.61640  0.36600  0.92270  1.0000 0.1469819857
H   H64       1.0  0.55640  0.24280  0.89800  1.0000 0.109764078
H   H65       1.0  0.87830  0.18160  0.89030  1.0000 0.0989920184
H   H66       1.0  0.94660  0.30410  0.91200  1.0000 0.1293819648
H   H67       1.0  0.63290  0.75980  0.61130  1.0000 0.109764078
H   H68       1.0  0.60430  0.87660  0.64980  1.0000 0.1189462906
H   H69       1.0  0.74630  0.15340  0.47990  1.0000 0.109764078
H   H70       1.0  0.79640  0.09380  0.40490  1.0000 0.1189462906
H   H71       1.0  0.83080  0.95050  0.35810  1.0000 0.1189462906
H   H72       1.0  0.82560  0.82150  0.37080  1.0000 0.1189462906
H   H73       1.0  0.65050  0.58840  0.47790  1.0000 0.1399473688
H   H74       1.0  0.69410  0.47890  0.52640  1.0000 0.0989920184
H   H75       1.0  0.85280  0.59720  0.65140  1.0000 0.0989920184
H   H76       1.0  0.81640  0.71020  0.60650  1.0000 0.1293819648
H   H77       1.0  0.76030  0.96350  0.68850  1.0000 0.1293819648
H   H78       1.0  0.75420  0.98730  0.77820  1.0000 0.0909045029
H   H79       1.0  0.51300  0.14250  0.74310  1.0000 0.1189462906
H   H80       1.0  0.51050  0.12270  0.65190  1.0000 0.1399473688
H   H81       1.0  0.84890  0.13020  0.63460  1.0000 0.1399473688
H   H82       1.0  0.90530  0.25280  0.66070  1.0000 0.109764078
H   H83       1.0  0.62070  0.33450  0.57910  1.0000 0.0989920184
H   H84       1.0  0.55990  0.21450  0.54680  1.0000 0.1293819648
H   H85       1.0  0.72780  0.68800  0.35890  1.0000 0.155157247
H   H86       1.0  0.86100  0.61400  0.32300  1.0000 0.1189462906
H   H87       1.0  0.06150  0.60100  0.46340  1.0000 0.0989920184
H   H88       1.0  0.93680  0.67630  0.50350  1.0000 0.1293819648
C   C1        1.0  0.10504  0.42555  0.02622  1.0000 -0.020621783
C   C2        1.0  0.11965  0.35223  0.00435  1.0000 -0.0299659454
C   C3        1.0  0.15919  0.36067  0.95470  1.0000 -0.0299659454
C   C4        1.0  0.16935  0.43945  0.94603  1.0000 -0.0299659454
C   C5        1.0  0.13718  0.47920  0.99041  1.0000 -0.0299659454
C   C6        1.0  0.11011  0.44036  0.08014  1.0000 0.0398451328
C   C7        1.0  0.11425  0.37289  0.11232  1.0000 -0.1608830454
C   C8        1.0  0.12933  0.30134  0.09100  1.0000 -0.1713970504
C   C9        1.0  0.14350  0.28943  0.03555  1.0000 0.0398451328
C   C10       1.0  0.19798  0.22696  0.01059  1.0000 -0.0388095077
C   C11       1.0  0.23618  0.23486  0.96109  1.0000 -0.0299659454
C   C12       1.0  0.22372  0.30674  0.93294  1.0000 0.0398451328
C   C13       1.0  0.28985  0.33568  0.89363  1.0000 -0.1497220701
C   C14       1.0  0.30032  0.41260  0.88529  1.0000 -0.1497220701
C   C15       1.0  0.24546  0.46884  0.91513  1.0000 0.0824650726
C   C16       1.0  0.27481  0.54804  0.92603  1.0000 -0.1713970504
C   C17       1.0  0.24337  0.58707  0.96945  1.0000 -0.1497220701
C   C18       1.0  0.17952  0.55042  0.00678  1.0000 0.0398451328
C   C19       1.0  0.17083  0.57186  0.06195  1.0000 -0.020621783
C   C20       1.0  0.13535  0.51928  0.09723  1.0000 -0.020621783
C   C21       1.0  0.13351  0.53839  0.15486  1.0000 0.1293819648
C   C22       1.0  0.22801  0.57211  0.18859  1.0000 -0.1713970504
C   C23       1.0  0.22282  0.58288  0.24254  1.0000 0.0909045029
C   C24       1.0  0.03980  0.53055  0.23262  1.0000 0.0604800403
C   C25       1.0  0.03725  0.51828  0.17822  1.0000 -0.1992171669
C   C26       1.0  0.22300  0.15614  0.04163  1.0000 0.1189462906
C   C27       1.0  0.29579  0.15832  0.09128  1.0000 -0.1992171669
C   C28       1.0  0.32180  0.09111  0.11798  1.0000 0.0604800403
C   C29       1.0  0.20500  0.02200  0.05241  1.0000 0.0498452758
C   C30       1.0  0.17571  0.08586  0.02236  1.0000 -0.210892083
C   C31       1.0  0.30674  0.17543  0.93882  1.0000 0.1293819648
C   C32       1.0  0.40625  0.14439  0.96843  1.0000 -0.1992171669
C   C33       1.0  0.47572  0.09682  0.94330  1.0000 0.0398451328
C   C34       1.0  0.35710  0.10665  0.86268  1.0000 0.0909045029
C   C35       1.0  0.28090  0.15362  0.88464  1.0000 -0.1992171669
C   C36       1.0  0.21082  0.65063  0.07956  1.0000 0.1293819648
C   C37       1.0  0.32788  0.67084  0.08408  1.0000 -0.1800843514
C   C38       1.0  0.36293  0.74478  0.09854  1.0000 0.0909045029
C   C39       1.0  0.17580  0.78027  0.10337  1.0000 0.0604800403
C   C40       1.0  0.13411  0.70726  0.09001  1.0000 -0.1910474567
C   C41       1.0  0.37556  0.14001  0.49427  1.0000 -0.0299659454
C   C42       1.0  0.39164  0.06823  0.47050  1.0000 -0.020621783
C   C43       1.0  0.36617  0.01175  0.50585  1.0000 -0.020621783
C   C44       1.0  0.33564  0.04824  0.55168  1.0000 -0.0299659454
C   C45       1.0  0.34042  0.12787  0.54427  1.0000 -0.0299659454
C   C46       1.0  0.35057  0.20451  0.46513  1.0000 0.0338635029
C   C47       1.0  0.36758  0.19601  0.40976  1.0000 -0.1713970504
C   C48       1.0  0.38444  0.12598  0.38660  1.0000 -0.1713970504
C   C49       1.0  0.38537  0.05632  0.41639  1.0000 0.0398451328
C   C50       1.0  0.36481  0.97723  0.39830  1.0000 -0.0299659454
C   C51       1.0  0.33833  0.92128  0.43331  1.0000 -0.020621783
C   C52       1.0  0.33092  0.93946  0.48895  1.0000 0.0338635029
C   C53       1.0  0.27197  0.89913  0.52652  1.0000 -0.1608830454
C   C54       1.0  0.24164  0.93495  0.57150  1.0000 -0.1713970504
C   C55       1.0  0.26593  0.01460  0.58360  1.0000 0.0909045029
C   C56       1.0  0.20986  0.06828  0.61513  1.0000 -0.1713970504
C   C57       1.0  0.21344  0.14580  0.60761  1.0000 -0.1497220701
C   C58       1.0  0.27484  0.17924  0.56794  1.0000 0.0398451328
C   C59       1.0  0.25789  0.25224  0.54142  1.0000 -0.020621783
C   C60       1.0  0.29509  0.26455  0.49222  1.0000 -0.0388095077
C   C61       1.0  0.27034  0.33745  0.46353  1.0000 0.1189462906
C   C62       1.0  0.30698  0.40821  0.48660  1.0000 -0.210892083
C   C63       1.0  0.28066  0.47335  0.45724  1.0000 0.0498452758
C   C64       1.0  0.18797  0.40461  0.38450  1.0000 0.0604800403
C   C65       1.0  0.20969  0.33664  0.41094  1.0000 -0.1992171669
C   C66       1.0  0.36459  0.95970  0.34050  1.0000 0.1189462906
C   C67       1.0  0.29176  0.99954  0.30141  1.0000 -0.1992171669
C   C68       1.0  0.29586  0.98485  0.24785  1.0000 0.0604800403
C   C69       1.0  0.43650  0.89451  0.26832  1.0000 0.0909045029
C   C70       1.0  0.43836  0.90591  0.32288  1.0000 -0.1800843514
C   C71       1.0  0.30248  0.84263  0.41281  1.0000 0.1189462906
C   C72       1.0  0.19970  0.82859  0.37838  1.0000 -0.1910474567
C   C73       1.0  0.16690  0.75506  0.36263  1.0000 0.0604800403
C   C74       1.0  0.33070  0.70767  0.41019  1.0000 0.0604800403
C   C75       1.0  0.36860  0.77954  0.42906  1.0000 -0.1910474567
C   C76       1.0  0.18176  0.30773  0.56444  1.0000 0.1293819648
C   C77       1.0  0.20321  0.32830  0.61874  1.0000 -0.1800843514
C   C78       1.0  0.12309  0.37269  0.63984  1.0000 0.0824650726
C   C79       1.0  0.00640  0.37998  0.55829  1.0000 0.0398451328
C   C80       1.0  0.08080  0.33542  0.53389  1.0000 -0.1992171669
C   C81       1.0  0.89496  0.57445  0.97378  1.0000 -0.020621783
C   C82       1.0  0.88035  0.64777  0.99565  1.0000 -0.0299659454
C   C83       1.0  0.84081  0.63933  0.04530  1.0000 -0.0299659454
C   C84       1.0  0.83065  0.56055  0.05397  1.0000 -0.0299659454
C   C85       1.0  0.86282  0.52080  0.00959  1.0000 -0.0299659454
C   C86       1.0  0.88989  0.55964  0.91986  1.0000 0.0398451328
C   C87       1.0  0.88575  0.62711  0.88768  1.0000 -0.1608830454
C   C88       1.0  0.87067  0.69866  0.90900  1.0000 -0.1713970504
C   C89       1.0  0.85650  0.71057  0.96445  1.0000 0.0398451328
C   C90       1.0  0.80202  0.77304  0.98941  1.0000 -0.0388095077
C   C91       1.0  0.76382  0.76514  0.03891  1.0000 -0.0299659454
C   C92       1.0  0.77628  0.69326  0.06706  1.0000 0.0398451328
C   C93       1.0  0.71015  0.66432  0.10637  1.0000 -0.1497220701
C   C94       1.0  0.69968  0.58740  0.11471  1.0000 -0.1497220701
C   C95       1.0  0.75454  0.53116  0.08487  1.0000 0.0824650726
C   C96       1.0  0.72519  0.45196  0.07397  1.0000 -0.1713970504
C   C97       1.0  0.75663  0.41293  0.03055  1.0000 -0.1497220701
C   C98       1.0  0.82048  0.44958  0.99322  1.0000 0.0398451328
C   C99       1.0  0.82917  0.42814  0.93805  1.0000 -0.020621783
C   C100      1.0  0.86465  0.48072  0.90277  1.0000 -0.020621783
C   C101      1.0  0.86649  0.46161  0.84514  1.0000 0.1293819648
C   C102      1.0  0.77199  0.42789  0.81141  1.0000 -0.1713970504
C   C103      1.0  0.77718  0.41712  0.75746  1.0000 0.0909045029
C   C104      1.0  0.96020  0.46945  0.76738  1.0000 0.0604800403
C   C105      1.0  0.96275  0.48172  0.82178  1.0000 -0.1992171669
C   C106      1.0  0.77700  0.84386  0.95837  1.0000 0.1189462906
C   C107      1.0  0.70421  0.84168  0.90872  1.0000 -0.1992171669
C   C108      1.0  0.67820  0.90889  0.88202  1.0000 0.0604800403
C   C109      1.0  0.79500  0.97800  0.94759  1.0000 0.0498452758
C   C110      1.0  0.82429  0.91414  0.97764  1.0000 -0.210892083
C   C111      1.0  0.69326  0.82457  0.06118  1.0000 0.1293819648
C   C112      1.0  0.59375  0.85561  0.03157  1.0000 -0.1992171669
C   C113      1.0  0.52428  0.90318  0.05670  1.0000 0.0398451328
C   C114      1.0  0.64290  0.89335  0.13732  1.0000 0.0909045029
C   C115      1.0  0.71910  0.84638  0.11536  1.0000 -0.1992171669
C   C116      1.0  0.78918  0.34937  0.92044  1.0000 0.1293819648
C   C117      1.0  0.67212  0.32916  0.91592  1.0000 -0.1800843514
C   C118      1.0  0.63707  0.25522  0.90146  1.0000 0.0909045029
C   C119      1.0  0.82420  0.21973  0.89663  1.0000 0.0604800403
C   C120      1.0  0.86589  0.29274  0.90999  1.0000 -0.1910474567
C   C121      1.0  0.62444  0.85999  0.50573  1.0000 -0.0299659454
C   C122      1.0  0.60836  0.93177  0.52950  1.0000 -0.020621783
C   C123      1.0  0.63383  0.98825  0.49415  1.0000 -0.020621783
C   C124      1.0  0.66436  0.95176  0.44832  1.0000 -0.0299659454
C   C125      1.0  0.65958  0.87213  0.45573  1.0000 -0.0299659454
C   C126      1.0  0.64943  0.79549  0.53487  1.0000 0.0338635029
C   C127      1.0  0.63242  0.80399  0.59024  1.0000 -0.1713970504
C   C128      1.0  0.61556  0.87402  0.61340  1.0000 -0.1713970504
C   C129      1.0  0.61463  0.94368  0.58361  1.0000 0.0398451328
C   C130      1.0  0.63519  0.02277  0.60170  1.0000 -0.0299659454
C   C131      1.0  0.66167  0.07872  0.56669  1.0000 -0.020621783
C   C132      1.0  0.66908  0.06054  0.51105  1.0000 0.0338635029
C   C133      1.0  0.72803  0.10087  0.47348  1.0000 -0.1608830454
C   C134      1.0  0.75836  0.06505  0.42850  1.0000 -0.1713970504
C   C135      1.0  0.73407  0.98540  0.41640  1.0000 0.0909045029
C   C136      1.0  0.79014  0.93172  0.38487  1.0000 -0.1713970504
C   C137      1.0  0.78656  0.85420  0.39239  1.0000 -0.1497220701
C   C138      1.0  0.72516  0.82076  0.43206  1.0000 0.0398451328
C   C139      1.0  0.74211  0.74776  0.45858  1.0000 -0.020621783
C   C140      1.0  0.70491  0.73545  0.50778  1.0000 -0.0388095077
C   C141      1.0  0.72966  0.66255  0.53647  1.0000 0.1189462906
C   C142      1.0  0.69302  0.59179  0.51340  1.0000 -0.210892083
C   C143      1.0  0.71934  0.52665  0.54276  1.0000 0.0498452758
C   C144      1.0  0.81203  0.59539  0.61550  1.0000 0.0604800403
C   C145      1.0  0.79031  0.66336  0.58906  1.0000 -0.1992171669
C   C146      1.0  0.63541  0.04030  0.65950  1.0000 0.1189462906
C   C147      1.0  0.70824  0.00046  0.69859  1.0000 -0.1992171669
C   C148      1.0  0.70414  0.01515  0.75215  1.0000 0.0604800403
C   C149      1.0  0.56350  0.10549  0.73168  1.0000 0.0909045029
C   C150      1.0  0.56164  0.09409  0.67712  1.0000 -0.1800843514
C   C151      1.0  0.69752  0.15737  0.58719  1.0000 0.1189462906
C   C152      1.0  0.80030  0.17141  0.62162  1.0000 -0.1910474567
C   C153      1.0  0.83310  0.24494  0.63737  1.0000 0.0604800403
C   C154      1.0  0.66930  0.29233  0.58981  1.0000 0.0604800403
C   C155      1.0  0.63140  0.22046  0.57094  1.0000 -0.1910474567
C   C156      1.0  0.81824  0.69227  0.43556  1.0000 0.1293819648
C   C157      1.0  0.79679  0.67170  0.38126  1.0000 -0.1800843514
C   C158      1.0  0.87691  0.62731  0.36016  1.0000 0.0824650726
C   C159      1.0  0.99360  0.62002  0.44171  1.0000 0.0398451328
C   C160      1.0  0.91920  0.66458  0.46611  1.0000 -0.1992171669
N   N1        1.0  0.13137  0.56165  0.26519  1.0000 -0.210892083
N   N2        1.0  0.27862  0.02304  0.09921  1.0000 -0.210892083
N   N3        1.0  0.45497  0.07889  0.89077  1.0000 -0.215418561
N   N4        1.0  0.28885  0.79977  0.10785  1.0000 -0.1992171669
N   N5        1.0  0.22142  0.47282  0.40679  1.0000 -0.210892083
N   N6        1.0  0.36681  0.93325  0.23075  1.0000 -0.1992171669
N   N7        1.0  0.23047  0.69454  0.37815  1.0000 -0.1910474567
N   N8        1.0  0.02460  0.39788  0.61084  1.0000 -0.1992171669
N   N9        1.0  0.86863  0.43835  0.73481  1.0000 -0.210892083
N   N10       1.0  0.72138  0.97696  0.90079  1.0000 -0.210892083
N   N11       1.0  0.54503  0.92111  0.10923  1.0000 -0.215418561
N   N12       1.0  0.71115  0.20023  0.89215  1.0000 -0.1992171669
N   N13       1.0  0.77858  0.52718  0.59321  1.0000 -0.210892083
N   N14       1.0  0.63319  0.06675  0.76925  1.0000 -0.1992171669
N   N15       1.0  0.76953  0.30546  0.62185  1.0000 -0.1910474567
N   N16       1.0  0.97540  0.60212  0.38916  1.0000 -0.1992171669
F   F1        1.0  0.42214  0.26058  0.70715  1.0000 -0.4497487607
F   F2        1.0  0.49444  0.37812  0.80597  1.0000 -0.4330098988
F   F3        1.0  0.42740  0.25624  0.79681  1.0000 -0.4497487607
F   F4        1.0  0.32752  0.34991  0.74900  1.0000 -0.4330098988
F   F5        1.0  0.49020  0.38221  0.71605  1.0000 -0.4247551175
F   F6        1.0  0.58969  0.28909  0.76408  1.0000 -0.4497487607
F   F7        1.0  0.57786  0.73942  0.29285  1.0000 -0.4497487607
F   F8        1.0  0.50556  0.62188  0.19403  1.0000 -0.4330098988
F   F9        1.0  0.57260  0.74376  0.20319  1.0000 -0.4497487607
F   F10       1.0  0.67248  0.65009  0.25100  1.0000 -0.4330098988
F   F11       1.0  0.50980  0.61779  0.28395  1.0000 -0.4247551175
F   F12       1.0  0.41031  0.71091  0.23592  1.0000 -0.4497487607
