# DDEC6 charges by PACMAN v1.1 (https://github.com/mtap-research/PACMAN-charge/)
data_2017[Ag][srs]3[ION]19
_chemical_formula_sum              "Ag6 H108 C144 N40 Cl18 O24"
_cell_length_a       18.5269
_cell_length_b       18.5269
_cell_length_c       18.5269
_cell_angle_alpha    109.471
_cell_angle_beta     109.471
_cell_angle_gamma    109.471

_symmetry_space_group_name_H-M    "P 1"
_symmetry_Int_Tables_number       1

loop_
  _symmetry_equiv_pos_as_xyz
  'x, y, z'

loop_
  _atom_site_type_symbol
  _atom_site_label
  _atom_site_symmetry_multiplicity
  _atom_site_fract_x
  _atom_site_fract_y
  _atom_site_fract_z
  _atom_site_occupancy
  _atom_site_charge
Ag  Ag1       1.0  0.25000  0.54029  0.29029  1.0000 0.2989992509
Ag  Ag2       1.0  0.75000  0.95971  0.20971  1.0000 0.2989992509
Ag  Ag3       1.0  0.95971  0.20971  0.75000  1.0000 0.2989992509
Ag  Ag4       1.0  0.54029  0.29029  0.25000  1.0000 0.2989992509
Ag  Ag5       1.0  0.29029  0.25000  0.54029  1.0000 0.2989992509
Ag  Ag6       1.0  0.20971  0.75000  0.95971  1.0000 0.2989992509
H   H1        1.0  0.35400  0.95890  0.55470  1.0000 0.1303878504
H   H2        1.0  0.22120  0.83020  0.46580  1.0000 0.1303878504
H   H3        1.0  0.32070  0.71930  0.32940  1.0000 0.1118479908
H   H4        1.0  0.45440  0.85140  0.41580  1.0000 0.1303878504
H   H5        1.0  0.12080  0.68530  0.33570  1.0000 0.117056159
H   H6        1.0  0.91180  0.40500  0.11700  1.0000 0.1559130981
H   H7        1.0  0.87610  0.25830  0.04220  1.0000 0.1118479908
H   H8        1.0  0.98520  0.22120  0.06900  1.0000 0.1303878504
H   H9        1.0  0.02780  0.55260  0.23080  1.0000 0.2796042881
H   H10       1.0  0.90420  0.79930  0.94530  1.0000 0.1303878504
H   H11       1.0  0.86440  0.75540  0.03420  1.0000 0.1303878504
H   H12       1.0  0.88990  0.99130  0.17060  1.0000 0.1118479908
H   H13       1.0  0.93560  0.03860  0.08420  1.0000 0.1303878504
H   H14       1.0  0.84960  0.78510  0.16430  1.0000 0.117056159
H   H15       1.0  0.78800  0.79480  0.38300  1.0000 0.1559130981
H   H16       1.0  0.71610  0.83390  0.45780  1.0000 0.1118479908
H   H17       1.0  0.65220  0.91620  0.43100  1.0000 0.1303878504
H   H18       1.0  0.82180  0.79700  0.26920  1.0000 0.2796042881
H   H19       1.0  0.14600  0.70070  0.60490  1.0000 0.1303878504
H   H20       1.0  0.27880  0.74460  0.60900  1.0000 0.1303878504
H   H21       1.0  0.17930  0.50870  0.39860  1.0000 0.1118479908
H   H22       1.0  0.04560  0.46140  0.39700  1.0000 0.1303878504
H   H23       1.0  0.37920  0.71490  0.56450  1.0000 0.117056159
H   H24       1.0  0.58820  0.70520  0.49320  1.0000 0.1559130981
H   H25       1.0  0.62390  0.66610  0.38220  1.0000 0.1118479908
H   H26       1.0  0.51480  0.58380  0.23600  1.0000 0.1303878504
H   H27       1.0  0.47220  0.70300  0.52480  1.0000 0.2796042881
H   H28       1.0  0.59580  0.54110  0.89510  1.0000 0.1303878504
H   H29       1.0  0.63560  0.66980  0.89100  1.0000 0.1303878504
H   H30       1.0  0.61010  0.78070  0.10140  1.0000 0.1118479908
H   H31       1.0  0.56440  0.64860  0.10300  1.0000 0.1303878504
H   H32       1.0  0.65040  0.81470  0.93550  1.0000 0.117056159
H   H33       1.0  0.71200  0.09500  0.00680  1.0000 0.1559130981
H   H34       1.0  0.78390  0.24170  0.11780  1.0000 0.1118479908
H   H35       1.0  0.84780  0.27880  0.26400  1.0000 0.1303878504
H   H36       1.0  0.67820  0.94740  0.97520  1.0000 0.2796042881
H   H37       1.0  0.54110  0.89510  0.59580  1.0000 0.1303878504
H   H38       1.0  0.66980  0.89100  0.63560  1.0000 0.1303878504
H   H39       1.0  0.78070  0.10140  0.61010  1.0000 0.1118479908
H   H40       1.0  0.64860  0.10300  0.56440  1.0000 0.1303878504
H   H41       1.0  0.81470  0.93550  0.65040  1.0000 0.117056159
H   H42       1.0  0.09500  0.00680  0.71200  1.0000 0.1559130981
H   H43       1.0  0.24170  0.11780  0.78390  1.0000 0.1118479908
H   H44       1.0  0.27880  0.26400  0.84780  1.0000 0.1303878504
H   H45       1.0  0.94740  0.97520  0.67820  1.0000 0.2796042881
H   H46       1.0  0.70070  0.60490  0.14600  1.0000 0.1303878504
H   H47       1.0  0.74460  0.60900  0.27880  1.0000 0.1303878504
H   H48       1.0  0.50870  0.39860  0.17930  1.0000 0.1118479908
H   H49       1.0  0.46140  0.39700  0.04560  1.0000 0.1303878504
H   H50       1.0  0.71490  0.56450  0.37920  1.0000 0.117056159
H   H51       1.0  0.70520  0.49320  0.58820  1.0000 0.1559130981
H   H52       1.0  0.66610  0.38220  0.62390  1.0000 0.1118479908
H   H53       1.0  0.58380  0.23600  0.51480  1.0000 0.1303878504
H   H54       1.0  0.70300  0.52480  0.47220  1.0000 0.2796042881
H   H55       1.0  0.79930  0.94530  0.90420  1.0000 0.1303878504
H   H56       1.0  0.75540  0.03420  0.86440  1.0000 0.1303878504
H   H57       1.0  0.99130  0.17060  0.88990  1.0000 0.1118479908
H   H58       1.0  0.03860  0.08420  0.93560  1.0000 0.1303878504
H   H59       1.0  0.78510  0.16430  0.84960  1.0000 0.117056159
H   H60       1.0  0.79480  0.38300  0.78800  1.0000 0.1559130981
H   H61       1.0  0.83390  0.45780  0.71610  1.0000 0.1118479908
H   H62       1.0  0.91620  0.43100  0.65220  1.0000 0.1303878504
H   H63       1.0  0.79700  0.26920  0.82180  1.0000 0.2796042881
H   H64       1.0  0.95890  0.55470  0.35400  1.0000 0.1303878504
H   H65       1.0  0.83020  0.46580  0.22120  1.0000 0.1303878504
H   H66       1.0  0.71930  0.32940  0.32070  1.0000 0.1118479908
H   H67       1.0  0.85140  0.41580  0.45440  1.0000 0.1303878504
H   H68       1.0  0.68530  0.33570  0.12080  1.0000 0.117056159
H   H69       1.0  0.40500  0.11700  0.91180  1.0000 0.1559130981
H   H70       1.0  0.25830  0.04220  0.87610  1.0000 0.1118479908
H   H71       1.0  0.22120  0.06900  0.98520  1.0000 0.1303878504
H   H72       1.0  0.55260  0.23080  0.02780  1.0000 0.2796042881
H   H73       1.0  0.60490  0.14600  0.70070  1.0000 0.1303878504
H   H74       1.0  0.60900  0.27880  0.74460  1.0000 0.1303878504
H   H75       1.0  0.39860  0.17930  0.50870  1.0000 0.1118479908
H   H76       1.0  0.39700  0.04560  0.46140  1.0000 0.1303878504
H   H77       1.0  0.56450  0.37920  0.71490  1.0000 0.117056159
H   H78       1.0  0.49320  0.58820  0.70520  1.0000 0.1559130981
H   H79       1.0  0.38220  0.62390  0.66610  1.0000 0.1118479908
H   H80       1.0  0.23600  0.51480  0.58380  1.0000 0.1303878504
H   H81       1.0  0.52480  0.47220  0.70300  1.0000 0.2796042881
H   H82       1.0  0.89510  0.59580  0.54110  1.0000 0.1303878504
H   H83       1.0  0.89100  0.63560  0.66980  1.0000 0.1303878504
H   H84       1.0  0.10140  0.61010  0.78070  1.0000 0.1118479908
H   H85       1.0  0.10300  0.56440  0.64860  1.0000 0.1303878504
H   H86       1.0  0.93550  0.65040  0.81470  1.0000 0.117056159
H   H87       1.0  0.00680  0.71200  0.09500  1.0000 0.1559130981
H   H88       1.0  0.11780  0.78390  0.24170  1.0000 0.1118479908
H   H89       1.0  0.26400  0.84780  0.27880  1.0000 0.1303878504
H   H90       1.0  0.97520  0.67820  0.94740  1.0000 0.2796042881
H   H91       1.0  0.55470  0.35400  0.95890  1.0000 0.1303878504
H   H92       1.0  0.46580  0.22120  0.83020  1.0000 0.1303878504
H   H93       1.0  0.32940  0.32070  0.71930  1.0000 0.1118479908
H   H94       1.0  0.41580  0.45440  0.85140  1.0000 0.1303878504
H   H95       1.0  0.33570  0.12080  0.68530  1.0000 0.117056159
H   H96       1.0  0.11700  0.91180  0.40500  1.0000 0.1559130981
H   H97       1.0  0.04220  0.87610  0.25830  1.0000 0.1118479908
H   H98       1.0  0.06900  0.98520  0.22120  1.0000 0.1303878504
H   H99       1.0  0.23080  0.02780  0.55260  1.0000 0.2796042881
H   H100      1.0  0.94530  0.90420  0.79930  1.0000 0.1303878504
H   H101      1.0  0.03420  0.86440  0.75540  1.0000 0.1303878504
H   H102      1.0  0.17060  0.88990  0.99130  1.0000 0.1118479908
H   H103      1.0  0.08420  0.93560  0.03860  1.0000 0.1303878504
H   H104      1.0  0.16430  0.84960  0.78510  1.0000 0.117056159
H   H105      1.0  0.38300  0.78800  0.79480  1.0000 0.1559130981
H   H106      1.0  0.45780  0.71610  0.83390  1.0000 0.1118479908
H   H107      1.0  0.43100  0.65220  0.91620  1.0000 0.1303878504
H   H108      1.0  0.26920  0.82180  0.79700  1.0000 0.2796042881
C   C1        1.0  0.41845  0.91925  0.49474  1.0000 0.1778388083
C   C2        1.0  0.34744  0.91098  0.50868  1.0000 -0.1816192682
C   C3        1.0  0.26863  0.83393  0.45610  1.0000 -0.1142409832
C   C4        1.0  0.25629  0.76067  0.38858  1.0000 0.0632212743
C   C5        1.0  0.32724  0.76806  0.37448  1.0000 -0.1372112821
C   C6        1.0  0.40730  0.84671  0.42645  1.0000 -0.1944798066
C   C7        1.0  0.16919  0.68066  0.33383  1.0000 -0.0099855654
C   C8        1.0  0.04594  0.45286  0.18798  1.0000 0.3413789878
C   C9        1.0  0.95583  0.38911  0.12718  1.0000 -0.2360432958
C   C10       1.0  0.93530  0.30250  0.08340  1.0000 -0.0099855654
C   C11       1.0  0.99900  0.28030  0.09890  1.0000 -0.2309146813
C   C12       1.0  0.08400  0.34605  0.15905  1.0000 0.2796042881
C   C13       1.0  0.92451  0.92371  0.00526  1.0000 0.1778388083
C   C14       1.0  0.90230  0.83876  0.99132  1.0000 -0.1816192682
C   C15       1.0  0.87783  0.81253  0.04390  1.0000 -0.1142409832
C   C16       1.0  0.87209  0.86771  0.11142  1.0000 0.0632212743
C   C17       1.0  0.89358  0.95276  0.12552  1.0000 -0.1372112821
C   C18       1.0  0.92026  0.98085  0.07355  1.0000 -0.1944798066
C   C19       1.0  0.84683  0.83536  0.16617  1.0000 -0.0099855654
C   C20       1.0  0.76488  0.85796  0.31202  1.0000 0.3413789878
C   C21       1.0  0.76193  0.82865  0.37282  1.0000 -0.2360432958
C   C22       1.0  0.71910  0.85190  0.41660  1.0000 -0.0099855654
C   C23       1.0  0.68140  0.90010  0.40110  1.0000 -0.2309146813
C   C24       1.0  0.68700  0.92495  0.34095  1.0000 0.2796042881
C   C25       1.0  0.08155  0.57629  0.50080  1.0000 0.1778388083
C   C26       1.0  0.15256  0.66124  0.56354  1.0000 -0.1816192682
C   C27       1.0  0.23137  0.68747  0.56530  1.0000 -0.1142409832
C   C28       1.0  0.24371  0.63229  0.50438  1.0000 0.0632212743
C   C29       1.0  0.17276  0.54724  0.44082  1.0000 -0.1372112821
C   C30       1.0  0.09270  0.51915  0.43941  1.0000 -0.1944798066
C   C31       1.0  0.33081  0.66464  0.51147  1.0000 -0.0099855654
C   C32       1.0  0.45406  0.64204  0.40692  1.0000 0.3413789878
C   C33       1.0  0.54417  0.67135  0.43328  1.0000 -0.2360432958
C   C34       1.0  0.56470  0.64810  0.36720  1.0000 -0.0099855654
C   C35       1.0  0.50100  0.59990  0.28130  1.0000 -0.2309146813
C   C36       1.0  0.41600  0.57505  0.26205  1.0000 0.2796042881
C   C37       1.0  0.57549  0.58075  0.99920  1.0000 0.1778388083
C   C38       1.0  0.59770  0.58902  0.93646  1.0000 -0.1816192682
C   C39       1.0  0.62217  0.66607  0.93470  1.0000 -0.1142409832
C   C40       1.0  0.62791  0.73933  0.99562  1.0000 0.0632212743
C   C41       1.0  0.60642  0.73194  0.05918  1.0000 -0.1372112821
C   C42       1.0  0.57974  0.65329  0.06059  1.0000 -0.1944798066
C   C43       1.0  0.65317  0.81934  0.98853  1.0000 -0.0099855654
C   C44       1.0  0.73512  0.04714  0.09308  1.0000 0.3413789878
C   C45       1.0  0.73807  0.11089  0.06672  1.0000 -0.2360432958
C   C46       1.0  0.78090  0.19750  0.13280  1.0000 -0.0099855654
C   C47       1.0  0.81860  0.21970  0.21870  1.0000 -0.2309146813
C   C48       1.0  0.81300  0.15395  0.23795  1.0000 0.2796042881
C   C49       1.0  0.58075  0.99920  0.57549  1.0000 0.1778388083
C   C50       1.0  0.58902  0.93646  0.59770  1.0000 -0.1816192682
C   C51       1.0  0.66607  0.93470  0.62217  1.0000 -0.1142409832
C   C52       1.0  0.73933  0.99562  0.62791  1.0000 0.0632212743
C   C53       1.0  0.73194  0.05918  0.60642  1.0000 -0.1372112821
C   C54       1.0  0.65329  0.06059  0.57974  1.0000 -0.1944798066
C   C55       1.0  0.81934  0.98853  0.65317  1.0000 -0.0099855654
C   C56       1.0  0.04714  0.09308  0.73512  1.0000 0.3413789878
C   C57       1.0  0.11089  0.06672  0.73807  1.0000 -0.2360432958
C   C58       1.0  0.19750  0.13280  0.78090  1.0000 -0.0099855654
C   C59       1.0  0.21970  0.21870  0.81860  1.0000 -0.2309146813
C   C60       1.0  0.15395  0.23795  0.81300  1.0000 0.2796042881
C   C61       1.0  0.57629  0.50080  0.08155  1.0000 0.1778388083
C   C62       1.0  0.66124  0.56354  0.15256  1.0000 -0.1816192682
C   C63       1.0  0.68747  0.56530  0.23137  1.0000 -0.1142409832
C   C64       1.0  0.63229  0.50438  0.24371  1.0000 0.0632212743
C   C65       1.0  0.54724  0.44082  0.17276  1.0000 -0.1372112821
C   C66       1.0  0.51915  0.43941  0.09270  1.0000 -0.1944798066
C   C67       1.0  0.66464  0.51147  0.33081  1.0000 -0.0099855654
C   C68       1.0  0.64204  0.40692  0.45406  1.0000 0.3413789878
C   C69       1.0  0.67135  0.43328  0.54417  1.0000 -0.2360432958
C   C70       1.0  0.64810  0.36720  0.56470  1.0000 -0.0099855654
C   C71       1.0  0.59990  0.28130  0.50100  1.0000 -0.2309146813
C   C72       1.0  0.57505  0.26205  0.41600  1.0000 0.2796042881
C   C73       1.0  0.92371  0.00526  0.92451  1.0000 0.1778388083
C   C74       1.0  0.83876  0.99132  0.90230  1.0000 -0.1816192682
C   C75       1.0  0.81253  0.04390  0.87783  1.0000 -0.1142409832
C   C76       1.0  0.86771  0.11142  0.87209  1.0000 0.0632212743
C   C77       1.0  0.95276  0.12552  0.89358  1.0000 -0.1372112821
C   C78       1.0  0.98085  0.07355  0.92026  1.0000 -0.1944798066
C   C79       1.0  0.83536  0.16617  0.84683  1.0000 -0.0099855654
C   C80       1.0  0.85796  0.31202  0.76488  1.0000 0.3413789878
C   C81       1.0  0.82865  0.37282  0.76193  1.0000 -0.2360432958
C   C82       1.0  0.85190  0.41660  0.71910  1.0000 -0.0099855654
C   C83       1.0  0.90010  0.40110  0.68140  1.0000 -0.2309146813
C   C84       1.0  0.92495  0.34095  0.68700  1.0000 0.2796042881
C   C85       1.0  0.91925  0.49474  0.41845  1.0000 0.1778388083
C   C86       1.0  0.91098  0.50868  0.34744  1.0000 -0.1816192682
C   C87       1.0  0.83393  0.45610  0.26863  1.0000 -0.1142409832
C   C88       1.0  0.76067  0.38858  0.25629  1.0000 0.0632212743
C   C89       1.0  0.76806  0.37448  0.32724  1.0000 -0.1372112821
C   C90       1.0  0.84671  0.42645  0.40730  1.0000 -0.1944798066
C   C91       1.0  0.68066  0.33383  0.16919  1.0000 -0.0099855654
C   C92       1.0  0.45286  0.18798  0.04594  1.0000 0.3413789878
C   C93       1.0  0.38911  0.12718  0.95583  1.0000 -0.2360432958
C   C94       1.0  0.30250  0.08340  0.93530  1.0000 -0.0099855654
C   C95       1.0  0.28030  0.09890  0.99900  1.0000 -0.2309146813
C   C96       1.0  0.34605  0.15905  0.08400  1.0000 0.2796042881
C   C97       1.0  0.50080  0.08155  0.57629  1.0000 0.1778388083
C   C98       1.0  0.56354  0.15256  0.66124  1.0000 -0.1816192682
C   C99       1.0  0.56530  0.23137  0.68747  1.0000 -0.1142409832
C   C100      1.0  0.50438  0.24371  0.63229  1.0000 0.0632212743
C   C101      1.0  0.44082  0.17276  0.54724  1.0000 -0.1372112821
C   C102      1.0  0.43941  0.09270  0.51915  1.0000 -0.1944798066
C   C103      1.0  0.51147  0.33081  0.66464  1.0000 -0.0099855654
C   C104      1.0  0.40692  0.45406  0.64204  1.0000 0.3413789878
C   C105      1.0  0.43328  0.54417  0.67135  1.0000 -0.2360432958
C   C106      1.0  0.36720  0.56470  0.64810  1.0000 -0.0099855654
C   C107      1.0  0.28130  0.50100  0.59990  1.0000 -0.2309146813
C   C108      1.0  0.26205  0.41600  0.57505  1.0000 0.2796042881
C   C109      1.0  0.99920  0.57549  0.58075  1.0000 0.1778388083
C   C110      1.0  0.93646  0.59770  0.58902  1.0000 -0.1816192682
C   C111      1.0  0.93470  0.62217  0.66607  1.0000 -0.1142409832
C   C112      1.0  0.99562  0.62791  0.73933  1.0000 0.0632212743
C   C113      1.0  0.05918  0.60642  0.73194  1.0000 -0.1372112821
C   C114      1.0  0.06059  0.57974  0.65329  1.0000 -0.1944798066
C   C115      1.0  0.98853  0.65317  0.81934  1.0000 -0.0099855654
C   C116      1.0  0.09308  0.73512  0.04714  1.0000 0.3413789878
C   C117      1.0  0.06672  0.73807  0.11089  1.0000 -0.2360432958
C   C118      1.0  0.13280  0.78090  0.19750  1.0000 -0.0099855654
C   C119      1.0  0.21870  0.81860  0.21970  1.0000 -0.2309146813
C   C120      1.0  0.23795  0.81300  0.15395  1.0000 0.2796042881
C   C121      1.0  0.49474  0.41845  0.91925  1.0000 0.1778388083
C   C122      1.0  0.50868  0.34744  0.91098  1.0000 -0.1816192682
C   C123      1.0  0.45610  0.26863  0.83393  1.0000 -0.1142409832
C   C124      1.0  0.38858  0.25629  0.76067  1.0000 0.0632212743
C   C125      1.0  0.37448  0.32724  0.76806  1.0000 -0.1372112821
C   C126      1.0  0.42645  0.40730  0.84671  1.0000 -0.1944798066
C   C127      1.0  0.33383  0.16919  0.68066  1.0000 -0.0099855654
C   C128      1.0  0.18798  0.04594  0.45286  1.0000 0.3413789878
C   C129      1.0  0.12718  0.95583  0.38911  1.0000 -0.2360432958
C   C130      1.0  0.08340  0.93530  0.30250  1.0000 -0.0099855654
C   C131      1.0  0.09890  0.99900  0.28030  1.0000 -0.2309146813
C   C132      1.0  0.15905  0.08400  0.34605  1.0000 0.2796042881
C   C133      1.0  0.00526  0.92451  0.92371  1.0000 0.1778388083
C   C134      1.0  0.99132  0.90230  0.83876  1.0000 -0.1816192682
C   C135      1.0  0.04390  0.87783  0.81253  1.0000 -0.1142409832
C   C136      1.0  0.11142  0.87209  0.86771  1.0000 0.0632212743
C   C137      1.0  0.12552  0.89358  0.95276  1.0000 -0.1372112821
C   C138      1.0  0.07355  0.92026  0.98085  1.0000 -0.1944798066
C   C139      1.0  0.16617  0.84683  0.83536  1.0000 -0.0099855654
C   C140      1.0  0.31202  0.76488  0.85796  1.0000 0.3413789878
C   C141      1.0  0.37282  0.76193  0.82865  1.0000 -0.2360432958
C   C142      1.0  0.41660  0.71910  0.85190  1.0000 -0.0099855654
C   C143      1.0  0.40110  0.68140  0.90010  1.0000 -0.2309146813
C   C144      1.0  0.34095  0.68700  0.92495  1.0000 0.2796042881
N   N1        1.0  0.15545  0.60558  0.28409  1.0000 -0.1184590847
N   N2        1.0  0.06906  0.53930  0.23374  1.0000 -0.1944798066
N   N3        1.0  0.10976  0.43087  0.20299  1.0000 -0.3337432211
N   N4        1.0  0.82149  0.87136  0.21591  1.0000 -0.1184590847
N   N5        1.0  0.80556  0.83532  0.26626  1.0000 -0.1944798066
N   N6        1.0  0.72788  0.90677  0.29701  1.0000 -0.3337432211
N   N7        1.0  0.34455  0.62864  0.45013  1.0000 -0.1184590847
N   N8        1.0  0.43094  0.66468  0.47024  1.0000 -0.1944798066
N   N9        1.0  0.39024  0.59323  0.32111  1.0000 -0.3337432211
N   N10       1.0  0.67851  0.89442  0.04987  1.0000 -0.1184590847
N   N11       1.0  0.69444  0.96070  0.02976  1.0000 -0.1944798066
N   N12       1.0  0.77212  0.06913  0.17889  1.0000 -0.3337432211
N   N13       1.0  0.89442  0.04987  0.67851  1.0000 -0.1184590847
N   N14       1.0  0.96070  0.02976  0.69444  1.0000 -0.1944798066
N   N15       1.0  0.06913  0.17889  0.77212  1.0000 -0.3337432211
N   N16       1.0  0.62864  0.45013  0.34455  1.0000 -0.1184590847
N   N17       1.0  0.66468  0.47024  0.43094  1.0000 -0.1944798066
N   N18       1.0  0.59323  0.32111  0.39024  1.0000 -0.3337432211
N   N19       1.0  0.87136  0.21591  0.82149  1.0000 -0.1184590847
N   N20       1.0  0.83532  0.26626  0.80556  1.0000 -0.1944798066
N   N21       1.0  0.90677  0.29701  0.72788  1.0000 -0.3337432211
N   N22       1.0  0.60558  0.28409  0.15545  1.0000 -0.1184590847
N   N23       1.0  0.53930  0.23374  0.06906  1.0000 -0.1944798066
N   N24       1.0  0.43087  0.20299  0.10976  1.0000 -0.3337432211
N   N25       1.0  0.45013  0.34455  0.62864  1.0000 -0.1184590847
N   N26       1.0  0.47024  0.43094  0.66468  1.0000 -0.1944798066
N   N27       1.0  0.32111  0.39024  0.59323  1.0000 -0.3337432211
N   N28       1.0  0.04987  0.67851  0.89442  1.0000 -0.1184590847
N   N29       1.0  0.02976  0.69444  0.96070  1.0000 -0.1944798066
N   N30       1.0  0.17889  0.77212  0.06913  1.0000 -0.3337432211
N   N31       1.0  0.28409  0.15545  0.60558  1.0000 -0.1184590847
N   N32       1.0  0.23374  0.06906  0.53930  1.0000 -0.1944798066
N   N33       1.0  0.20299  0.10976  0.43087  1.0000 -0.3337432211
N   N34       1.0  0.21591  0.82149  0.87136  1.0000 -0.1184590847
N   N35       1.0  0.26626  0.80556  0.83532  1.0000 -0.1944798066
N   N36       1.0  0.29701  0.72788  0.90677  1.0000 -0.3337432211
N   N37       1.0  0.50000  0.00000  0.54680  1.0000 -0.1637349815
N   N38       1.0  0.95320  0.95320  0.95320  1.0000 -0.1637349815
N   N39       1.0  0.00000  0.54680  0.50000  1.0000 -0.1637349815
N   N40       1.0  0.54680  0.50000  0.00000  1.0000 -0.1637349815
Cl  Cl1       1.0  0.16931  0.32258  0.18137  1.0000 -0.1184590847
Cl  Cl2       1.0  0.64121  0.98794  0.31863  1.0000 -0.1184590847
Cl  Cl3       1.0  0.33069  0.51206  0.15327  1.0000 -0.1184590847
Cl  Cl4       1.0  0.85879  0.17742  0.34673  1.0000 -0.1184590847
Cl  Cl5       1.0  0.17742  0.34673  0.85879  1.0000 -0.1184590847
Cl  Cl6       1.0  0.51206  0.15327  0.33069  1.0000 -0.1184590847
Cl  Cl7       1.0  0.98794  0.31863  0.64121  1.0000 -0.1184590847
Cl  Cl8       1.0  0.32258  0.18137  0.16931  1.0000 -0.1184590847
Cl  Cl9       1.0  0.15327  0.33069  0.51206  1.0000 -0.1184590847
Cl  Cl10      1.0  0.34673  0.85879  0.17742  1.0000 -0.1184590847
Cl  Cl11      1.0  0.18137  0.16931  0.32258  1.0000 -0.1184590847
Cl  Cl12      1.0  0.31863  0.64121  0.98794  1.0000 -0.1184590847
Cl  Cl13      1.0  0.93870  0.68870  0.25000  1.0000 1.2698661992
Cl  Cl14      1.0  0.56130  0.81130  0.75000  1.0000 1.2698661992
Cl  Cl15      1.0  0.75000  0.56130  0.81130  1.0000 1.2698661992
Cl  Cl16      1.0  0.25000  0.93870  0.68870  1.0000 1.2698661992
Cl  Cl17      1.0  0.81130  0.75000  0.56130  1.0000 1.2698661992
Cl  Cl18      1.0  0.68870  0.25000  0.93870  1.0000 1.2698661992
O   O1        1.0  0.02555  0.75036  0.32303  1.0000 -0.5060737521
O   O2        1.0  0.87721  0.70100  0.27545  1.0000 -0.5043162112
O   O3        1.0  0.92733  0.70252  0.17697  1.0000 -0.5060737521
O   O4        1.0  0.92555  0.60176  0.22455  1.0000 -0.5043162112
O   O5        1.0  0.47445  0.79748  0.72481  1.0000 -0.5043162112
O   O6        1.0  0.62279  0.89824  0.82379  1.0000 -0.5043162112
O   O7        1.0  0.57267  0.74964  0.77519  1.0000 -0.5043162112
O   O8        1.0  0.57445  0.79900  0.67621  1.0000 -0.5043162112
O   O9        1.0  0.72481  0.47445  0.79748  1.0000 -0.5043162112
O   O10       1.0  0.82379  0.62279  0.89824  1.0000 -0.5043162112
O   O11       1.0  0.77519  0.57267  0.74964  1.0000 -0.5043162112
O   O12       1.0  0.67621  0.57445  0.79900  1.0000 -0.5043162112
O   O13       1.0  0.32303  0.02555  0.75036  1.0000 -0.5060737521
O   O14       1.0  0.27545  0.87721  0.70100  1.0000 -0.5060737521
O   O15       1.0  0.17697  0.92733  0.70252  1.0000 -0.5060737521
O   O16       1.0  0.22455  0.92555  0.60176  1.0000 -0.5060737521
O   O17       1.0  0.74964  0.77519  0.57267  1.0000 -0.5043162112
O   O18       1.0  0.79900  0.67621  0.57445  1.0000 -0.5043162112
O   O19       1.0  0.79748  0.72481  0.47445  1.0000 -0.5043162112
O   O20       1.0  0.89824  0.82379  0.62279  1.0000 -0.5043162112
O   O21       1.0  0.70252  0.17697  0.92733  1.0000 -0.5060737521
O   O22       1.0  0.60176  0.22455  0.92555  1.0000 -0.5060737521
O   O23       1.0  0.75036  0.32303  0.02555  1.0000 -0.5060737521
O   O24       1.0  0.70100  0.27545  0.87721  1.0000 -0.5060737521
