# DDEC6 charges by PACMAN v1.1 (https://github.com/mtap-research/PACMAN-charge/)
data_2017[Ag][srs]3[ION]1
_chemical_formula_sum              "Ag6 H108 C144 N40 Cl18 O24"
_cell_length_a       18.4838
_cell_length_b       18.4838
_cell_length_c       18.4838
_cell_angle_alpha    109.471
_cell_angle_beta     109.471
_cell_angle_gamma    109.471

_symmetry_space_group_name_H-M    "P 1"
_symmetry_Int_Tables_number       1

loop_
  _symmetry_equiv_pos_as_xyz
  'x, y, z'

loop_
  _atom_site_type_symbol
  _atom_site_label
  _atom_site_symmetry_multiplicity
  _atom_site_fract_x
  _atom_site_fract_y
  _atom_site_fract_z
  _atom_site_occupancy
  _atom_site_charge
Ag  Ag1       1.0  0.71051  0.46051  0.25000  1.0000 0.3126454748
Ag  Ag2       1.0  0.78949  0.03949  0.75000  1.0000 0.3166114129
Ag  Ag3       1.0  0.03949  0.75000  0.78949  1.0000 0.3126454748
Ag  Ag4       1.0  0.46051  0.25000  0.71051  1.0000 0.3126454748
Ag  Ag5       1.0  0.75000  0.78949  0.03949  1.0000 0.3126454748
Ag  Ag6       1.0  0.25000  0.71051  0.46051  1.0000 0.3126454748
H   H1        1.0  0.39360  0.04090  0.09370  1.0000 0.1247683801
H   H2        1.0  0.39330  0.17230  0.13680  1.0000 0.1302567758
H   H3        1.0  0.60140  0.28070  0.10910  1.0000 0.1115594281
H   H4        1.0  0.60200  0.14790  0.06210  1.0000 0.1302567758
H   H5        1.0  0.43740  0.31610  0.15310  1.0000 0.1115594281
H   H6        1.0  0.50700  0.59570  0.21310  1.0000 0.1548885666
H   H7        1.0  0.61800  0.74230  0.28350  1.0000 0.1115594281
H   H8        1.0  0.76600  0.78070  0.35230  1.0000 0.1302567758
H   H9        1.0  0.47670  0.44870  0.18060  1.0000 0.2809982176
H   H10       1.0  0.44720  0.29990  0.40630  1.0000 0.1247683801
H   H11       1.0  0.53550  0.25650  0.36320  1.0000 0.1302567758
H   H12       1.0  0.67160  0.49230  0.39090  1.0000 0.1115594281
H   H13       1.0  0.58580  0.53990  0.43790  1.0000 0.1302567758
H   H14       1.0  0.66300  0.28430  0.34690  1.0000 0.1115594281
H   H15       1.0  0.88260  0.29390  0.28690  1.0000 0.1548885666
H   H16       1.0  0.95880  0.33450  0.21650  1.0000 0.1115594281
H   H17       1.0  0.92840  0.41370  0.14770  1.0000 0.1302567758
H   H18       1.0  0.76810  0.29610  0.31940  1.0000 0.2809982176
H   H19       1.0  0.10640  0.20010  0.64730  1.0000 0.1247683801
H   H20       1.0  0.10670  0.24350  0.77900  1.0000 0.1302567758
H   H21       1.0  0.89860  0.00770  0.67930  1.0000 0.1115594281
H   H22       1.0  0.89800  0.96010  0.54590  1.0000 0.1302567758
H   H23       1.0  0.06260  0.21570  0.87870  1.0000 0.1115594281
H   H24       1.0  0.99300  0.20610  0.08870  1.0000 0.1548885666
H   H25       1.0  0.88200  0.16550  0.12430  1.0000 0.1115594281
H   H26       1.0  0.73400  0.08630  0.01470  1.0000 0.1302567758
H   H27       1.0  0.02330  0.20390  0.97200  1.0000 0.2809982176
H   H28       1.0  0.05280  0.45910  0.85270  1.0000 0.1247683801
H   H29       1.0  0.96450  0.32770  0.72100  1.0000 0.1302567758
H   H30       1.0  0.82840  0.21930  0.82070  1.0000 0.1115594281
H   H31       1.0  0.91420  0.35210  0.95410  1.0000 0.1302567758
H   H32       1.0  0.83700  0.18390  0.62130  1.0000 0.1115594281
H   H33       1.0  0.61740  0.90430  0.41130  1.0000 0.1548885666
H   H34       1.0  0.54120  0.75770  0.37570  1.0000 0.1115594281
H   H35       1.0  0.57160  0.71930  0.48530  1.0000 0.1302567758
H   H36       1.0  0.73190  0.05130  0.52800  1.0000 0.2809982176
H   H37       1.0  0.45910  0.85270  0.05280  1.0000 0.1247683801
H   H38       1.0  0.32770  0.72100  0.96450  1.0000 0.1302567758
H   H39       1.0  0.21930  0.82070  0.82840  1.0000 0.1115594281
H   H40       1.0  0.35210  0.95410  0.91420  1.0000 0.1302567758
H   H41       1.0  0.18390  0.62130  0.83700  1.0000 0.1115594281
H   H42       1.0  0.90430  0.41130  0.61740  1.0000 0.1548885666
H   H43       1.0  0.75770  0.37570  0.54120  1.0000 0.1115594281
H   H44       1.0  0.71930  0.48530  0.57160  1.0000 0.1302567758
H   H45       1.0  0.05130  0.52800  0.73190  1.0000 0.2809982176
H   H46       1.0  0.20010  0.64730  0.10640  1.0000 0.1247683801
H   H47       1.0  0.24350  0.77900  0.10670  1.0000 0.1302567758
H   H48       1.0  0.00770  0.67930  0.89860  1.0000 0.1115594281
H   H49       1.0  0.96010  0.54590  0.89800  1.0000 0.1302567758
H   H50       1.0  0.21570  0.87870  0.06260  1.0000 0.1115594281
H   H51       1.0  0.20610  0.08870  0.99300  1.0000 0.1548885666
H   H52       1.0  0.16550  0.12430  0.88200  1.0000 0.1115594281
H   H53       1.0  0.08630  0.01470  0.73400  1.0000 0.1302567758
H   H54       1.0  0.20390  0.97200  0.02330  1.0000 0.2809982176
H   H55       1.0  0.29990  0.40630  0.44720  1.0000 0.1247683801
H   H56       1.0  0.25650  0.36320  0.53550  1.0000 0.1302567758
H   H57       1.0  0.49230  0.39090  0.67160  1.0000 0.1115594281
H   H58       1.0  0.53990  0.43790  0.58580  1.0000 0.1302567758
H   H59       1.0  0.28430  0.34690  0.66300  1.0000 0.1115594281
H   H60       1.0  0.29390  0.28690  0.88260  1.0000 0.1548885666
H   H61       1.0  0.33450  0.21650  0.95880  1.0000 0.1115594281
H   H62       1.0  0.41370  0.14770  0.92840  1.0000 0.1302567758
H   H63       1.0  0.29610  0.31940  0.76810  1.0000 0.2809982176
H   H64       1.0  0.04090  0.09370  0.39360  1.0000 0.1247683801
H   H65       1.0  0.17230  0.13680  0.39330  1.0000 0.1302567758
H   H66       1.0  0.28070  0.10910  0.60140  1.0000 0.1115594281
H   H67       1.0  0.14790  0.06210  0.60200  1.0000 0.1302567758
H   H68       1.0  0.31610  0.15310  0.43740  1.0000 0.1115594281
H   H69       1.0  0.59570  0.21310  0.50700  1.0000 0.1548885666
H   H70       1.0  0.74230  0.28350  0.61800  1.0000 0.1115594281
H   H71       1.0  0.78070  0.35230  0.76600  1.0000 0.1302567758
H   H72       1.0  0.44870  0.18060  0.47670  1.0000 0.2809982176
H   H73       1.0  0.64730  0.10640  0.20010  1.0000 0.1247683801
H   H74       1.0  0.77900  0.10670  0.24350  1.0000 0.1302567758
H   H75       1.0  0.67930  0.89860  0.00770  1.0000 0.1115594281
H   H76       1.0  0.54590  0.89800  0.96010  1.0000 0.1302567758
H   H77       1.0  0.87870  0.06260  0.21570  1.0000 0.1115594281
H   H78       1.0  0.08870  0.99300  0.20610  1.0000 0.1548885666
H   H79       1.0  0.12430  0.88200  0.16550  1.0000 0.1115594281
H   H80       1.0  0.01470  0.73400  0.08630  1.0000 0.1302567758
H   H81       1.0  0.97200  0.02330  0.20390  1.0000 0.2809982176
H   H82       1.0  0.85270  0.05280  0.45910  1.0000 0.1247683801
H   H83       1.0  0.72100  0.96450  0.32770  1.0000 0.1302567758
H   H84       1.0  0.82070  0.82840  0.21930  1.0000 0.1115594281
H   H85       1.0  0.95410  0.91420  0.35210  1.0000 0.1302567758
H   H86       1.0  0.62130  0.83700  0.18390  1.0000 0.1115594281
H   H87       1.0  0.41130  0.61740  0.90430  1.0000 0.1548885666
H   H88       1.0  0.37570  0.54120  0.75770  1.0000 0.1115594281
H   H89       1.0  0.48530  0.57160  0.71930  1.0000 0.1302567758
H   H90       1.0  0.52800  0.73190  0.05130  1.0000 0.2809982176
H   H91       1.0  0.09370  0.39360  0.04090  1.0000 0.1247683801
H   H92       1.0  0.13680  0.39330  0.17230  1.0000 0.1302567758
H   H93       1.0  0.10910  0.60140  0.28070  1.0000 0.1115594281
H   H94       1.0  0.06210  0.60200  0.14790  1.0000 0.1302567758
H   H95       1.0  0.15310  0.43740  0.31610  1.0000 0.1115594281
H   H96       1.0  0.21310  0.50700  0.59570  1.0000 0.1548885666
H   H97       1.0  0.28350  0.61800  0.74230  1.0000 0.1115594281
H   H98       1.0  0.35230  0.76600  0.78070  1.0000 0.1302567758
H   H99       1.0  0.18060  0.47670  0.44870  1.0000 0.2809982176
H   H100      1.0  0.40630  0.44720  0.29990  1.0000 0.1247683801
H   H101      1.0  0.36320  0.53550  0.25650  1.0000 0.1302567758
H   H102      1.0  0.39090  0.67160  0.49230  1.0000 0.1115594281
H   H103      1.0  0.43790  0.58580  0.53990  1.0000 0.1302567758
H   H104      1.0  0.34690  0.66300  0.28430  1.0000 0.1115594281
H   H105      1.0  0.28690  0.88260  0.29390  1.0000 0.1548885666
H   H106      1.0  0.21650  0.95880  0.33450  1.0000 0.1115594281
H   H107      1.0  0.14770  0.92840  0.41370  1.0000 0.1302567758
H   H108      1.0  0.31940  0.76810  0.29610  1.0000 0.2809982176
C   C1        1.0  0.49920  0.08100  0.07460  1.0000 0.1770656184
C   C2        1.0  0.43600  0.08910  0.09650  1.0000 -0.1817361973
C   C3        1.0  0.43620  0.16760  0.12200  1.0000 -0.1190737653
C   C4        1.0  0.49600  0.23950  0.12710  1.0000 0.057676592
C   C5        1.0  0.55890  0.23180  0.10530  1.0000 -0.1384821348
C   C6        1.0  0.55990  0.15290  0.07820  1.0000 -0.1922689241
C   C7        1.0  0.48990  0.32030  0.15400  1.0000 -0.0072863394
C   C8        1.0  0.59360  0.54750  0.23490  1.0000 0.34594641
C   C9        1.0  0.56710  0.61160  0.23870  1.0000 -0.2393713755
C   C10       1.0  0.63310  0.69820  0.28150  1.0000 -0.0072863394
C   C11       1.0  0.72040  0.72130  0.32130  1.0000 -0.2393713755
C   C12       1.0  0.73830  0.65490  0.31420  1.0000 0.2809982176
C   C13       1.0  0.50640  0.42460  0.42540  1.0000 0.1770656184
C   C14       1.0  0.49260  0.33950  0.40350  1.0000 -0.1817361973
C   C15       1.0  0.54560  0.31420  0.37800  1.0000 -0.1190737653
C   C16       1.0  0.61240  0.36890  0.37290  1.0000 0.057676592
C   C17       1.0  0.62650  0.45360  0.39470  1.0000 -0.1384821348
C   C18       1.0  0.57470  0.48170  0.42180  1.0000 -0.1922689241
C   C19       1.0  0.66630  0.33590  0.34600  1.0000 -0.0072863394
C   C20       1.0  0.81260  0.35870  0.26510  1.0000 0.34594641
C   C21       1.0  0.87290  0.32840  0.26130  1.0000 -0.2393713755
C   C22       1.0  0.91670  0.35160  0.21850  1.0000 -0.0072863394
C   C23       1.0  0.90000  0.39910  0.17870  1.0000 -0.2393713755
C   C24       1.0  0.84070  0.42410  0.18580  1.0000 0.2809982176
C   C25       1.0  0.00080  0.07540  0.58180  1.0000 0.1770656184
C   C26       1.0  0.06400  0.16050  0.65310  1.0000 -0.1817361973
C   C27       1.0  0.06380  0.18580  0.73140  1.0000 -0.1190737653
C   C28       1.0  0.00400  0.13110  0.74350  1.0000 0.057676592
C   C29       1.0  0.94110  0.04640  0.67290  1.0000 -0.1384821348
C   C30       1.0  0.94010  0.01830  0.59300  1.0000 -0.1922689241
C   C31       1.0  0.01010  0.16410  0.83040  1.0000 -0.0072863394
C   C32       1.0  0.90640  0.14130  0.95390  1.0000 0.34594641
C   C33       1.0  0.93290  0.17160  0.04450  1.0000 -0.2393713755
C   C34       1.0  0.86690  0.14840  0.06510  1.0000 -0.0072863394
C   C35       1.0  0.77960  0.10090  0.00090  1.0000 -0.2393713755
C   C36       1.0  0.76170  0.07590  0.91660  1.0000 0.2809982176
C   C37       1.0  0.99360  0.41900  0.91820  1.0000 0.1770656184
C   C38       1.0  0.00740  0.41090  0.84690  1.0000 -0.1817361973
C   C39       1.0  0.95440  0.33240  0.76860  1.0000 -0.1190737653
C   C40       1.0  0.88760  0.26050  0.75650  1.0000 0.057676592
C   C41       1.0  0.87350  0.26820  0.82710  1.0000 -0.1384821348
C   C42       1.0  0.92530  0.34710  0.90700  1.0000 -0.1922689241
C   C43       1.0  0.83370  0.17970  0.66960  1.0000 -0.0072863394
C   C44       1.0  0.68740  0.95250  0.54610  1.0000 0.34594641
C   C45       1.0  0.62710  0.88840  0.45550  1.0000 -0.2393713755
C   C46       1.0  0.58330  0.80180  0.43490  1.0000 -0.0072863394
C   C47       1.0  0.60000  0.77870  0.49910  1.0000 -0.2393713755
C   C48       1.0  0.65930  0.84510  0.58340  1.0000 0.2809982176
C   C49       1.0  0.41900  0.91820  0.99360  1.0000 0.1770656184
C   C50       1.0  0.41090  0.84690  0.00740  1.0000 -0.1817361973
C   C51       1.0  0.33240  0.76860  0.95440  1.0000 -0.1190737653
C   C52       1.0  0.26050  0.75650  0.88760  1.0000 0.057676592
C   C53       1.0  0.26820  0.82710  0.87350  1.0000 -0.1384821348
C   C54       1.0  0.34710  0.90700  0.92530  1.0000 -0.1922689241
C   C55       1.0  0.17970  0.66960  0.83370  1.0000 -0.0072863394
C   C56       1.0  0.95250  0.54610  0.68740  1.0000 0.34594641
C   C57       1.0  0.88840  0.45550  0.62710  1.0000 -0.2393713755
C   C58       1.0  0.80180  0.43490  0.58330  1.0000 -0.0072863394
C   C59       1.0  0.77870  0.49910  0.60000  1.0000 -0.2393713755
C   C60       1.0  0.84510  0.58340  0.65930  1.0000 0.2809982176
C   C61       1.0  0.07540  0.58180  0.00080  1.0000 0.1770656184
C   C62       1.0  0.16050  0.65310  0.06400  1.0000 -0.1817361973
C   C63       1.0  0.18580  0.73140  0.06380  1.0000 -0.1190737653
C   C64       1.0  0.13110  0.74350  0.00400  1.0000 0.057676592
C   C65       1.0  0.04640  0.67290  0.94110  1.0000 -0.1384821348
C   C66       1.0  0.01830  0.59300  0.94010  1.0000 -0.1922689241
C   C67       1.0  0.16410  0.83040  0.01010  1.0000 -0.0072863394
C   C68       1.0  0.14130  0.95390  0.90640  1.0000 0.34594641
C   C69       1.0  0.17160  0.04450  0.93290  1.0000 -0.2393713755
C   C70       1.0  0.14840  0.06510  0.86690  1.0000 -0.0072863394
C   C71       1.0  0.10090  0.00090  0.77960  1.0000 -0.2393713755
C   C72       1.0  0.07590  0.91660  0.76170  1.0000 0.2809982176
C   C73       1.0  0.42460  0.42540  0.50640  1.0000 0.1770656184
C   C74       1.0  0.33950  0.40350  0.49260  1.0000 -0.1817361973
C   C75       1.0  0.31420  0.37800  0.54560  1.0000 -0.1190737653
C   C76       1.0  0.36890  0.37290  0.61240  1.0000 0.057676592
C   C77       1.0  0.45360  0.39470  0.62650  1.0000 -0.1384821348
C   C78       1.0  0.48170  0.42180  0.57470  1.0000 -0.1922689241
C   C79       1.0  0.33590  0.34600  0.66630  1.0000 -0.0072863394
C   C80       1.0  0.35870  0.26510  0.81260  1.0000 0.34594641
C   C81       1.0  0.32840  0.26130  0.87290  1.0000 -0.2393713755
C   C82       1.0  0.35160  0.21850  0.91670  1.0000 -0.0072863394
C   C83       1.0  0.39910  0.17870  0.90000  1.0000 -0.2393713755
C   C84       1.0  0.42410  0.18580  0.84070  1.0000 0.2809982176
C   C85       1.0  0.08100  0.07460  0.49920  1.0000 0.1770656184
C   C86       1.0  0.08910  0.09650  0.43600  1.0000 -0.1817361973
C   C87       1.0  0.16760  0.12200  0.43620  1.0000 -0.1190737653
C   C88       1.0  0.23950  0.12710  0.49600  1.0000 0.057676592
C   C89       1.0  0.23180  0.10530  0.55890  1.0000 -0.1384821348
C   C90       1.0  0.15290  0.07820  0.55990  1.0000 -0.1922689241
C   C91       1.0  0.32030  0.15400  0.48990  1.0000 -0.0072863394
C   C92       1.0  0.54750  0.23490  0.59360  1.0000 0.34594641
C   C93       1.0  0.61160  0.23870  0.56710  1.0000 -0.2393713755
C   C94       1.0  0.69820  0.28150  0.63310  1.0000 -0.0072863394
C   C95       1.0  0.72130  0.32130  0.72040  1.0000 -0.2393713755
C   C96       1.0  0.65490  0.31420  0.73830  1.0000 0.2809982176
C   C97       1.0  0.58180  0.00080  0.07540  1.0000 0.1770656184
C   C98       1.0  0.65310  0.06400  0.16050  1.0000 -0.1817361973
C   C99       1.0  0.73140  0.06380  0.18580  1.0000 -0.1190737653
C   C100      1.0  0.74350  0.00400  0.13110  1.0000 0.057676592
C   C101      1.0  0.67290  0.94110  0.04640  1.0000 -0.1384821348
C   C102      1.0  0.59300  0.94010  0.01830  1.0000 -0.1922689241
C   C103      1.0  0.83040  0.01010  0.16410  1.0000 -0.0072863394
C   C104      1.0  0.95390  0.90640  0.14130  1.0000 0.34594641
C   C105      1.0  0.04450  0.93290  0.17160  1.0000 -0.2393713755
C   C106      1.0  0.06510  0.86690  0.14840  1.0000 -0.0072863394
C   C107      1.0  0.00090  0.77960  0.10090  1.0000 -0.2393713755
C   C108      1.0  0.91660  0.76170  0.07590  1.0000 0.2809982176
C   C109      1.0  0.91820  0.99360  0.41900  1.0000 0.1770656184
C   C110      1.0  0.84690  0.00740  0.41090  1.0000 -0.1817361973
C   C111      1.0  0.76860  0.95440  0.33240  1.0000 -0.1190737653
C   C112      1.0  0.75650  0.88760  0.26050  1.0000 0.057676592
C   C113      1.0  0.82710  0.87350  0.26820  1.0000 -0.1384821348
C   C114      1.0  0.90700  0.92530  0.34710  1.0000 -0.1922689241
C   C115      1.0  0.66960  0.83370  0.17970  1.0000 -0.0072863394
C   C116      1.0  0.54610  0.68740  0.95250  1.0000 0.34594641
C   C117      1.0  0.45550  0.62710  0.88840  1.0000 -0.2393713755
C   C118      1.0  0.43490  0.58330  0.80180  1.0000 -0.0072863394
C   C119      1.0  0.49910  0.60000  0.77870  1.0000 -0.2393713755
C   C120      1.0  0.58340  0.65930  0.84510  1.0000 0.2809982176
C   C121      1.0  0.07460  0.49920  0.08100  1.0000 0.1770656184
C   C122      1.0  0.09650  0.43600  0.08910  1.0000 -0.1817361973
C   C123      1.0  0.12200  0.43620  0.16760  1.0000 -0.1190737653
C   C124      1.0  0.12710  0.49600  0.23950  1.0000 0.057676592
C   C125      1.0  0.10530  0.55890  0.23180  1.0000 -0.1384821348
C   C126      1.0  0.07820  0.55990  0.15290  1.0000 -0.1922689241
C   C127      1.0  0.15400  0.48990  0.32030  1.0000 -0.0072863394
C   C128      1.0  0.23490  0.59360  0.54750  1.0000 0.34594641
C   C129      1.0  0.23870  0.56710  0.61160  1.0000 -0.2393713755
C   C130      1.0  0.28150  0.63310  0.69820  1.0000 -0.0072863394
C   C131      1.0  0.32130  0.72040  0.72130  1.0000 -0.2393713755
C   C132      1.0  0.31420  0.73830  0.65490  1.0000 0.2809982176
C   C133      1.0  0.42540  0.50640  0.42460  1.0000 0.1770656184
C   C134      1.0  0.40350  0.49260  0.33950  1.0000 -0.1817361973
C   C135      1.0  0.37800  0.54560  0.31420  1.0000 -0.1190737653
C   C136      1.0  0.37290  0.61240  0.36890  1.0000 0.057676592
C   C137      1.0  0.39470  0.62650  0.45360  1.0000 -0.1384821348
C   C138      1.0  0.42180  0.57470  0.48170  1.0000 -0.1922689241
C   C139      1.0  0.34600  0.66630  0.33590  1.0000 -0.0072863394
C   C140      1.0  0.26510  0.81260  0.35870  1.0000 0.34594641
C   C141      1.0  0.26130  0.87290  0.32840  1.0000 -0.2393713755
C   C142      1.0  0.21850  0.91670  0.35160  1.0000 -0.0072863394
C   C143      1.0  0.17870  0.90000  0.39910  1.0000 -0.2393713755
C   C144      1.0  0.18580  0.84070  0.42410  1.0000 0.2809982176
N   N1        1.0  0.55060  0.39500  0.17820  1.0000 -0.1125957559
N   N2        1.0  0.53130  0.46190  0.19560  1.0000 -0.1922689241
N   N3        1.0  0.67980  0.57030  0.27290  1.0000 -0.3346893452
N   N4        1.0  0.71680  0.37240  0.32180  1.0000 -0.1125957559
N   N5        1.0  0.76630  0.33570  0.30440  1.0000 -0.1922689241
N   N6        1.0  0.79740  0.40690  0.22710  1.0000 -0.3346893452
N   N7        1.0  0.94940  0.12760  0.84440  1.0000 -0.1125957559
N   N8        1.0  0.96870  0.16430  0.93060  1.0000 -0.1922689241
N   N9        1.0  0.82020  0.09310  0.89050  1.0000 -0.3355327211
N   N10       1.0  0.78320  0.10500  0.65560  1.0000 -0.1125957559
N   N11       1.0  0.73370  0.03810  0.56940  1.0000 -0.1922689241
N   N12       1.0  0.70260  0.92970  0.60950  1.0000 -0.3346893452
N   N13       1.0  0.10500  0.65560  0.78320  1.0000 -0.1125957559
N   N14       1.0  0.03810  0.56940  0.73370  1.0000 -0.1922689241
N   N15       1.0  0.92970  0.60950  0.70260  1.0000 -0.3346893452
N   N16       1.0  0.12760  0.84440  0.94940  1.0000 -0.1125957559
N   N17       1.0  0.16430  0.93060  0.96870  1.0000 -0.1922689241
N   N18       1.0  0.09310  0.89050  0.82020  1.0000 -0.3355327211
N   N19       1.0  0.37240  0.32180  0.71680  1.0000 -0.1125957559
N   N20       1.0  0.33570  0.30440  0.76630  1.0000 -0.1922689241
N   N21       1.0  0.40690  0.22710  0.79740  1.0000 -0.3355327211
N   N22       1.0  0.39500  0.17820  0.55060  1.0000 -0.1125957559
N   N23       1.0  0.46190  0.19560  0.53130  1.0000 -0.1922689241
N   N24       1.0  0.57030  0.27290  0.67980  1.0000 -0.3355327211
N   N25       1.0  0.84440  0.94940  0.12760  1.0000 -0.1125957559
N   N26       1.0  0.93060  0.96870  0.16430  1.0000 -0.1922689241
N   N27       1.0  0.89050  0.82020  0.09310  1.0000 -0.3355327211
N   N28       1.0  0.65560  0.78320  0.10500  1.0000 -0.1125957559
N   N29       1.0  0.56940  0.73370  0.03810  1.0000 -0.1922689241
N   N30       1.0  0.60950  0.70260  0.92970  1.0000 -0.3355327211
N   N31       1.0  0.17820  0.55060  0.39500  1.0000 -0.1125957559
N   N32       1.0  0.19560  0.53130  0.46190  1.0000 -0.1922689241
N   N33       1.0  0.27290  0.67980  0.57030  1.0000 -0.3355327211
N   N34       1.0  0.32180  0.71680  0.37240  1.0000 -0.1125957559
N   N35       1.0  0.30440  0.76630  0.33570  1.0000 -0.1922689241
N   N36       1.0  0.22710  0.79740  0.40690  1.0000 -0.3355327211
N   N37       1.0  0.50000  0.00000  0.04460  1.0000 -0.1648930721
N   N38       1.0  0.45540  0.45540  0.45540  1.0000 -0.1652404331
N   N39       1.0  0.00000  0.04460  0.50000  1.0000 -0.1648930721
N   N40       1.0  0.04460  0.50000  0.00000  1.0000 -0.1648930721
Cl  Cl1       1.0  0.84749  0.67851  0.35938  1.0000 -0.1125957559
Cl  Cl2       1.0  0.81913  0.48811  0.14062  1.0000 -0.1125957559
Cl  Cl3       1.0  0.65251  0.01189  0.83102  1.0000 -0.1190737653
Cl  Cl4       1.0  0.68087  0.82149  0.66898  1.0000 -0.1125957559
Cl  Cl5       1.0  0.82149  0.66898  0.68087  1.0000 -0.1125957559
Cl  Cl6       1.0  0.01189  0.83102  0.65251  1.0000 -0.1125957559
Cl  Cl7       1.0  0.48811  0.14062  0.81913  1.0000 -0.1125957559
Cl  Cl8       1.0  0.67851  0.35938  0.84749  1.0000 -0.1125957559
Cl  Cl9       1.0  0.83102  0.65251  0.01189  1.0000 -0.1190737653
Cl  Cl10      1.0  0.66898  0.68087  0.82149  1.0000 -0.1125957559
Cl  Cl11      1.0  0.35938  0.84749  0.67851  1.0000 -0.1190737653
Cl  Cl12      1.0  0.14062  0.81913  0.48811  1.0000 -0.1190737653
Cl  Cl13      1.0  0.18804  0.43804  0.75000  1.0000 1.2660985825
Cl  Cl14      1.0  0.31196  0.06196  0.25000  1.0000 1.2660985825
Cl  Cl15      1.0  0.25000  0.31196  0.06196  1.0000 1.2660985825
Cl  Cl16      1.0  0.75000  0.18804  0.43804  1.0000 1.2660985825
Cl  Cl17      1.0  0.06196  0.25000  0.31196  1.0000 1.2660985825
Cl  Cl18      1.0  0.43804  0.75000  0.18804  1.0000 1.2660985825
O   O1        1.0  0.24990  0.52560  0.82350  1.0000 -0.5059689395
O   O2        1.0  0.20080  0.37690  0.77510  1.0000 -0.496783074
O   O3        1.0  0.20210  0.42640  0.67650  1.0000 -0.5059689395
O   O4        1.0  0.10180  0.42570  0.72490  1.0000 -0.496783074
O   O5        1.0  0.25010  0.07360  0.27570  1.0000 -0.5059689395
O   O6        1.0  0.29920  0.07430  0.17610  1.0000 -0.496783074
O   O7        1.0  0.29790  0.97440  0.22430  1.0000 -0.5059689395
O   O8        1.0  0.39820  0.12310  0.32390  1.0000 -0.496783074
O   O9        1.0  0.27570  0.25010  0.07360  1.0000 -0.5059689395
O   O10       1.0  0.17610  0.29920  0.07430  1.0000 -0.496783074
O   O11       1.0  0.22430  0.29790  0.97440  1.0000 -0.5059689395
O   O12       1.0  0.32390  0.39820  0.12310  1.0000 -0.496783074
O   O13       1.0  0.82350  0.24990  0.52560  1.0000 -0.5059689395
O   O14       1.0  0.77510  0.20080  0.37690  1.0000 -0.496783074
O   O15       1.0  0.67650  0.20210  0.42640  1.0000 -0.5059689395
O   O16       1.0  0.72490  0.10180  0.42570  1.0000 -0.496783074
O   O17       1.0  0.97440  0.22430  0.29790  1.0000 -0.5059689395
O   O18       1.0  0.12310  0.32390  0.39820  1.0000 -0.496783074
O   O19       1.0  0.07360  0.27570  0.25010  1.0000 -0.5059689395
O   O20       1.0  0.07430  0.17610  0.29920  1.0000 -0.496783074
O   O21       1.0  0.42640  0.67650  0.20210  1.0000 -0.5059689395
O   O22       1.0  0.42570  0.72490  0.10180  1.0000 -0.496783074
O   O23       1.0  0.52560  0.82350  0.24990  1.0000 -0.5059689395
O   O24       1.0  0.37690  0.77510  0.20080  1.0000 -0.496783074
