# DDEC6 charges by PACMAN v1.1 (https://github.com/mtap-research/PACMAN-charge/)
data_2017[Ag][srs]3[ION]30
_chemical_formula_sum              "Ag12 H240 C288 N80 Cl12 O48"
_cell_length_a       21.2904
_cell_length_b       21.2904
_cell_length_c       21.2904
_cell_angle_alpha    90
_cell_angle_beta     90
_cell_angle_gamma    90

_symmetry_space_group_name_H-M    "P 1"
_symmetry_Int_Tables_number       1

loop_
  _symmetry_equiv_pos_as_xyz
  'x, y, z'

loop_
  _atom_site_type_symbol
  _atom_site_label
  _atom_site_symmetry_multiplicity
  _atom_site_fract_x
  _atom_site_fract_y
  _atom_site_fract_z
  _atom_site_occupancy
  _atom_site_charge
Ag  Ag1       1.0  0.75000  0.04184  0.00000  1.0000 0.2723366511
Ag  Ag2       1.0  0.75000  0.95816  0.50000  1.0000 0.2723366511
Ag  Ag3       1.0  0.25000  0.54184  0.50000  1.0000 0.2723366511
Ag  Ag4       1.0  0.25000  0.45816  0.00000  1.0000 0.2723366511
Ag  Ag5       1.0  0.00000  0.75000  0.04184  1.0000 0.2723366511
Ag  Ag6       1.0  0.50000  0.75000  0.95816  1.0000 0.2723366511
Ag  Ag7       1.0  0.50000  0.25000  0.54184  1.0000 0.2723366511
Ag  Ag8       1.0  0.00000  0.25000  0.45816  1.0000 0.2723366511
Ag  Ag9       1.0  0.04184  0.00000  0.75000  1.0000 0.2723366511
Ag  Ag10      1.0  0.95816  0.50000  0.75000  1.0000 0.2723366511
Ag  Ag11      1.0  0.54184  0.50000  0.25000  1.0000 0.2723366511
Ag  Ag12      1.0  0.45816  0.00000  0.25000  1.0000 0.2723366511
H   H1        1.0  0.73880  0.15830  0.80710  1.0000 0.1229910694
H   H2        1.0  0.78510  0.11660  0.89570  1.0000 0.1007801327
H   H3        1.0  0.82270  0.28960  0.95930  1.0000 0.1229910694
H   H4        1.0  0.77200  0.33210  0.87510  1.0000 0.1229910694
H   H5        1.0  0.86430  0.20160  0.01680  1.0000 0.1089682534
H   H6        1.0  0.93680  0.05220  0.14990  1.0000 0.1536350541
H   H7        1.0  0.91770  0.96170  0.20430  1.0000 0.1089682534
H   H8        1.0  0.82330  0.90310  0.18350  1.0000 0.1229910694
H   H9        1.0  0.76070  0.93660  0.10340  1.0000 0.1007801327
H   H10       1.0  0.89850  0.12580  0.07630  1.0000 0.2797552787
H   H11       1.0  0.23880  0.65830  0.30710  1.0000 0.1229910694
H   H12       1.0  0.28510  0.61660  0.39570  1.0000 0.1007801327
H   H13       1.0  0.32270  0.78960  0.45930  1.0000 0.1229910694
H   H14       1.0  0.27200  0.83210  0.37510  1.0000 0.1229910694
H   H15       1.0  0.36430  0.70160  0.51680  1.0000 0.1089682534
H   H16       1.0  0.43680  0.55220  0.64990  1.0000 0.1536350541
H   H17       1.0  0.41770  0.46170  0.70430  1.0000 0.1089682534
H   H18       1.0  0.32330  0.40310  0.68350  1.0000 0.1229910694
H   H19       1.0  0.26070  0.43660  0.60340  1.0000 0.1007801327
H   H20       1.0  0.39850  0.62580  0.57630  1.0000 0.2797552787
H   H21       1.0  0.76120  0.84170  0.30710  1.0000 0.1229910694
H   H22       1.0  0.71490  0.88340  0.39570  1.0000 0.1007801327
H   H23       1.0  0.67730  0.71040  0.45930  1.0000 0.1229910694
H   H24       1.0  0.72800  0.66790  0.37510  1.0000 0.1229910694
H   H25       1.0  0.63570  0.79840  0.51680  1.0000 0.1089682534
H   H26       1.0  0.56320  0.94780  0.64990  1.0000 0.1536350541
H   H27       1.0  0.58230  0.03830  0.70430  1.0000 0.1089682534
H   H28       1.0  0.67670  0.09690  0.68350  1.0000 0.1229910694
H   H29       1.0  0.73930  0.06340  0.60340  1.0000 0.1007801327
H   H30       1.0  0.60150  0.87420  0.57630  1.0000 0.2797552787
H   H31       1.0  0.26120  0.34170  0.80710  1.0000 0.1229910694
H   H32       1.0  0.21490  0.38340  0.89570  1.0000 0.1007801327
H   H33       1.0  0.17730  0.21040  0.95930  1.0000 0.1229910694
H   H34       1.0  0.22800  0.16790  0.87510  1.0000 0.1229910694
H   H35       1.0  0.13570  0.29840  0.01680  1.0000 0.1089682534
H   H36       1.0  0.06320  0.44780  0.14990  1.0000 0.1536350541
H   H37       1.0  0.08230  0.53830  0.20430  1.0000 0.1089682534
H   H38       1.0  0.17670  0.59690  0.18350  1.0000 0.1229910694
H   H39       1.0  0.23930  0.56340  0.10340  1.0000 0.1007801327
H   H40       1.0  0.10150  0.37420  0.07630  1.0000 0.2797552787
H   H41       1.0  0.26120  0.65830  0.69290  1.0000 0.1229910694
H   H42       1.0  0.21490  0.61660  0.60430  1.0000 0.1007801327
H   H43       1.0  0.17730  0.78960  0.54070  1.0000 0.1229910694
H   H44       1.0  0.22800  0.83210  0.62490  1.0000 0.1229910694
H   H45       1.0  0.13570  0.70160  0.48320  1.0000 0.1089682534
H   H46       1.0  0.06320  0.55220  0.35010  1.0000 0.1536350541
H   H47       1.0  0.08230  0.46170  0.29570  1.0000 0.1089682534
H   H48       1.0  0.17670  0.40310  0.31650  1.0000 0.1229910694
H   H49       1.0  0.23930  0.43660  0.39660  1.0000 0.1007801327
H   H50       1.0  0.10150  0.62580  0.42370  1.0000 0.2797552787
H   H51       1.0  0.76120  0.15830  0.19290  1.0000 0.1229910694
H   H52       1.0  0.71490  0.11660  0.10430  1.0000 0.1007801327
H   H53       1.0  0.67730  0.28960  0.04070  1.0000 0.1229910694
H   H54       1.0  0.72800  0.33210  0.12490  1.0000 0.1229910694
H   H55       1.0  0.63570  0.20160  0.98320  1.0000 0.1089682534
H   H56       1.0  0.56320  0.05220  0.85010  1.0000 0.1536350541
H   H57       1.0  0.58230  0.96170  0.79570  1.0000 0.1089682534
H   H58       1.0  0.67670  0.90310  0.81650  1.0000 0.1229910694
H   H59       1.0  0.73930  0.93660  0.89660  1.0000 0.1007801327
H   H60       1.0  0.60150  0.12580  0.92370  1.0000 0.2797552787
H   H61       1.0  0.23880  0.34170  0.19290  1.0000 0.1229910694
H   H62       1.0  0.28510  0.38340  0.10430  1.0000 0.1007801327
H   H63       1.0  0.32270  0.21040  0.04070  1.0000 0.1229910694
H   H64       1.0  0.27200  0.16790  0.12490  1.0000 0.1229910694
H   H65       1.0  0.36430  0.29840  0.98320  1.0000 0.1089682534
H   H66       1.0  0.43680  0.44780  0.85010  1.0000 0.1536350541
H   H67       1.0  0.41770  0.53830  0.79570  1.0000 0.1089682534
H   H68       1.0  0.32330  0.59690  0.81650  1.0000 0.1229910694
H   H69       1.0  0.26070  0.56340  0.89660  1.0000 0.1007801327
H   H70       1.0  0.39850  0.37420  0.92370  1.0000 0.2797552787
H   H71       1.0  0.73880  0.84170  0.69290  1.0000 0.1229910694
H   H72       1.0  0.78510  0.88340  0.60430  1.0000 0.1007801327
H   H73       1.0  0.82270  0.71040  0.54070  1.0000 0.1229910694
H   H74       1.0  0.77200  0.66790  0.62490  1.0000 0.1229910694
H   H75       1.0  0.86430  0.79840  0.48320  1.0000 0.1089682534
H   H76       1.0  0.93680  0.94780  0.35010  1.0000 0.1536350541
H   H77       1.0  0.91770  0.03830  0.29570  1.0000 0.1089682534
H   H78       1.0  0.82330  0.09690  0.31650  1.0000 0.1229910694
H   H79       1.0  0.76070  0.06340  0.39660  1.0000 0.1007801327
H   H80       1.0  0.89850  0.87420  0.42370  1.0000 0.2797552787
H   H81       1.0  0.80710  0.73880  0.15830  1.0000 0.1229910694
H   H82       1.0  0.89570  0.78510  0.11660  1.0000 0.1007801327
H   H83       1.0  0.95930  0.82270  0.28960  1.0000 0.1229910694
H   H84       1.0  0.87510  0.77200  0.33210  1.0000 0.1229910694
H   H85       1.0  0.01680  0.86430  0.20160  1.0000 0.1089682534
H   H86       1.0  0.14990  0.93680  0.05220  1.0000 0.1536350541
H   H87       1.0  0.20430  0.91770  0.96170  1.0000 0.1089682534
H   H88       1.0  0.18350  0.82330  0.90310  1.0000 0.1229910694
H   H89       1.0  0.10340  0.76070  0.93660  1.0000 0.1007801327
H   H90       1.0  0.07630  0.89850  0.12580  1.0000 0.2797552787
H   H91       1.0  0.30710  0.23880  0.65830  1.0000 0.1229910694
H   H92       1.0  0.39570  0.28510  0.61660  1.0000 0.1007801327
H   H93       1.0  0.45930  0.32270  0.78960  1.0000 0.1229910694
H   H94       1.0  0.37510  0.27200  0.83210  1.0000 0.1229910694
H   H95       1.0  0.51680  0.36430  0.70160  1.0000 0.1089682534
H   H96       1.0  0.64990  0.43680  0.55220  1.0000 0.1536350541
H   H97       1.0  0.70430  0.41770  0.46170  1.0000 0.1089682534
H   H98       1.0  0.68350  0.32330  0.40310  1.0000 0.1229910694
H   H99       1.0  0.60340  0.26070  0.43660  1.0000 0.1007801327
H   H100      1.0  0.57630  0.39850  0.62580  1.0000 0.2797552787
H   H101      1.0  0.30710  0.76120  0.84170  1.0000 0.1229910694
H   H102      1.0  0.39570  0.71490  0.88340  1.0000 0.1007801327
H   H103      1.0  0.45930  0.67730  0.71040  1.0000 0.1229910694
H   H104      1.0  0.37510  0.72800  0.66790  1.0000 0.1229910694
H   H105      1.0  0.51680  0.63570  0.79840  1.0000 0.1089682534
H   H106      1.0  0.64990  0.56320  0.94780  1.0000 0.1536350541
H   H107      1.0  0.70430  0.58230  0.03830  1.0000 0.1089682534
H   H108      1.0  0.68350  0.67670  0.09690  1.0000 0.1229910694
H   H109      1.0  0.60340  0.73930  0.06340  1.0000 0.1007801327
H   H110      1.0  0.57630  0.60150  0.87420  1.0000 0.2797552787
H   H111      1.0  0.80710  0.26120  0.34170  1.0000 0.1229910694
H   H112      1.0  0.89570  0.21490  0.38340  1.0000 0.1007801327
H   H113      1.0  0.95930  0.17730  0.21040  1.0000 0.1229910694
H   H114      1.0  0.87510  0.22800  0.16790  1.0000 0.1229910694
H   H115      1.0  0.01680  0.13570  0.29840  1.0000 0.1089682534
H   H116      1.0  0.14990  0.06320  0.44780  1.0000 0.1536350541
H   H117      1.0  0.20430  0.08230  0.53830  1.0000 0.1089682534
H   H118      1.0  0.18350  0.17670  0.59690  1.0000 0.1229910694
H   H119      1.0  0.10340  0.23930  0.56340  1.0000 0.1007801327
H   H120      1.0  0.07630  0.10150  0.37420  1.0000 0.2797552787
H   H121      1.0  0.69290  0.26120  0.65830  1.0000 0.1229910694
H   H122      1.0  0.60430  0.21490  0.61660  1.0000 0.1007801327
H   H123      1.0  0.54070  0.17730  0.78960  1.0000 0.1229910694
H   H124      1.0  0.62490  0.22800  0.83210  1.0000 0.1229910694
H   H125      1.0  0.48320  0.13570  0.70160  1.0000 0.1089682534
H   H126      1.0  0.35010  0.06320  0.55220  1.0000 0.1536350541
H   H127      1.0  0.29570  0.08230  0.46170  1.0000 0.1089682534
H   H128      1.0  0.31650  0.17670  0.40310  1.0000 0.1229910694
H   H129      1.0  0.39660  0.23930  0.43660  1.0000 0.1007801327
H   H130      1.0  0.42370  0.10150  0.62580  1.0000 0.2797552787
H   H131      1.0  0.19290  0.76120  0.15830  1.0000 0.1229910694
H   H132      1.0  0.10430  0.71490  0.11660  1.0000 0.1007801327
H   H133      1.0  0.04070  0.67730  0.28960  1.0000 0.1229910694
H   H134      1.0  0.12490  0.72800  0.33210  1.0000 0.1229910694
H   H135      1.0  0.98320  0.63570  0.20160  1.0000 0.1089682534
H   H136      1.0  0.85010  0.56320  0.05220  1.0000 0.1536350541
H   H137      1.0  0.79570  0.58230  0.96170  1.0000 0.1089682534
H   H138      1.0  0.81650  0.67670  0.90310  1.0000 0.1229910694
H   H139      1.0  0.89660  0.73930  0.93660  1.0000 0.1007801327
H   H140      1.0  0.92370  0.60150  0.12580  1.0000 0.2797552787
H   H141      1.0  0.19290  0.23880  0.34170  1.0000 0.1229910694
H   H142      1.0  0.10430  0.28510  0.38340  1.0000 0.1007801327
H   H143      1.0  0.04070  0.32270  0.21040  1.0000 0.1229910694
H   H144      1.0  0.12490  0.27200  0.16790  1.0000 0.1229910694
H   H145      1.0  0.98320  0.36430  0.29840  1.0000 0.1089682534
H   H146      1.0  0.85010  0.43680  0.44780  1.0000 0.1536350541
H   H147      1.0  0.79570  0.41770  0.53830  1.0000 0.1089682534
H   H148      1.0  0.81650  0.32330  0.59690  1.0000 0.1229910694
H   H149      1.0  0.89660  0.26070  0.56340  1.0000 0.1007801327
H   H150      1.0  0.92370  0.39850  0.37420  1.0000 0.2797552787
H   H151      1.0  0.69290  0.73880  0.84170  1.0000 0.1229910694
H   H152      1.0  0.60430  0.78510  0.88340  1.0000 0.1007801327
H   H153      1.0  0.54070  0.82270  0.71040  1.0000 0.1229910694
H   H154      1.0  0.62490  0.77200  0.66790  1.0000 0.1229910694
H   H155      1.0  0.48320  0.86430  0.79840  1.0000 0.1089682534
H   H156      1.0  0.35010  0.93680  0.94780  1.0000 0.1536350541
H   H157      1.0  0.29570  0.91770  0.03830  1.0000 0.1089682534
H   H158      1.0  0.31650  0.82330  0.09690  1.0000 0.1229910694
H   H159      1.0  0.39660  0.76070  0.06340  1.0000 0.1007801327
H   H160      1.0  0.42370  0.89850  0.87420  1.0000 0.2797552787
H   H161      1.0  0.15830  0.80710  0.73880  1.0000 0.1229910694
H   H162      1.0  0.11660  0.89570  0.78510  1.0000 0.1007801327
H   H163      1.0  0.28960  0.95930  0.82270  1.0000 0.1229910694
H   H164      1.0  0.33210  0.87510  0.77200  1.0000 0.1229910694
H   H165      1.0  0.20160  0.01680  0.86430  1.0000 0.1089682534
H   H166      1.0  0.05220  0.14990  0.93680  1.0000 0.1536350541
H   H167      1.0  0.96170  0.20430  0.91770  1.0000 0.1089682534
H   H168      1.0  0.90310  0.18350  0.82330  1.0000 0.1229910694
H   H169      1.0  0.93660  0.10340  0.76070  1.0000 0.1007801327
H   H170      1.0  0.12580  0.07630  0.89850  1.0000 0.2797552787
H   H171      1.0  0.65830  0.30710  0.23880  1.0000 0.1229910694
H   H172      1.0  0.61660  0.39570  0.28510  1.0000 0.1007801327
H   H173      1.0  0.78960  0.45930  0.32270  1.0000 0.1229910694
H   H174      1.0  0.83210  0.37510  0.27200  1.0000 0.1229910694
H   H175      1.0  0.70160  0.51680  0.36430  1.0000 0.1089682534
H   H176      1.0  0.55220  0.64990  0.43680  1.0000 0.1536350541
H   H177      1.0  0.46170  0.70430  0.41770  1.0000 0.1089682534
H   H178      1.0  0.40310  0.68350  0.32330  1.0000 0.1229910694
H   H179      1.0  0.43660  0.60340  0.26070  1.0000 0.1007801327
H   H180      1.0  0.62580  0.57630  0.39850  1.0000 0.2797552787
H   H181      1.0  0.84170  0.30710  0.76120  1.0000 0.1229910694
H   H182      1.0  0.88340  0.39570  0.71490  1.0000 0.1007801327
H   H183      1.0  0.71040  0.45930  0.67730  1.0000 0.1229910694
H   H184      1.0  0.66790  0.37510  0.72800  1.0000 0.1229910694
H   H185      1.0  0.79840  0.51680  0.63570  1.0000 0.1089682534
H   H186      1.0  0.94780  0.64990  0.56320  1.0000 0.1536350541
H   H187      1.0  0.03830  0.70430  0.58230  1.0000 0.1089682534
H   H188      1.0  0.09690  0.68350  0.67670  1.0000 0.1229910694
H   H189      1.0  0.06340  0.60340  0.73930  1.0000 0.1007801327
H   H190      1.0  0.87420  0.57630  0.60150  1.0000 0.2797552787
H   H191      1.0  0.34170  0.80710  0.26120  1.0000 0.1229910694
H   H192      1.0  0.38340  0.89570  0.21490  1.0000 0.1007801327
H   H193      1.0  0.21040  0.95930  0.17730  1.0000 0.1229910694
H   H194      1.0  0.16790  0.87510  0.22800  1.0000 0.1229910694
H   H195      1.0  0.29840  0.01680  0.13570  1.0000 0.1089682534
H   H196      1.0  0.44780  0.14990  0.06320  1.0000 0.1536350541
H   H197      1.0  0.53830  0.20430  0.08230  1.0000 0.1089682534
H   H198      1.0  0.59690  0.18350  0.17670  1.0000 0.1229910694
H   H199      1.0  0.56340  0.10340  0.23930  1.0000 0.1007801327
H   H200      1.0  0.37420  0.07630  0.10150  1.0000 0.2797552787
H   H201      1.0  0.65830  0.69290  0.26120  1.0000 0.1229910694
H   H202      1.0  0.61660  0.60430  0.21490  1.0000 0.1007801327
H   H203      1.0  0.78960  0.54070  0.17730  1.0000 0.1229910694
H   H204      1.0  0.83210  0.62490  0.22800  1.0000 0.1229910694
H   H205      1.0  0.70160  0.48320  0.13570  1.0000 0.1089682534
H   H206      1.0  0.55220  0.35010  0.06320  1.0000 0.1536350541
H   H207      1.0  0.46170  0.29570  0.08230  1.0000 0.1089682534
H   H208      1.0  0.40310  0.31650  0.17670  1.0000 0.1229910694
H   H209      1.0  0.43660  0.39660  0.23930  1.0000 0.1007801327
H   H210      1.0  0.62580  0.42370  0.10150  1.0000 0.2797552787
H   H211      1.0  0.15830  0.19290  0.76120  1.0000 0.1229910694
H   H212      1.0  0.11660  0.10430  0.71490  1.0000 0.1007801327
H   H213      1.0  0.28960  0.04070  0.67730  1.0000 0.1229910694
H   H214      1.0  0.33210  0.12490  0.72800  1.0000 0.1229910694
H   H215      1.0  0.20160  0.98320  0.63570  1.0000 0.1089682534
H   H216      1.0  0.05220  0.85010  0.56320  1.0000 0.1536350541
H   H217      1.0  0.96170  0.79570  0.58230  1.0000 0.1089682534
H   H218      1.0  0.90310  0.81650  0.67670  1.0000 0.1229910694
H   H219      1.0  0.93660  0.89660  0.73930  1.0000 0.1007801327
H   H220      1.0  0.12580  0.92370  0.60150  1.0000 0.2797552787
H   H221      1.0  0.34170  0.19290  0.23880  1.0000 0.1229910694
H   H222      1.0  0.38340  0.10430  0.28510  1.0000 0.1007801327
H   H223      1.0  0.21040  0.04070  0.32270  1.0000 0.1229910694
H   H224      1.0  0.16790  0.12490  0.27200  1.0000 0.1229910694
H   H225      1.0  0.29840  0.98320  0.36430  1.0000 0.1089682534
H   H226      1.0  0.44780  0.85010  0.43680  1.0000 0.1536350541
H   H227      1.0  0.53830  0.79570  0.41770  1.0000 0.1089682534
H   H228      1.0  0.59690  0.81650  0.32330  1.0000 0.1229910694
H   H229      1.0  0.56340  0.89660  0.26070  1.0000 0.1007801327
H   H230      1.0  0.37420  0.92370  0.39850  1.0000 0.2797552787
H   H231      1.0  0.84170  0.69290  0.73880  1.0000 0.1229910694
H   H232      1.0  0.88340  0.60430  0.78510  1.0000 0.1007801327
H   H233      1.0  0.71040  0.54070  0.82270  1.0000 0.1229910694
H   H234      1.0  0.66790  0.62490  0.77200  1.0000 0.1229910694
H   H235      1.0  0.79840  0.48320  0.86430  1.0000 0.1089682534
H   H236      1.0  0.94780  0.35010  0.93680  1.0000 0.1536350541
H   H237      1.0  0.03830  0.29570  0.91770  1.0000 0.1089682534
H   H238      1.0  0.09690  0.31650  0.82330  1.0000 0.1229910694
H   H239      1.0  0.06340  0.39660  0.76070  1.0000 0.1007801327
H   H240      1.0  0.87420  0.42370  0.89850  1.0000 0.2797552787
C   C1        1.0  0.75130  0.25090  0.83010  1.0000 0.1828617719
C   C2        1.0  0.75530  0.18520  0.83800  1.0000 -0.2066109933
C   C3        1.0  0.78330  0.16050  0.89090  1.0000 -0.1392203366
C   C4        1.0  0.80850  0.19790  0.93660  1.0000 0.0528868392
C   C5        1.0  0.80480  0.26300  0.92890  1.0000 -0.1232522189
C   C6        1.0  0.77570  0.28820  0.87810  1.0000 -0.1868731859
C   C7        1.0  0.83940  0.17390  0.99310  1.0000 -0.0191641346
C   C8        1.0  0.85840  0.04730  0.09370  1.0000 0.3352393351
C   C9        1.0  0.90080  0.02810  0.14110  1.0000 -0.2240840428
C   C10       1.0  0.88930  0.97530  0.17330  1.0000 -0.0191641346
C   C11       1.0  0.83340  0.93940  0.16040  1.0000 -0.2008523877
C   C12       1.0  0.79650  0.96030  0.11380  1.0000 0.0565804585
C   C13       1.0  0.25130  0.75090  0.33010  1.0000 0.1828617719
C   C14       1.0  0.25530  0.68520  0.33800  1.0000 -0.2066109933
C   C15       1.0  0.28330  0.66050  0.39090  1.0000 -0.1392203366
C   C16       1.0  0.30850  0.69790  0.43660  1.0000 0.0528868392
C   C17       1.0  0.30480  0.76300  0.42890  1.0000 -0.1232522189
C   C18       1.0  0.27570  0.78820  0.37810  1.0000 -0.1868731859
C   C19       1.0  0.33940  0.67390  0.49310  1.0000 -0.0191641346
C   C20       1.0  0.35840  0.54730  0.59370  1.0000 0.3352393351
C   C21       1.0  0.40080  0.52810  0.64110  1.0000 -0.2240840428
C   C22       1.0  0.38930  0.47530  0.67330  1.0000 -0.0191641346
C   C23       1.0  0.33340  0.43940  0.66040  1.0000 -0.2008523877
C   C24       1.0  0.29650  0.46030  0.61380  1.0000 0.0565804585
C   C25       1.0  0.74870  0.74910  0.33010  1.0000 0.1828617719
C   C26       1.0  0.74470  0.81480  0.33800  1.0000 -0.2066109933
C   C27       1.0  0.71670  0.83950  0.39090  1.0000 -0.1392203366
C   C28       1.0  0.69150  0.80210  0.43660  1.0000 0.0528868392
C   C29       1.0  0.69520  0.73700  0.42890  1.0000 -0.1232522189
C   C30       1.0  0.72430  0.71180  0.37810  1.0000 -0.1868731859
C   C31       1.0  0.66060  0.82610  0.49310  1.0000 -0.0191641346
C   C32       1.0  0.64160  0.95270  0.59370  1.0000 0.3352393351
C   C33       1.0  0.59920  0.97190  0.64110  1.0000 -0.2240840428
C   C34       1.0  0.61070  0.02470  0.67330  1.0000 -0.0191641346
C   C35       1.0  0.66667  0.06060  0.66040  1.0000 -0.2008523877
C   C36       1.0  0.70350  0.03970  0.61380  1.0000 0.0565804585
C   C37       1.0  0.24870  0.24910  0.83010  1.0000 0.1828617719
C   C38       1.0  0.24470  0.31480  0.83800  1.0000 -0.2066109933
C   C39       1.0  0.21670  0.33950  0.89090  1.0000 -0.1392203366
C   C40       1.0  0.19150  0.30210  0.93660  1.0000 0.0528868392
C   C41       1.0  0.19520  0.23700  0.92890  1.0000 -0.1232522189
C   C42       1.0  0.22430  0.21180  0.87810  1.0000 -0.1868731859
C   C43       1.0  0.16060  0.32610  0.99310  1.0000 -0.0191641346
C   C44       1.0  0.14160  0.45270  0.09370  1.0000 0.3352393351
C   C45       1.0  0.09920  0.47190  0.14110  1.0000 -0.2240840428
C   C46       1.0  0.11070  0.52470  0.17330  1.0000 -0.0191641346
C   C47       1.0  0.16660  0.56060  0.16040  1.0000 -0.2008523877
C   C48       1.0  0.20350  0.53970  0.11380  1.0000 0.0565804585
C   C49       1.0  0.24870  0.75090  0.66990  1.0000 0.1828617719
C   C50       1.0  0.24470  0.68520  0.66200  1.0000 -0.2066109933
C   C51       1.0  0.21670  0.66050  0.60910  1.0000 -0.1392203366
C   C52       1.0  0.19150  0.69790  0.56340  1.0000 0.0528868392
C   C53       1.0  0.19520  0.76300  0.57110  1.0000 -0.1232522189
C   C54       1.0  0.22430  0.78820  0.62190  1.0000 -0.1868731859
C   C55       1.0  0.16060  0.67390  0.50690  1.0000 -0.0191641346
C   C56       1.0  0.14160  0.54730  0.40630  1.0000 0.3352393351
C   C57       1.0  0.09920  0.52810  0.35890  1.0000 -0.2240840428
C   C58       1.0  0.11070  0.47530  0.32670  1.0000 -0.0191641346
C   C59       1.0  0.16660  0.43940  0.33960  1.0000 -0.2008523877
C   C60       1.0  0.20350  0.46030  0.38620  1.0000 0.0565804585
C   C61       1.0  0.74870  0.25090  0.16990  1.0000 0.1828617719
C   C62       1.0  0.74470  0.18520  0.16200  1.0000 -0.2066109933
C   C63       1.0  0.71670  0.16050  0.10910  1.0000 -0.1392203366
C   C64       1.0  0.69150  0.19790  0.06340  1.0000 0.0528868392
C   C65       1.0  0.69520  0.26300  0.07110  1.0000 -0.1232522189
C   C66       1.0  0.72430  0.28820  0.12190  1.0000 -0.1868731859
C   C67       1.0  0.66060  0.17390  0.00690  1.0000 -0.0191641346
C   C68       1.0  0.64160  0.04730  0.90630  1.0000 0.3352393351
C   C69       1.0  0.59920  0.02810  0.85890  1.0000 -0.2240840428
C   C70       1.0  0.61070  0.97530  0.82670  1.0000 -0.0191641346
C   C71       1.0  0.66667  0.93940  0.83960  1.0000 -0.2008523877
C   C72       1.0  0.70350  0.96030  0.88620  1.0000 0.0565804585
C   C73       1.0  0.25130  0.24910  0.16990  1.0000 0.1828617719
C   C74       1.0  0.25530  0.31480  0.16200  1.0000 -0.2066109933
C   C75       1.0  0.28330  0.33950  0.10910  1.0000 -0.1392203366
C   C76       1.0  0.30850  0.30210  0.06340  1.0000 0.0528868392
C   C77       1.0  0.30480  0.23700  0.07110  1.0000 -0.1232522189
C   C78       1.0  0.27570  0.21180  0.12190  1.0000 -0.1868731859
C   C79       1.0  0.33940  0.32610  0.00690  1.0000 -0.0191641346
C   C80       1.0  0.35840  0.45270  0.90630  1.0000 0.3352393351
C   C81       1.0  0.40080  0.47190  0.85890  1.0000 -0.2240840428
C   C82       1.0  0.38930  0.52470  0.82670  1.0000 -0.0191641346
C   C83       1.0  0.33340  0.56060  0.83960  1.0000 -0.2008523877
C   C84       1.0  0.29650  0.53970  0.88620  1.0000 0.0565804585
C   C85       1.0  0.75130  0.74910  0.66990  1.0000 0.1828617719
C   C86       1.0  0.75530  0.81480  0.66200  1.0000 -0.2066109933
C   C87       1.0  0.78330  0.83950  0.60910  1.0000 -0.1392203366
C   C88       1.0  0.80850  0.80210  0.56340  1.0000 0.0528868392
C   C89       1.0  0.80480  0.73700  0.57110  1.0000 -0.1232522189
C   C90       1.0  0.77570  0.71180  0.62190  1.0000 -0.1868731859
C   C91       1.0  0.83940  0.82610  0.50690  1.0000 -0.0191641346
C   C92       1.0  0.85840  0.95270  0.40630  1.0000 0.3352393351
C   C93       1.0  0.90080  0.97190  0.35890  1.0000 -0.2240840428
C   C94       1.0  0.88930  0.02470  0.32670  1.0000 -0.0191641346
C   C95       1.0  0.83340  0.06060  0.33960  1.0000 -0.2008523877
C   C96       1.0  0.79650  0.03970  0.38620  1.0000 0.0565804585
C   C97       1.0  0.83010  0.75130  0.25090  1.0000 0.1828617719
C   C98       1.0  0.83800  0.75530  0.18520  1.0000 -0.2066109933
C   C99       1.0  0.89090  0.78330  0.16050  1.0000 -0.1392203366
C   C100      1.0  0.93660  0.80850  0.19790  1.0000 0.0528868392
C   C101      1.0  0.92890  0.80480  0.26300  1.0000 -0.1232522189
C   C102      1.0  0.87810  0.77570  0.28820  1.0000 -0.1868731859
C   C103      1.0  0.99310  0.83940  0.17390  1.0000 -0.0191641346
C   C104      1.0  0.09370  0.85840  0.04730  1.0000 0.3352393351
C   C105      1.0  0.14110  0.90080  0.02810  1.0000 -0.2240840428
C   C106      1.0  0.17330  0.88930  0.97530  1.0000 -0.0191641346
C   C107      1.0  0.16040  0.83340  0.93940  1.0000 -0.2008523877
C   C108      1.0  0.11380  0.79650  0.96030  1.0000 0.0565804585
C   C109      1.0  0.33010  0.25130  0.75090  1.0000 0.1828617719
C   C110      1.0  0.33800  0.25530  0.68520  1.0000 -0.2066109933
C   C111      1.0  0.39090  0.28330  0.66050  1.0000 -0.1392203366
C   C112      1.0  0.43660  0.30850  0.69790  1.0000 0.0528868392
C   C113      1.0  0.42890  0.30480  0.76300  1.0000 -0.1232522189
C   C114      1.0  0.37810  0.27570  0.78820  1.0000 -0.1868731859
C   C115      1.0  0.49310  0.33940  0.67390  1.0000 -0.0191641346
C   C116      1.0  0.59370  0.35840  0.54730  1.0000 0.3352393351
C   C117      1.0  0.64110  0.40080  0.52810  1.0000 -0.2240840428
C   C118      1.0  0.67330  0.38930  0.47530  1.0000 -0.0191641346
C   C119      1.0  0.66040  0.33340  0.43940  1.0000 -0.2008523877
C   C120      1.0  0.61380  0.29650  0.46030  1.0000 0.0565804585
C   C121      1.0  0.33010  0.74870  0.74910  1.0000 0.1828617719
C   C122      1.0  0.33800  0.74470  0.81480  1.0000 -0.2066109933
C   C123      1.0  0.39090  0.71670  0.83950  1.0000 -0.1392203366
C   C124      1.0  0.43660  0.69150  0.80210  1.0000 0.0528868392
C   C125      1.0  0.42890  0.69520  0.73700  1.0000 -0.1232522189
C   C126      1.0  0.37810  0.72430  0.71180  1.0000 -0.1868731859
C   C127      1.0  0.49310  0.66060  0.82610  1.0000 -0.0191641346
C   C128      1.0  0.59370  0.64160  0.95270  1.0000 0.3352393351
C   C129      1.0  0.64110  0.59920  0.97190  1.0000 -0.2240840428
C   C130      1.0  0.67330  0.61070  0.02470  1.0000 -0.0191641346
C   C131      1.0  0.66040  0.66667  0.06060  1.0000 -0.2008523877
C   C132      1.0  0.61380  0.70350  0.03970  1.0000 0.0565804585
C   C133      1.0  0.83010  0.24870  0.24910  1.0000 0.1828617719
C   C134      1.0  0.83800  0.24470  0.31480  1.0000 -0.2066109933
C   C135      1.0  0.89090  0.21670  0.33950  1.0000 -0.1392203366
C   C136      1.0  0.93660  0.19150  0.30210  1.0000 0.0528868392
C   C137      1.0  0.92890  0.19520  0.23700  1.0000 -0.1232522189
C   C138      1.0  0.87810  0.22430  0.21180  1.0000 -0.1868731859
C   C139      1.0  0.99310  0.16060  0.32610  1.0000 -0.0191641346
C   C140      1.0  0.09370  0.14160  0.45270  1.0000 0.3352393351
C   C141      1.0  0.14110  0.09920  0.47190  1.0000 -0.2240840428
C   C142      1.0  0.17330  0.11070  0.52470  1.0000 -0.0191641346
C   C143      1.0  0.16040  0.16660  0.56060  1.0000 -0.2008523877
C   C144      1.0  0.11380  0.20350  0.53970  1.0000 0.0565804585
C   C145      1.0  0.66990  0.24870  0.75090  1.0000 0.1828617719
C   C146      1.0  0.66200  0.24470  0.68520  1.0000 -0.2066109933
C   C147      1.0  0.60910  0.21670  0.66050  1.0000 -0.1392203366
C   C148      1.0  0.56340  0.19150  0.69790  1.0000 0.0528868392
C   C149      1.0  0.57110  0.19520  0.76300  1.0000 -0.1232522189
C   C150      1.0  0.62190  0.22430  0.78820  1.0000 -0.1868731859
C   C151      1.0  0.50690  0.16060  0.67390  1.0000 -0.0191641346
C   C152      1.0  0.40630  0.14160  0.54730  1.0000 0.3352393351
C   C153      1.0  0.35890  0.09920  0.52810  1.0000 -0.2240840428
C   C154      1.0  0.32670  0.11070  0.47530  1.0000 -0.0191641346
C   C155      1.0  0.33960  0.16660  0.43940  1.0000 -0.2008523877
C   C156      1.0  0.38620  0.20350  0.46030  1.0000 0.0565804585
C   C157      1.0  0.16990  0.74870  0.25090  1.0000 0.1828617719
C   C158      1.0  0.16200  0.74470  0.18520  1.0000 -0.2066109933
C   C159      1.0  0.10910  0.71670  0.16050  1.0000 -0.1392203366
C   C160      1.0  0.06340  0.69150  0.19790  1.0000 0.0528868392
C   C161      1.0  0.07110  0.69520  0.26300  1.0000 -0.1232522189
C   C162      1.0  0.12190  0.72430  0.28820  1.0000 -0.1868731859
C   C163      1.0  0.00690  0.66060  0.17390  1.0000 -0.0191641346
C   C164      1.0  0.90630  0.64160  0.04730  1.0000 0.3352393351
C   C165      1.0  0.85890  0.59920  0.02810  1.0000 -0.2240840428
C   C166      1.0  0.82670  0.61070  0.97530  1.0000 -0.0191641346
C   C167      1.0  0.83960  0.66667  0.93940  1.0000 -0.2008523877
C   C168      1.0  0.88620  0.70350  0.96030  1.0000 0.0565804585
C   C169      1.0  0.16990  0.25130  0.24910  1.0000 0.1828617719
C   C170      1.0  0.16200  0.25530  0.31480  1.0000 -0.2066109933
C   C171      1.0  0.10910  0.28330  0.33950  1.0000 -0.1392203366
C   C172      1.0  0.06340  0.30850  0.30210  1.0000 0.0528868392
C   C173      1.0  0.07110  0.30480  0.23700  1.0000 -0.1232522189
C   C174      1.0  0.12190  0.27570  0.21180  1.0000 -0.1868731859
C   C175      1.0  0.00690  0.33940  0.32610  1.0000 -0.0191641346
C   C176      1.0  0.90630  0.35840  0.45270  1.0000 0.3352393351
C   C177      1.0  0.85890  0.40080  0.47190  1.0000 -0.2240840428
C   C178      1.0  0.82670  0.38930  0.52470  1.0000 -0.0191641346
C   C179      1.0  0.83960  0.33340  0.56060  1.0000 -0.2008523877
C   C180      1.0  0.88620  0.29650  0.53970  1.0000 0.0565804585
C   C181      1.0  0.66990  0.75130  0.74910  1.0000 0.1828617719
C   C182      1.0  0.66200  0.75530  0.81480  1.0000 -0.2066109933
C   C183      1.0  0.60910  0.78330  0.83950  1.0000 -0.1392203366
C   C184      1.0  0.56340  0.80850  0.80210  1.0000 0.0528868392
C   C185      1.0  0.57110  0.80480  0.73700  1.0000 -0.1232522189
C   C186      1.0  0.62190  0.77570  0.71180  1.0000 -0.1868731859
C   C187      1.0  0.50690  0.83940  0.82610  1.0000 -0.0191641346
C   C188      1.0  0.40630  0.85840  0.95270  1.0000 0.3352393351
C   C189      1.0  0.35890  0.90080  0.97190  1.0000 -0.2240840428
C   C190      1.0  0.32670  0.88930  0.02470  1.0000 -0.0191641346
C   C191      1.0  0.33960  0.83340  0.06060  1.0000 -0.2008523877
C   C192      1.0  0.38620  0.79650  0.03970  1.0000 0.0565804585
C   C193      1.0  0.25090  0.83010  0.75130  1.0000 0.1828617719
C   C194      1.0  0.18520  0.83800  0.75530  1.0000 -0.2066109933
C   C195      1.0  0.16050  0.89090  0.78330  1.0000 -0.1392203366
C   C196      1.0  0.19790  0.93660  0.80850  1.0000 0.0528868392
C   C197      1.0  0.26300  0.92890  0.80480  1.0000 -0.1232522189
C   C198      1.0  0.28820  0.87810  0.77570  1.0000 -0.1868731859
C   C199      1.0  0.17390  0.99310  0.83940  1.0000 -0.0191641346
C   C200      1.0  0.04730  0.09370  0.85840  1.0000 0.3352393351
C   C201      1.0  0.02810  0.14110  0.90080  1.0000 -0.2240840428
C   C202      1.0  0.97530  0.17330  0.88930  1.0000 -0.0191641346
C   C203      1.0  0.93940  0.16040  0.83340  1.0000 -0.2008523877
C   C204      1.0  0.96030  0.11380  0.79650  1.0000 0.0565804585
C   C205      1.0  0.75090  0.33010  0.25130  1.0000 0.1828617719
C   C206      1.0  0.68520  0.33800  0.25530  1.0000 -0.2066109933
C   C207      1.0  0.66050  0.39090  0.28330  1.0000 -0.1392203366
C   C208      1.0  0.69790  0.43660  0.30850  1.0000 0.0528868392
C   C209      1.0  0.76300  0.42890  0.30480  1.0000 -0.1232522189
C   C210      1.0  0.78820  0.37810  0.27570  1.0000 -0.1868731859
C   C211      1.0  0.67390  0.49310  0.33940  1.0000 -0.0191641346
C   C212      1.0  0.54730  0.59370  0.35840  1.0000 0.3352393351
C   C213      1.0  0.52810  0.64110  0.40080  1.0000 -0.2240840428
C   C214      1.0  0.47530  0.67330  0.38930  1.0000 -0.0191641346
C   C215      1.0  0.43940  0.66040  0.33340  1.0000 -0.2008523877
C   C216      1.0  0.46030  0.61380  0.29650  1.0000 0.0565804585
C   C217      1.0  0.74910  0.33010  0.74870  1.0000 0.1828617719
C   C218      1.0  0.81480  0.33800  0.74470  1.0000 -0.2066109933
C   C219      1.0  0.83950  0.39090  0.71670  1.0000 -0.1392203366
C   C220      1.0  0.80210  0.43660  0.69150  1.0000 0.0528868392
C   C221      1.0  0.73700  0.42890  0.69520  1.0000 -0.1232522189
C   C222      1.0  0.71180  0.37810  0.72430  1.0000 -0.1868731859
C   C223      1.0  0.82610  0.49310  0.66060  1.0000 -0.0191641346
C   C224      1.0  0.95270  0.59370  0.64160  1.0000 0.3352393351
C   C225      1.0  0.97190  0.64110  0.59920  1.0000 -0.2240840428
C   C226      1.0  0.02470  0.67330  0.61070  1.0000 -0.0191641346
C   C227      1.0  0.06060  0.66040  0.66667  1.0000 -0.2008523877
C   C228      1.0  0.03970  0.61380  0.70350  1.0000 0.0565804585
C   C229      1.0  0.24910  0.83010  0.24870  1.0000 0.1828617719
C   C230      1.0  0.31480  0.83800  0.24470  1.0000 -0.2066109933
C   C231      1.0  0.33950  0.89090  0.21670  1.0000 -0.1392203366
C   C232      1.0  0.30210  0.93660  0.19150  1.0000 0.0528868392
C   C233      1.0  0.23700  0.92890  0.19520  1.0000 -0.1232522189
C   C234      1.0  0.21180  0.87810  0.22430  1.0000 -0.1868731859
C   C235      1.0  0.32610  0.99310  0.16060  1.0000 -0.0191641346
C   C236      1.0  0.45270  0.09370  0.14160  1.0000 0.3352393351
C   C237      1.0  0.47190  0.14110  0.09920  1.0000 -0.2240840428
C   C238      1.0  0.52470  0.17330  0.11070  1.0000 -0.0191641346
C   C239      1.0  0.56060  0.16040  0.16660  1.0000 -0.2008523877
C   C240      1.0  0.53970  0.11380  0.20350  1.0000 0.0565804585
C   C241      1.0  0.75090  0.66990  0.24870  1.0000 0.1828617719
C   C242      1.0  0.68520  0.66200  0.24470  1.0000 -0.2066109933
C   C243      1.0  0.66050  0.60910  0.21670  1.0000 -0.1392203366
C   C244      1.0  0.69790  0.56340  0.19150  1.0000 0.0528868392
C   C245      1.0  0.76300  0.57110  0.19520  1.0000 -0.1232522189
C   C246      1.0  0.78820  0.62190  0.22430  1.0000 -0.1868731859
C   C247      1.0  0.67390  0.50690  0.16060  1.0000 -0.0191641346
C   C248      1.0  0.54730  0.40630  0.14160  1.0000 0.3352393351
C   C249      1.0  0.52810  0.35890  0.09920  1.0000 -0.2240840428
C   C250      1.0  0.47530  0.32670  0.11070  1.0000 -0.0191641346
C   C251      1.0  0.43940  0.33960  0.16660  1.0000 -0.2008523877
C   C252      1.0  0.46030  0.38620  0.20350  1.0000 0.0565804585
C   C253      1.0  0.25090  0.16990  0.74870  1.0000 0.1828617719
C   C254      1.0  0.18520  0.16200  0.74470  1.0000 -0.2066109933
C   C255      1.0  0.16050  0.10910  0.71670  1.0000 -0.1392203366
C   C256      1.0  0.19790  0.06340  0.69150  1.0000 0.0528868392
C   C257      1.0  0.26300  0.07110  0.69520  1.0000 -0.1232522189
C   C258      1.0  0.28820  0.12190  0.72430  1.0000 -0.1868731859
C   C259      1.0  0.17390  0.00690  0.66060  1.0000 -0.0191641346
C   C260      1.0  0.04730  0.90630  0.64160  1.0000 0.3352393351
C   C261      1.0  0.02810  0.85890  0.59920  1.0000 -0.2240840428
C   C262      1.0  0.97530  0.82670  0.61070  1.0000 -0.0191641346
C   C263      1.0  0.93940  0.83960  0.66667  1.0000 -0.2008523877
C   C264      1.0  0.96030  0.88620  0.70350  1.0000 0.0565804585
C   C265      1.0  0.24910  0.16990  0.25130  1.0000 0.1828617719
C   C266      1.0  0.31480  0.16200  0.25530  1.0000 -0.2066109933
C   C267      1.0  0.33950  0.10910  0.28330  1.0000 -0.1392203366
C   C268      1.0  0.30210  0.06340  0.30850  1.0000 0.0528868392
C   C269      1.0  0.23700  0.07110  0.30480  1.0000 -0.1232522189
C   C270      1.0  0.21180  0.12190  0.27570  1.0000 -0.1868731859
C   C271      1.0  0.32610  0.00690  0.33940  1.0000 -0.0191641346
C   C272      1.0  0.45270  0.90630  0.35840  1.0000 0.3352393351
C   C273      1.0  0.47190  0.85890  0.40080  1.0000 -0.2240840428
C   C274      1.0  0.52470  0.82670  0.38930  1.0000 -0.0191641346
C   C275      1.0  0.56060  0.83960  0.33340  1.0000 -0.2008523877
C   C276      1.0  0.53970  0.88620  0.29650  1.0000 0.0565804585
C   C277      1.0  0.74910  0.66990  0.75130  1.0000 0.1828617719
C   C278      1.0  0.81480  0.66200  0.75530  1.0000 -0.2066109933
C   C279      1.0  0.83950  0.60910  0.78330  1.0000 -0.1392203366
C   C280      1.0  0.80210  0.56340  0.80850  1.0000 0.0528868392
C   C281      1.0  0.73700  0.57110  0.80480  1.0000 -0.1232522189
C   C282      1.0  0.71180  0.62190  0.77570  1.0000 -0.1868731859
C   C283      1.0  0.82610  0.50690  0.83940  1.0000 -0.0191641346
C   C284      1.0  0.95270  0.40630  0.85840  1.0000 0.3352393351
C   C285      1.0  0.97190  0.35890  0.90080  1.0000 -0.2240840428
C   C286      1.0  0.02470  0.32670  0.88930  1.0000 -0.0191641346
C   C287      1.0  0.06060  0.33960  0.83340  1.0000 -0.2008523877
C   C288      1.0  0.03970  0.38620  0.79650  1.0000 0.0565804585
N   N1        1.0  0.83430  0.11780  0.01150  1.0000 -0.1232522189
N   N2        1.0  0.86890  0.10080  0.06320  1.0000 -0.2008523877
N   N3        1.0  0.80750  0.01310  0.08100  1.0000 -0.2687618318
N   N4        1.0  0.33430  0.61780  0.51150  1.0000 -0.1232522189
N   N5        1.0  0.36890  0.60080  0.56320  1.0000 -0.2008523877
N   N6        1.0  0.30750  0.51310  0.58100  1.0000 -0.2687618318
N   N7        1.0  0.66570  0.88220  0.51150  1.0000 -0.1232522189
N   N8        1.0  0.63110  0.89920  0.56320  1.0000 -0.2008523877
N   N9        1.0  0.69250  0.98690  0.58100  1.0000 -0.2687618318
N   N10       1.0  0.16570  0.38220  0.01150  1.0000 -0.1232522189
N   N11       1.0  0.13110  0.39920  0.06320  1.0000 -0.2008523877
N   N12       1.0  0.19250  0.48690  0.08100  1.0000 -0.2687618318
N   N13       1.0  0.16570  0.61780  0.48850  1.0000 -0.1232522189
N   N14       1.0  0.13110  0.60080  0.43680  1.0000 -0.2008523877
N   N15       1.0  0.19250  0.51310  0.41900  1.0000 -0.2687618318
N   N16       1.0  0.66570  0.11780  0.98850  1.0000 -0.1232522189
N   N17       1.0  0.63110  0.10080  0.93680  1.0000 -0.2008523877
N   N18       1.0  0.69250  0.01310  0.91900  1.0000 -0.2687618318
N   N19       1.0  0.33430  0.38220  0.98850  1.0000 -0.1251143746
N   N20       1.0  0.36890  0.39920  0.93680  1.0000 -0.2008523877
N   N21       1.0  0.30750  0.48690  0.91900  1.0000 -0.2687618318
N   N22       1.0  0.83430  0.88220  0.48850  1.0000 -0.1232522189
N   N23       1.0  0.86890  0.89920  0.43680  1.0000 -0.2008523877
N   N24       1.0  0.80750  0.98690  0.41900  1.0000 -0.2687618318
N   N25       1.0  0.01150  0.83430  0.11780  1.0000 -0.1232522189
N   N26       1.0  0.06320  0.86890  0.10080  1.0000 -0.2008523877
N   N27       1.0  0.08100  0.80750  0.01310  1.0000 -0.2687618318
N   N28       1.0  0.51150  0.33430  0.61780  1.0000 -0.1232522189
N   N29       1.0  0.56320  0.36890  0.60080  1.0000 -0.2008523877
N   N30       1.0  0.58100  0.30750  0.51310  1.0000 -0.2687618318
N   N31       1.0  0.51150  0.66570  0.88220  1.0000 -0.1232522189
N   N32       1.0  0.56320  0.63110  0.89920  1.0000 -0.2008523877
N   N33       1.0  0.58100  0.69250  0.98690  1.0000 -0.2687618318
N   N34       1.0  0.01150  0.16570  0.38220  1.0000 -0.1232522189
N   N35       1.0  0.06320  0.13110  0.39920  1.0000 -0.2008523877
N   N36       1.0  0.08100  0.19250  0.48690  1.0000 -0.2687618318
N   N37       1.0  0.48850  0.16570  0.61780  1.0000 -0.1232522189
N   N38       1.0  0.43680  0.13110  0.60080  1.0000 -0.2008523877
N   N39       1.0  0.41900  0.19250  0.51310  1.0000 -0.2687618318
N   N40       1.0  0.98850  0.66570  0.11780  1.0000 -0.1232522189
N   N41       1.0  0.93680  0.63110  0.10080  1.0000 -0.2008523877
N   N42       1.0  0.91900  0.69250  0.01310  1.0000 -0.2687618318
N   N43       1.0  0.98850  0.33430  0.38220  1.0000 -0.1232522189
N   N44       1.0  0.93680  0.36890  0.39920  1.0000 -0.2008523877
N   N45       1.0  0.91900  0.30750  0.48690  1.0000 -0.2687618318
N   N46       1.0  0.48850  0.83430  0.88220  1.0000 -0.1232522189
N   N47       1.0  0.43680  0.86890  0.89920  1.0000 -0.2008523877
N   N48       1.0  0.41900  0.80750  0.98690  1.0000 -0.2687618318
N   N49       1.0  0.11780  0.01150  0.83430  1.0000 -0.1232522189
N   N50       1.0  0.10080  0.06320  0.86890  1.0000 -0.2008523877
N   N51       1.0  0.01310  0.08100  0.80750  1.0000 -0.2687618318
N   N52       1.0  0.61780  0.51150  0.33430  1.0000 -0.1232522189
N   N53       1.0  0.60080  0.56320  0.36890  1.0000 -0.2008523877
N   N54       1.0  0.51310  0.58100  0.30750  1.0000 -0.2687618318
N   N55       1.0  0.88220  0.51150  0.66570  1.0000 -0.1232522189
N   N56       1.0  0.89920  0.56320  0.63110  1.0000 -0.2008523877
N   N57       1.0  0.98690  0.58100  0.69250  1.0000 -0.2687618318
N   N58       1.0  0.38220  0.01150  0.16570  1.0000 -0.1232522189
N   N59       1.0  0.39920  0.06320  0.13110  1.0000 -0.2008523877
N   N60       1.0  0.48690  0.08100  0.19250  1.0000 -0.2687618318
N   N61       1.0  0.61780  0.48850  0.16570  1.0000 -0.1232522189
N   N62       1.0  0.60080  0.43680  0.13110  1.0000 -0.2008523877
N   N63       1.0  0.51310  0.41900  0.19250  1.0000 -0.2687618318
N   N64       1.0  0.11780  0.98850  0.66570  1.0000 -0.1251143746
N   N65       1.0  0.10080  0.93680  0.63110  1.0000 -0.2008523877
N   N66       1.0  0.01310  0.91900  0.69250  1.0000 -0.2687618318
N   N67       1.0  0.38220  0.98850  0.33430  1.0000 -0.1232522189
N   N68       1.0  0.39920  0.93680  0.36890  1.0000 -0.2008523877
N   N69       1.0  0.48690  0.91900  0.30750  1.0000 -0.2687618318
N   N70       1.0  0.88220  0.48850  0.83430  1.0000 -0.1232522189
N   N71       1.0  0.89920  0.43680  0.86890  1.0000 -0.2008523877
N   N72       1.0  0.98690  0.41900  0.80750  1.0000 -0.2687618318
N   N73       1.0  0.72300  0.27700  0.77700  1.0000 -0.1541288708
N   N74       1.0  0.22300  0.77700  0.27700  1.0000 -0.1541288708
N   N75       1.0  0.77700  0.72300  0.27700  1.0000 -0.1541288708
N   N76       1.0  0.27700  0.22300  0.77700  1.0000 -0.1541288708
N   N77       1.0  0.27700  0.77700  0.72300  1.0000 -0.1541288708
N   N78       1.0  0.77700  0.27700  0.22300  1.0000 -0.1541288708
N   N79       1.0  0.22300  0.22300  0.22300  1.0000 -0.1541288708
N   N80       1.0  0.72300  0.72300  0.72300  1.0000 -0.1541288708
Cl  Cl1       1.0  0.25000  0.94057  0.50000  1.0000 1.2514867129
Cl  Cl2       1.0  0.75000  0.44057  0.00000  1.0000 1.2514867129
Cl  Cl3       1.0  0.75000  0.55943  0.50000  1.0000 1.2514867129
Cl  Cl4       1.0  0.25000  0.05943  0.00000  1.0000 1.2514867129
Cl  Cl5       1.0  0.94057  0.50000  0.25000  1.0000 1.2514867129
Cl  Cl6       1.0  0.44057  0.00000  0.75000  1.0000 1.2514867129
Cl  Cl7       1.0  0.55943  0.50000  0.75000  1.0000 1.2514867129
Cl  Cl8       1.0  0.05943  0.00000  0.25000  1.0000 1.2514867129
Cl  Cl9       1.0  0.50000  0.25000  0.94057  1.0000 1.2514867129
Cl  Cl10      1.0  0.00000  0.75000  0.44057  1.0000 1.2514867129
Cl  Cl11      1.0  0.50000  0.75000  0.55943  1.0000 1.2514867129
Cl  Cl12      1.0  0.00000  0.25000  0.05943  1.0000 1.2514867129
O   O1        1.0  0.22540  0.97720  0.45150  1.0000 -0.4846013345
O   O2        1.0  0.29900  0.90420  0.47510  1.0000 -0.4861107923
O   O3        1.0  0.27460  0.97720  0.54850  1.0000 -0.4846013345
O   O4        1.0  0.20100  0.90420  0.52490  1.0000 -0.4861107923
O   O5        1.0  0.72540  0.47720  0.95150  1.0000 -0.4846013345
O   O6        1.0  0.79900  0.40420  0.97510  1.0000 -0.4861107923
O   O7        1.0  0.77460  0.47720  0.04850  1.0000 -0.4846013345
O   O8        1.0  0.70100  0.40420  0.02490  1.0000 -0.4861107923
O   O9        1.0  0.72540  0.52280  0.54850  1.0000 -0.4846013345
O   O10       1.0  0.79900  0.59580  0.52490  1.0000 -0.4861107923
O   O11       1.0  0.77460  0.52280  0.45150  1.0000 -0.4846013345
O   O12       1.0  0.70100  0.59580  0.47510  1.0000 -0.4861107923
O   O13       1.0  0.22540  0.02280  0.04850  1.0000 -0.4846013345
O   O14       1.0  0.29900  0.09580  0.02490  1.0000 -0.4861107923
O   O15       1.0  0.27460  0.02280  0.95150  1.0000 -0.4846013345
O   O16       1.0  0.20100  0.09580  0.97510  1.0000 -0.4861107923
O   O17       1.0  0.97720  0.45150  0.22540  1.0000 -0.4846013345
O   O18       1.0  0.90420  0.47510  0.29900  1.0000 -0.4861107923
O   O19       1.0  0.97720  0.54850  0.27460  1.0000 -0.4846013345
O   O20       1.0  0.90420  0.52490  0.20100  1.0000 -0.4861107923
O   O21       1.0  0.47720  0.95150  0.72540  1.0000 -0.4846013345
O   O22       1.0  0.40420  0.97510  0.79900  1.0000 -0.4861107923
O   O23       1.0  0.47720  0.04850  0.77460  1.0000 -0.4846013345
O   O24       1.0  0.40420  0.02490  0.70100  1.0000 -0.4861107923
O   O25       1.0  0.52280  0.54850  0.72540  1.0000 -0.4846013345
O   O26       1.0  0.59580  0.52490  0.79900  1.0000 -0.4861107923
O   O27       1.0  0.52280  0.45150  0.77460  1.0000 -0.4846013345
O   O28       1.0  0.59580  0.47510  0.70100  1.0000 -0.4861107923
O   O29       1.0  0.02280  0.04850  0.22540  1.0000 -0.4846013345
O   O30       1.0  0.09580  0.02490  0.29900  1.0000 -0.4861107923
O   O31       1.0  0.02280  0.95150  0.27460  1.0000 -0.4846013345
O   O32       1.0  0.09580  0.97510  0.20100  1.0000 -0.4861107923
O   O33       1.0  0.45150  0.22540  0.97720  1.0000 -0.4846013345
O   O34       1.0  0.47510  0.29900  0.90420  1.0000 -0.4861107923
O   O35       1.0  0.54850  0.27460  0.97720  1.0000 -0.4846013345
O   O36       1.0  0.52490  0.20100  0.90420  1.0000 -0.4861107923
O   O37       1.0  0.95150  0.72540  0.47720  1.0000 -0.4846013345
O   O38       1.0  0.97510  0.79900  0.40420  1.0000 -0.4861107923
O   O39       1.0  0.04850  0.77460  0.47720  1.0000 -0.4846013345
O   O40       1.0  0.02490  0.70100  0.40420  1.0000 -0.4861107923
O   O41       1.0  0.54850  0.72540  0.52280  1.0000 -0.4846013345
O   O42       1.0  0.52490  0.79900  0.59580  1.0000 -0.4861107923
O   O43       1.0  0.45150  0.77460  0.52280  1.0000 -0.4846013345
O   O44       1.0  0.47510  0.70100  0.59580  1.0000 -0.4861107923
O   O45       1.0  0.04850  0.22540  0.02280  1.0000 -0.4846013345
O   O46       1.0  0.02490  0.29900  0.09580  1.0000 -0.4861107923
O   O47       1.0  0.95150  0.27460  0.02280  1.0000 -0.4846013345
O   O48       1.0  0.97510  0.20100  0.09580  1.0000 -0.4861107923
