# DDEC6 charges by PACMAN v1.1 (https://github.com/mtap-research/PACMAN-charge/)
data_2018[Cd][rtl]3[ION]1
_chemical_formula_sum              "Cd4 H44 C44 N4 O24"
_cell_length_a       10.0583
_cell_length_b       14.4667
_cell_length_c       13.6582
_cell_angle_alpha    90
_cell_angle_beta     117.923
_cell_angle_gamma    90

_symmetry_space_group_name_H-M    "P 1"
_symmetry_Int_Tables_number       1

loop_
  _symmetry_equiv_pos_as_xyz
  'x, y, z'

loop_
  _atom_site_type_symbol
  _atom_site_label
  _atom_site_symmetry_multiplicity
  _atom_site_fract_x
  _atom_site_fract_y
  _atom_site_fract_z
  _atom_site_occupancy
  _atom_site_charge
Cd  Cd1       1.0  0.84847  0.56673  0.43859  1.0000 0.9964538723
Cd  Cd2       1.0  0.15153  0.06673  0.06141  1.0000 0.9964538723
Cd  Cd3       1.0  0.15153  0.43327  0.56141  1.0000 0.9964538723
Cd  Cd4       1.0  0.84847  0.93327  0.93859  1.0000 0.9964538723
H   H1        1.0  0.38400  0.59840  0.43020  1.0000 0.1236349205
H   H2        1.0  0.42110  0.81780  0.26580  1.0000 0.1236349205
H   H3        1.0  0.02640  0.76030  0.25720  1.0000 0.1236349205
H   H4        1.0  0.61600  0.09840  0.06980  1.0000 0.1236349205
H   H5        1.0  0.57890  0.31780  0.23420  1.0000 0.1236349205
H   H6        1.0  0.97360  0.26030  0.24280  1.0000 0.1236349205
H   H7        1.0  0.61600  0.40160  0.56980  1.0000 0.1236349205
H   H8        1.0  0.57890  0.18220  0.73420  1.0000 0.1236349205
H   H9        1.0  0.97360  0.23970  0.74280  1.0000 0.1236349205
H   H10       1.0  0.38400  0.90160  0.93020  1.0000 0.1236349205
H   H11       1.0  0.42110  0.68220  0.76580  1.0000 0.1236349205
H   H12       1.0  0.02640  0.73970  0.75720  1.0000 0.1236349205
H   H13       1.0  0.81750  0.90620  0.21650  1.0000 0.2496695131
H   H14       1.0  0.70460  0.91790  0.10160  1.0000 0.2664998755
H   H15       1.0  0.63040  0.89190  0.26830  1.0000 0.1406966011
H   H16       1.0  0.51460  0.91430  0.14510  1.0000 0.1406966011
H   H17       1.0  0.63110  0.98940  0.21850  1.0000 0.1328341089
H   H18       1.0  0.75200  0.75830  0.22070  1.0000 0.1462257117
H   H19       1.0  0.78000  0.77080  0.11780  1.0000 0.1406966011
H   H20       1.0  0.61530  0.77000  0.10210  1.0000 0.1328341089
H   H21       1.0  0.18250  0.40620  0.28350  1.0000 0.2496695131
H   H22       1.0  0.29540  0.41790  0.39840  1.0000 0.2664998755
H   H23       1.0  0.36960  0.39190  0.23170  1.0000 0.1406966011
H   H24       1.0  0.48540  0.41430  0.35490  1.0000 0.1406966011
H   H25       1.0  0.36890  0.48940  0.28150  1.0000 0.1328341089
H   H26       1.0  0.24800  0.25830  0.27930  1.0000 0.1462257117
H   H27       1.0  0.22000  0.27080  0.38220  1.0000 0.1406966011
H   H28       1.0  0.38470  0.27000  0.39790  1.0000 0.1328341089
H   H29       1.0  0.18250  0.09380  0.78350  1.0000 0.2496695131
H   H30       1.0  0.29540  0.08210  0.89840  1.0000 0.2664998755
H   H31       1.0  0.36960  0.10810  0.73170  1.0000 0.1406966011
H   H32       1.0  0.48540  0.08570  0.85490  1.0000 0.1406966011
H   H33       1.0  0.36890  0.01060  0.78150  1.0000 0.1328341089
H   H34       1.0  0.24800  0.24170  0.77930  1.0000 0.1462257117
H   H35       1.0  0.22000  0.22920  0.88220  1.0000 0.1406966011
H   H36       1.0  0.38470  0.23000  0.89790  1.0000 0.1328341089
H   H37       1.0  0.81750  0.59380  0.71650  1.0000 0.2496695131
H   H38       1.0  0.70460  0.58210  0.60160  1.0000 0.2664998755
H   H39       1.0  0.63040  0.60810  0.76830  1.0000 0.1406966011
H   H40       1.0  0.51460  0.58570  0.64510  1.0000 0.1406966011
H   H41       1.0  0.63110  0.51060  0.71850  1.0000 0.1328341089
H   H42       1.0  0.75200  0.74170  0.72070  1.0000 0.1462257117
H   H43       1.0  0.78000  0.72920  0.61780  1.0000 0.1406966011
H   H44       1.0  0.61530  0.73000  0.60210  1.0000 0.1328341089
C   C1        1.0  0.19130  0.67100  0.35090  1.0000 -0.0286974735
C   C2        1.0  0.34080  0.64940  0.38480  1.0000 -0.1192847207
C   C3        1.0  0.42640  0.70330  0.35150  1.0000 -0.0286974735
C   C4        1.0  0.36270  0.78020  0.28580  1.0000 -0.1104941122
C   C5        1.0  0.21290  0.80160  0.24950  1.0000 -0.0198584773
C   C6        1.0  0.12740  0.74650  0.28190  1.0000 -0.1104941122
C   C7        1.0  0.10040  0.61260  0.38810  1.0000 0.5758968502
C   C8        1.0  0.58400  0.67430  0.38170  1.0000 0.5354693443
C   C9        1.0  0.14070  0.88030  0.17020  1.0000 0.5865121246
C   C10       1.0  0.80870  0.17100  0.14910  1.0000 -0.0286974735
C   C11       1.0  0.65920  0.14940  0.11520  1.0000 -0.1192847207
C   C12       1.0  0.57360  0.20330  0.14850  1.0000 -0.0286974735
C   C13       1.0  0.63730  0.28020  0.21420  1.0000 -0.1104941122
C   C14       1.0  0.78710  0.30160  0.25050  1.0000 -0.0198584773
C   C15       1.0  0.87260  0.24650  0.21810  1.0000 -0.1104941122
C   C16       1.0  0.89960  0.11260  0.11190  1.0000 0.5758968502
C   C17       1.0  0.41600  0.17430  0.11830  1.0000 0.5354693443
C   C18       1.0  0.85930  0.38030  0.32980  1.0000 0.5865121246
C   C19       1.0  0.80870  0.32900  0.64910  1.0000 -0.0286974735
C   C20       1.0  0.65920  0.35060  0.61520  1.0000 -0.1192847207
C   C21       1.0  0.57360  0.29670  0.64850  1.0000 -0.0286974735
C   C22       1.0  0.63730  0.21980  0.71420  1.0000 -0.1104941122
C   C23       1.0  0.78710  0.19840  0.75050  1.0000 -0.0198584773
C   C24       1.0  0.87260  0.25350  0.71810  1.0000 -0.1104941122
C   C25       1.0  0.89960  0.38740  0.61190  1.0000 0.5758968502
C   C26       1.0  0.41600  0.32570  0.61830  1.0000 0.5354693443
C   C27       1.0  0.85930  0.11970  0.82980  1.0000 0.5865121246
C   C28       1.0  0.19130  0.82900  0.85090  1.0000 -0.0286974735
C   C29       1.0  0.34080  0.85060  0.88480  1.0000 -0.1192847207
C   C30       1.0  0.42640  0.79670  0.85150  1.0000 -0.0286974735
C   C31       1.0  0.36270  0.71980  0.78580  1.0000 -0.1104941122
C   C32       1.0  0.21290  0.69840  0.74950  1.0000 -0.0198584773
C   C33       1.0  0.12740  0.75350  0.78190  1.0000 -0.1104941122
C   C34       1.0  0.10040  0.88740  0.88810  1.0000 0.5758968502
C   C35       1.0  0.58400  0.82570  0.88170  1.0000 0.5354693443
C   C36       1.0  0.14070  0.61970  0.67020  1.0000 0.5865121246
C   C37       1.0  0.61540  0.92450  0.20270  1.0000 -0.3020491764
C   C38       1.0  0.71720  0.78830  0.15020  1.0000 -0.3020491764
C   C39       1.0  0.38460  0.42450  0.29730  1.0000 -0.3020491764
C   C40       1.0  0.28280  0.28830  0.34980  1.0000 -0.3020491764
C   C41       1.0  0.38460  0.07550  0.79730  1.0000 -0.3020491764
C   C42       1.0  0.28280  0.21170  0.84980  1.0000 -0.3020491764
C   C43       1.0  0.61540  0.57550  0.70270  1.0000 -0.3020491764
C   C44       1.0  0.71720  0.71170  0.65020  1.0000 -0.3020491764
N   N1        1.0  0.72380  0.89020  0.16590  1.0000 -0.1023000158
N   N2        1.0  0.27620  0.39020  0.33410  1.0000 -0.1023000158
N   N3        1.0  0.27620  0.10980  0.83410  1.0000 -0.1023000158
N   N4        1.0  0.72380  0.60980  0.66590  1.0000 -0.1023000158
O   O1        1.0  0.96850  0.63910  0.36110  1.0000 -0.5401821524
O   O2        1.0  0.16440  0.54300  0.44480  1.0000 -0.5826645583
O   O3        1.0  0.62950  0.59840  0.43360  1.0000 -0.5518119425
O   O4        1.0  0.66190  0.72030  0.35390  1.0000 -0.5095297187
O   O5        1.0  0.22470  0.94660  0.17630  1.0000 -0.5401821524
O   O6        1.0  0.00370  0.87060  0.10350  1.0000 -0.5670948118
O   O7        1.0  0.03150  0.13910  0.13890  1.0000 -0.5401821524
O   O8        1.0  0.83560  0.04300  0.05520  1.0000 -0.5826645583
O   O9        1.0  0.37050  0.09840  0.06640  1.0000 -0.5518119425
O   O10       1.0  0.33810  0.22030  0.14610  1.0000 -0.5095297187
O   O11       1.0  0.77530  0.44660  0.32370  1.0000 -0.5401821524
O   O12       1.0  0.99630  0.37060  0.39650  1.0000 -0.5670948118
O   O13       1.0  0.03150  0.36090  0.63890  1.0000 -0.5401821524
O   O14       1.0  0.83560  0.45700  0.55520  1.0000 -0.5826645583
O   O15       1.0  0.37050  0.40160  0.56640  1.0000 -0.5518119425
O   O16       1.0  0.33810  0.27970  0.64610  1.0000 -0.5095297187
O   O17       1.0  0.77530  0.05340  0.82370  1.0000 -0.5401821524
O   O18       1.0  0.99630  0.12940  0.89650  1.0000 -0.5670948118
O   O19       1.0  0.96850  0.86090  0.86110  1.0000 -0.5401821524
O   O20       1.0  0.16440  0.95700  0.94480  1.0000 -0.5826645583
O   O21       1.0  0.62950  0.90160  0.93360  1.0000 -0.5518119425
O   O22       1.0  0.66190  0.77970  0.85390  1.0000 -0.5095297187
O   O23       1.0  0.22470  0.55340  0.67630  1.0000 -0.5401821524
O   O24       1.0  0.00370  0.62940  0.60350  1.0000 -0.5670948118
