# DDEC6 charges by PACMAN v1.1 (https://github.com/mtap-research/PACMAN-charge/)
data_2018[Zn][fes]2[ION]1
_chemical_formula_sum              "Zn4 H84 C84 N12 O28"
_cell_length_a       8.3295
_cell_length_b       11.082
_cell_length_c       29.008
_cell_angle_alpha    90
_cell_angle_beta     96.46
_cell_angle_gamma    90

_symmetry_space_group_name_H-M    "P 1"
_symmetry_Int_Tables_number       1

loop_
  _symmetry_equiv_pos_as_xyz
  'x, y, z'

loop_
  _atom_site_type_symbol
  _atom_site_label
  _atom_site_symmetry_multiplicity
  _atom_site_fract_x
  _atom_site_fract_y
  _atom_site_fract_z
  _atom_site_occupancy
  _atom_site_charge
Zn  Zn1       1.0  0.41588  0.18245  0.96010  1.0000 0.9405087562
Zn  Zn2       1.0  0.58412  0.68245  0.53990  1.0000 0.9405087562
Zn  Zn3       1.0  0.58412  0.81755  0.03990  1.0000 0.9405087562
Zn  Zn4       1.0  0.41588  0.31755  0.46010  1.0000 0.9405087562
H   H1        1.0  0.28700  0.02400  0.00600  1.0000 0.3433317611
H   H2        1.0  0.40400  0.07500  0.03560  1.0000 0.3433317611
H   H3        1.0  0.92820  0.78610  0.96250  1.0000 0.117790881
H   H4        1.0  0.71110  0.65970  0.68250  1.0000 0.117790881
H   H5        1.0  0.52490  0.42340  0.91580  1.0000 0.1326412881
H   H6        1.0  0.72050  0.65450  0.76200  1.0000 0.117790881
H   H7        1.0  0.30840  0.56200  0.97950  1.0000 0.117790881
H   H8        1.0  0.68260  0.72590  0.91510  1.0000 0.1326412881
H   H9        1.0  0.64060  0.62810  0.95090  1.0000 0.1404879795
H   H10       1.0  0.46420  0.35050  0.67310  1.0000 0.117790881
H   H11       1.0  0.47090  0.34430  0.75270  1.0000 0.117790881
H   H12       1.0  0.88300  0.44570  0.91720  1.0000 0.117790881
H   H13       1.0  0.47310  0.34290  0.83590  1.0000 0.1404879795
H   H14       1.0  0.71300  0.52400  0.49400  1.0000 0.3433317611
H   H15       1.0  0.59600  0.57500  0.46440  1.0000 0.3433317611
H   H16       1.0  0.07180  0.28610  0.53750  1.0000 0.117790881
H   H17       1.0  0.28890  0.15970  0.81750  1.0000 0.117790881
H   H18       1.0  0.47510  0.92340  0.58420  1.0000 0.1326412881
H   H19       1.0  0.27950  0.15450  0.73800  1.0000 0.117790881
H   H20       1.0  0.69160  0.06200  0.52050  1.0000 0.117790881
H   H21       1.0  0.31740  0.22590  0.58490  1.0000 0.1326412881
H   H22       1.0  0.35940  0.12810  0.54910  1.0000 0.1404879795
H   H23       1.0  0.53580  0.85050  0.82690  1.0000 0.117790881
H   H24       1.0  0.52910  0.84430  0.74730  1.0000 0.117790881
H   H25       1.0  0.11700  0.94570  0.58280  1.0000 0.117790881
H   H26       1.0  0.52690  0.84290  0.66410  1.0000 0.1404879795
H   H27       1.0  0.71300  0.97600  0.99400  1.0000 0.3433317611
H   H28       1.0  0.59600  0.92500  0.96440  1.0000 0.3433317611
H   H29       1.0  0.07180  0.21390  0.03750  1.0000 0.117790881
H   H30       1.0  0.28890  0.34030  0.31750  1.0000 0.117790881
H   H31       1.0  0.47510  0.57660  0.08420  1.0000 0.1326412881
H   H32       1.0  0.27950  0.34550  0.23800  1.0000 0.117790881
H   H33       1.0  0.69160  0.43800  0.02050  1.0000 0.117790881
H   H34       1.0  0.31740  0.27410  0.08490  1.0000 0.1326412881
H   H35       1.0  0.35940  0.37190  0.04910  1.0000 0.1404879795
H   H36       1.0  0.53580  0.64950  0.32690  1.0000 0.117790881
H   H37       1.0  0.52910  0.65570  0.24730  1.0000 0.117790881
H   H38       1.0  0.11700  0.55430  0.08280  1.0000 0.117790881
H   H39       1.0  0.52690  0.65710  0.16410  1.0000 0.1404879795
H   H40       1.0  0.28700  0.47600  0.50600  1.0000 0.3433317611
H   H41       1.0  0.40400  0.42500  0.53560  1.0000 0.3433317611
H   H42       1.0  0.92820  0.71390  0.46250  1.0000 0.117790881
H   H43       1.0  0.71110  0.84030  0.18250  1.0000 0.117790881
H   H44       1.0  0.52490  0.07660  0.41580  1.0000 0.1326412881
H   H45       1.0  0.72050  0.84550  0.26200  1.0000 0.117790881
H   H46       1.0  0.30840  0.93800  0.47950  1.0000 0.117790881
H   H47       1.0  0.68260  0.77410  0.41510  1.0000 0.1326412881
H   H48       1.0  0.64060  0.87190  0.45090  1.0000 0.1404879795
H   H49       1.0  0.46420  0.14950  0.17310  1.0000 0.117790881
H   H50       1.0  0.47090  0.15570  0.25270  1.0000 0.117790881
H   H51       1.0  0.88300  0.05430  0.41720  1.0000 0.117790881
H   H52       1.0  0.47310  0.15710  0.33590  1.0000 0.1404879795
H   H53       1.0  0.03600  0.34980  0.38440  1.0000 0.2713549467
H   H54       1.0  0.97780  0.41200  0.34180  1.0000 0.2469262885
H   H55       1.0  0.77260  0.34430  0.40320  1.0000 0.1404879795
H   H56       1.0  0.80690  0.26230  0.36140  1.0000 0.1326412881
H   H57       1.0  0.72260  0.38780  0.35220  1.0000 0.117790881
H   H58       1.0  0.89250  0.56550  0.38510  1.0000 0.1326412881
H   H59       1.0  0.08030  0.55030  0.38730  1.0000 0.1326412881
H   H60       1.0  0.98870  0.50090  0.42770  1.0000 0.1462450208
H   H61       1.0  0.96400  0.84980  0.11560  1.0000 0.2713549467
H   H62       1.0  0.02220  0.91200  0.15820  1.0000 0.2469262885
H   H63       1.0  0.22740  0.84430  0.09680  1.0000 0.1404879795
H   H64       1.0  0.19310  0.76230  0.13860  1.0000 0.1326412881
H   H65       1.0  0.27740  0.88780  0.14780  1.0000 0.117790881
H   H66       1.0  0.10750  0.06550  0.11490  1.0000 0.1326412881
H   H67       1.0  0.91970  0.05030  0.11270  1.0000 0.1326412881
H   H68       1.0  0.01130  0.00090  0.07230  1.0000 0.1462450208
H   H69       1.0  0.96400  0.65020  0.61560  1.0000 0.2713549467
H   H70       1.0  0.02220  0.58800  0.65820  1.0000 0.2469262885
H   H71       1.0  0.22740  0.65570  0.59680  1.0000 0.1404879795
H   H72       1.0  0.19310  0.73770  0.63860  1.0000 0.1326412881
H   H73       1.0  0.27740  0.61220  0.64780  1.0000 0.117790881
H   H74       1.0  0.10750  0.43450  0.61490  1.0000 0.1326412881
H   H75       1.0  0.91970  0.44970  0.61270  1.0000 0.1326412881
H   H76       1.0  0.01130  0.49910  0.57230  1.0000 0.1462450208
H   H77       1.0  0.03600  0.15020  0.88440  1.0000 0.2713549467
H   H78       1.0  0.97780  0.08800  0.84180  1.0000 0.2469262885
H   H79       1.0  0.77260  0.15570  0.90320  1.0000 0.1404879795
H   H80       1.0  0.80690  0.23770  0.86140  1.0000 0.1326412881
H   H81       1.0  0.72260  0.11220  0.85220  1.0000 0.117790881
H   H82       1.0  0.89250  0.93450  0.88510  1.0000 0.1326412881
H   H83       1.0  0.08030  0.94970  0.88730  1.0000 0.1326412881
H   H84       1.0  0.98870  0.99910  0.92770  1.0000 0.1462450208
C   C1        1.0  0.13500  0.69050  0.97407  1.0000 -0.023052043
C   C2        1.0  0.97270  0.71030  0.95864  1.0000 -0.1487929764
C   C3        1.0  0.66130  0.59650  0.69652  1.0000 -0.1199847112
C   C4        1.0  0.87590  0.61960  0.93762  1.0000 0.1145283909
C   C5        1.0  0.17600  0.36090  0.94129  1.0000 0.5564103456
C   C6        1.0  0.55310  0.45950  0.88886  1.0000 -0.0597239962
C   C7        1.0  0.66690  0.59370  0.74433  1.0000 -0.1487929764
C   C8        1.0  0.20090  0.57660  0.96854  1.0000 -0.1296258239
C   C9        1.0  0.10740  0.48470  0.94687  1.0000 -0.023052043
C   C10       1.0  0.69810  0.64200  0.92413  1.0000 -0.1890994875
C   C11       1.0  0.58340  0.50740  0.66897  1.0000 -0.0343785026
C   C12       1.0  0.56500  0.51480  0.61702  1.0000 0.5564103456
C   C13       1.0  0.51430  0.41270  0.69088  1.0000 -0.1034754483
C   C14       1.0  0.51840  0.40880  0.73886  1.0000 -0.1444276316
C   C15       1.0  0.59250  0.49990  0.76640  1.0000 0.0714399455
C   C16       1.0  0.94590  0.50710  0.93167  1.0000 -0.1487929764
C   C17       1.0  0.59080  0.49960  0.81705  1.0000 0.1404879795
C   C18       1.0  0.52490  0.41470  0.84516  1.0000 -0.2638259201
C   C19       1.0  0.23610  0.78950  0.99726  1.0000 0.5741583587
C   C20       1.0  0.86500  0.19050  0.52593  1.0000 -0.023052043
C   C21       1.0  0.02730  0.21030  0.54136  1.0000 -0.1487929764
C   C22       1.0  0.33870  0.09650  0.80348  1.0000 -0.1199847112
C   C23       1.0  0.12410  0.11960  0.56238  1.0000 0.1145283909
C   C24       1.0  0.82400  0.86090  0.55871  1.0000 0.5564103456
C   C25       1.0  0.44690  0.95950  0.61114  1.0000 -0.0597239962
C   C26       1.0  0.33310  0.09370  0.75567  1.0000 -0.1487929764
C   C27       1.0  0.79910  0.07660  0.53146  1.0000 -0.1296258239
C   C28       1.0  0.89260  0.98470  0.55313  1.0000 -0.023052043
C   C29       1.0  0.30190  0.14200  0.57587  1.0000 -0.1890994875
C   C30       1.0  0.41660  0.00740  0.83103  1.0000 -0.0343785026
C   C31       1.0  0.43500  0.01480  0.88298  1.0000 0.5564103456
C   C32       1.0  0.48570  0.91270  0.80912  1.0000 -0.1034754483
C   C33       1.0  0.48160  0.90880  0.76114  1.0000 -0.1444276316
C   C34       1.0  0.40750  0.99990  0.73360  1.0000 0.0714399455
C   C35       1.0  0.05410  0.00710  0.56833  1.0000 -0.1487929764
C   C36       1.0  0.40920  0.99960  0.68295  1.0000 0.1404879795
C   C37       1.0  0.47510  0.91470  0.65484  1.0000 -0.2638259201
C   C38       1.0  0.76390  0.28950  0.50274  1.0000 0.5741583587
C   C39       1.0  0.86500  0.30950  0.02593  1.0000 -0.023052043
C   C40       1.0  0.02730  0.28970  0.04136  1.0000 -0.1487929764
C   C41       1.0  0.33870  0.40350  0.30348  1.0000 -0.1199847112
C   C42       1.0  0.12410  0.38040  0.06238  1.0000 0.117790881
C   C43       1.0  0.82400  0.63910  0.05871  1.0000 0.5564103456
C   C44       1.0  0.44690  0.54050  0.11114  1.0000 -0.0597239962
C   C45       1.0  0.33310  0.40630  0.25567  1.0000 -0.1487929764
C   C46       1.0  0.79910  0.42340  0.03146  1.0000 -0.1296258239
C   C47       1.0  0.89260  0.51530  0.05313  1.0000 -0.023052043
C   C48       1.0  0.30190  0.35800  0.07587  1.0000 -0.1890994875
C   C49       1.0  0.41660  0.49260  0.33103  1.0000 -0.0343785026
C   C50       1.0  0.43500  0.48520  0.38298  1.0000 0.5564103456
C   C51       1.0  0.48570  0.58730  0.30912  1.0000 -0.1034754483
C   C52       1.0  0.48160  0.59120  0.26114  1.0000 -0.1444276316
C   C53       1.0  0.40750  0.50010  0.23360  1.0000 0.0714399455
C   C54       1.0  0.05410  0.49290  0.06833  1.0000 -0.1487929764
C   C55       1.0  0.40920  0.50040  0.18295  1.0000 0.1404879795
C   C56       1.0  0.47510  0.58530  0.15484  1.0000 -0.2638259201
C   C57       1.0  0.76390  0.21050  0.00274  1.0000 0.5741583587
C   C58       1.0  0.13500  0.80950  0.47407  1.0000 -0.023052043
C   C59       1.0  0.97270  0.78970  0.45864  1.0000 -0.1487929764
C   C60       1.0  0.66130  0.90350  0.19652  1.0000 -0.1199847112
C   C61       1.0  0.87590  0.88040  0.43762  1.0000 0.117790881
C   C62       1.0  0.17600  0.13910  0.44129  1.0000 0.5564103456
C   C63       1.0  0.55310  0.04050  0.38886  1.0000 -0.0597239962
C   C64       1.0  0.66690  0.90630  0.24433  1.0000 -0.1487929764
C   C65       1.0  0.20090  0.92340  0.46854  1.0000 -0.1296258239
C   C66       1.0  0.10740  0.01530  0.44687  1.0000 -0.023052043
C   C67       1.0  0.69810  0.85800  0.42413  1.0000 -0.1890994875
C   C68       1.0  0.58340  0.99260  0.16897  1.0000 -0.0343785026
C   C69       1.0  0.56500  0.98520  0.11702  1.0000 0.5564103456
C   C70       1.0  0.51430  0.08730  0.19088  1.0000 -0.1034754483
C   C71       1.0  0.51840  0.09120  0.23886  1.0000 -0.1444276316
C   C72       1.0  0.59250  0.00010  0.26640  1.0000 0.0714399455
C   C73       1.0  0.94590  0.99290  0.43167  1.0000 -0.1487929764
C   C74       1.0  0.59080  0.00040  0.31705  1.0000 0.1404879795
C   C75       1.0  0.52490  0.08530  0.34516  1.0000 -0.2638259201
C   C76       1.0  0.23610  0.71050  0.49726  1.0000 0.5741583587
C   C77       1.0  0.80190  0.34400  0.37220  1.0000 -0.2868324934
C   C78       1.0  0.98220  0.51360  0.39480  1.0000 -0.2814925877
C   C79       1.0  0.19810  0.84400  0.12780  1.0000 -0.2868324934
C   C80       1.0  0.01780  0.01360  0.10520  1.0000 -0.2814925877
C   C81       1.0  0.19810  0.65600  0.62780  1.0000 -0.2868324934
C   C82       1.0  0.01780  0.48640  0.60520  1.0000 -0.2814925877
C   C83       1.0  0.80190  0.15600  0.87220  1.0000 -0.2868324934
C   C84       1.0  0.98220  0.98640  0.89480  1.0000 -0.2814925877
N   N1        1.0  0.62880  0.56550  0.88612  1.0000 0.2023075553
N   N2        1.0  0.65660  0.59240  0.84226  1.0000 -0.3178866027
N   N3        1.0  0.37120  0.06550  0.61388  1.0000 0.2023075553
N   N4        1.0  0.34340  0.09240  0.65774  1.0000 -0.3178866027
N   N5        1.0  0.37120  0.43450  0.11388  1.0000 0.2023075553
N   N6        1.0  0.34340  0.40760  0.15774  1.0000 -0.3178866027
N   N7        1.0  0.62880  0.93450  0.38612  1.0000 0.2023075553
N   N8        1.0  0.65660  0.90760  0.34226  1.0000 -0.3178866027
N   N9        1.0  0.96010  0.40120  0.37161  1.0000 -0.0835700004
N   N10       1.0  0.03990  0.90120  0.12839  1.0000 -0.0835700004
N   N11       1.0  0.03990  0.59880  0.62839  1.0000 -0.0835700004
N   N12       1.0  0.96010  0.09880  0.87161  1.0000 -0.0835700004
O   O1        1.0  0.09460  0.28490  0.91874  1.0000 -0.5397815971
O   O2        1.0  0.31710  0.34190  0.96135  1.0000 -0.5681642859
O   O3        1.0  0.36910  0.75780  0.01946  1.0000 -0.5912150784
O   O4        1.0  0.61840  0.61280  0.60080  1.0000 -0.5912150784
O   O5        1.0  0.34420  0.08780  0.01035  1.0000 -0.7015449374
O   O6        1.0  0.50260  0.43180  0.59372  1.0000 -0.5144464342
O   O7        1.0  0.18360  0.89370  0.99363  1.0000 -0.5228964953
O   O8        1.0  0.90540  0.78490  0.58126  1.0000 -0.5397815971
O   O9        1.0  0.68290  0.84190  0.53865  1.0000 -0.5681642859
O   O10       1.0  0.63090  0.25780  0.48054  1.0000 -0.5912150784
O   O11       1.0  0.38160  0.11280  0.89920  1.0000 -0.5912150784
O   O12       1.0  0.65580  0.58780  0.48965  1.0000 -0.7015449374
O   O13       1.0  0.49740  0.93180  0.90628  1.0000 -0.5144464342
O   O14       1.0  0.81640  0.39370  0.50637  1.0000 -0.5228964953
O   O15       1.0  0.90540  0.71510  0.08126  1.0000 -0.5397815971
O   O16       1.0  0.68290  0.65810  0.03865  1.0000 -0.5681642859
O   O17       1.0  0.63090  0.24220  0.98054  1.0000 -0.5912150784
O   O18       1.0  0.38160  0.38720  0.39920  1.0000 -0.5912150784
O   O19       1.0  0.65580  0.91220  0.98965  1.0000 -0.7015449374
O   O20       1.0  0.49740  0.56820  0.40628  1.0000 -0.5144464342
O   O21       1.0  0.81640  0.10630  0.00637  1.0000 -0.5228964953
O   O22       1.0  0.09460  0.21510  0.41874  1.0000 -0.5397815971
O   O23       1.0  0.31710  0.15810  0.46135  1.0000 -0.5681642859
O   O24       1.0  0.36910  0.74220  0.51946  1.0000 -0.5912150784
O   O25       1.0  0.61840  0.88720  0.10080  1.0000 -0.5912150784
O   O26       1.0  0.34420  0.41220  0.51035  1.0000 -0.7015449374
O   O27       1.0  0.50260  0.06820  0.09372  1.0000 -0.5144464342
O   O28       1.0  0.18360  0.60630  0.49363  1.0000 -0.5228964953
