# DDEC6 charges by PACMAN v1.1 (https://github.com/mtap-research/PACMAN-charge/)
data_2019[Ag][sra]3[ION]3
_chemical_formula_sum              "Ag4 P4 H48 C68 N24 F24"
_cell_length_a       9.3214
_cell_length_b       23.912
_cell_length_c       13.1679
_cell_angle_alpha    90
_cell_angle_beta     117.866
_cell_angle_gamma    90

_symmetry_space_group_name_H-M    "P 1"
_symmetry_Int_Tables_number       1

loop_
  _symmetry_equiv_pos_as_xyz
  'x, y, z'

loop_
  _atom_site_type_symbol
  _atom_site_label
  _atom_site_symmetry_multiplicity
  _atom_site_fract_x
  _atom_site_fract_y
  _atom_site_fract_z
  _atom_site_occupancy
  _atom_site_charge
Ag  Ag1       1.0  0.39844  0.12627  0.11055  1.0000 0.2650828312
Ag  Ag2       1.0  0.60156  0.62627  0.38945  1.0000 0.2645899902
Ag  Ag3       1.0  0.60156  0.87373  0.88945  1.0000 0.2645899902
Ag  Ag4       1.0  0.39844  0.37373  0.61055  1.0000 0.2645899902
P   P1        1.0  0.56462  0.38758  0.21529  1.0000 1.4428880762
P   P2        1.0  0.43538  0.88758  0.28471  1.0000 1.4428880762
P   P3        1.0  0.43538  0.61242  0.78471  1.0000 1.4428880762
P   P4        1.0  0.56462  0.11242  0.71529  1.0000 1.4428880762
H   H1        1.0  0.19410  0.17000  0.47770  1.0000 0.1292325358
H   H2        1.0  0.36160  0.24050  0.58600  1.0000 0.1214191306
H   H3        1.0  0.04640  0.35300  0.40440  1.0000 0.1103522132
H   H4        1.0  0.86800  0.28620  0.29090  1.0000 0.1491244783
H   H5        1.0  0.66340  0.00770  0.22110  1.0000 0.1429140817
H   H6        1.0  0.62050  0.92690  0.11760  1.0000 0.1103522132
H   H7        1.0  0.80050  0.99190  0.93270  1.0000 0.1103522132
H   H8        1.0  0.84810  0.07490  0.02960  1.0000 0.1429140817
H   H9        1.0  0.11930  0.15790  0.18110  1.0000 0.1214191306
H   H10       1.0  0.46920  0.05070  0.33300  1.0000 0.1103522132
H   H11       1.0  0.33970  0.01020  0.42400  1.0000 0.1491244783
H   H12       1.0  0.08980  0.04520  0.39330  1.0000 0.1491244783
H   H13       1.0  0.80590  0.67000  0.02230  1.0000 0.1292325358
H   H14       1.0  0.63840  0.74050  0.91400  1.0000 0.1214191306
H   H15       1.0  0.95360  0.85300  0.09560  1.0000 0.1103522132
H   H16       1.0  0.13200  0.78620  0.20910  1.0000 0.1491244783
H   H17       1.0  0.33660  0.50770  0.27890  1.0000 0.1429140817
H   H18       1.0  0.37950  0.42690  0.38240  1.0000 0.1103522132
H   H19       1.0  0.19950  0.49190  0.56730  1.0000 0.1103522132
H   H20       1.0  0.15190  0.57490  0.47040  1.0000 0.1429140817
H   H21       1.0  0.88070  0.65790  0.31890  1.0000 0.1214191306
H   H22       1.0  0.53080  0.55070  0.16700  1.0000 0.1103522132
H   H23       1.0  0.66030  0.51020  0.07600  1.0000 0.1491244783
H   H24       1.0  0.91020  0.54520  0.10670  1.0000 0.1491244783
H   H25       1.0  0.80590  0.83000  0.52230  1.0000 0.1292325358
H   H26       1.0  0.63840  0.75950  0.41400  1.0000 0.1214191306
H   H27       1.0  0.95360  0.64700  0.59560  1.0000 0.1103522132
H   H28       1.0  0.13200  0.71380  0.70910  1.0000 0.1491244783
H   H29       1.0  0.33660  0.99230  0.77890  1.0000 0.1429140817
H   H30       1.0  0.37950  0.07310  0.88240  1.0000 0.1103522132
H   H31       1.0  0.19950  0.00810  0.06730  1.0000 0.1103522132
H   H32       1.0  0.15190  0.92510  0.97040  1.0000 0.1429140817
H   H33       1.0  0.88070  0.84210  0.81890  1.0000 0.1214191306
H   H34       1.0  0.53080  0.94930  0.66700  1.0000 0.1103522132
H   H35       1.0  0.66030  0.98980  0.57600  1.0000 0.1491244783
H   H36       1.0  0.91020  0.95480  0.60670  1.0000 0.1491244783
H   H37       1.0  0.19410  0.33000  0.97770  1.0000 0.1292325358
H   H38       1.0  0.36160  0.25950  0.08600  1.0000 0.1214191306
H   H39       1.0  0.04640  0.14700  0.90440  1.0000 0.1103522132
H   H40       1.0  0.86800  0.21380  0.79090  1.0000 0.1491244783
H   H41       1.0  0.66340  0.49230  0.72110  1.0000 0.1429140817
H   H42       1.0  0.62050  0.57310  0.61760  1.0000 0.1103522132
H   H43       1.0  0.80050  0.50810  0.43270  1.0000 0.1103522132
H   H44       1.0  0.84810  0.42510  0.52960  1.0000 0.1429140817
H   H45       1.0  0.11930  0.34210  0.68110  1.0000 0.1214191306
H   H46       1.0  0.46920  0.44930  0.83300  1.0000 0.1103522132
H   H47       1.0  0.33970  0.48980  0.92400  1.0000 0.1491244783
H   H48       1.0  0.08980  0.45480  0.89330  1.0000 0.1491244783
C   C1        1.0  0.16120  0.20710  0.46090  1.0000 -0.170941025
C   C2        1.0  0.26120  0.24981  0.52530  1.0000 0.0880911897
C   C3        1.0  0.07640  0.31556  0.41900  1.0000 0.0708802504
C   C4        1.0  0.96840  0.27583  0.35030  1.0000 -0.1433988561
C   C5        1.0  0.01160  0.22013  0.37120  1.0000 0.061073764
C   C6        1.0  0.89350  0.17798  0.29940  1.0000 0.2300877895
C   C7        1.0  0.78230  0.10390  0.19740  1.0000 0.2300877895
C   C8        1.0  0.75980  0.05041  0.13600  1.0000 0.0534136619
C   C9        1.0  0.69200  0.00554  0.16230  1.0000 -0.170941025
C   C10       1.0  0.66730  0.95711  0.09980  1.0000 0.0880911897
C   C11       1.0  0.77250  0.99513  0.99160  1.0000 0.0708802504
C   C12       1.0  0.80140  0.04518  0.04910  1.0000 -0.170941025
C   C13       1.0  0.08350  0.10590  0.28530  1.0000 0.1041863362
C   C14       1.0  0.16470  0.12794  0.23110  1.0000 -0.0176062698
C   C15       1.0  0.36890  0.06479  0.31970  1.0000 0.0708802504
C   C16       1.0  0.29270  0.04039  0.37510  1.0000 -0.0878629938
C   C17       1.0  0.14550  0.06107  0.35750  1.0000 -0.1107906208
C   C18       1.0  0.83880  0.70710  0.03910  1.0000 -0.170941025
C   C19       1.0  0.73880  0.74981  0.97470  1.0000 0.0880911897
C   C20       1.0  0.92360  0.81556  0.08100  1.0000 0.0708802504
C   C21       1.0  0.03160  0.77583  0.14970  1.0000 -0.1433988561
C   C22       1.0  0.98840  0.72013  0.12880  1.0000 0.061073764
C   C23       1.0  0.10650  0.67798  0.20060  1.0000 0.2300877895
C   C24       1.0  0.21770  0.60390  0.30260  1.0000 0.2300877895
C   C25       1.0  0.24020  0.55041  0.36400  1.0000 0.0534136619
C   C26       1.0  0.30800  0.50554  0.33770  1.0000 -0.170941025
C   C27       1.0  0.33270  0.45711  0.40020  1.0000 0.0880911897
C   C28       1.0  0.22750  0.49513  0.50840  1.0000 0.0708802504
C   C29       1.0  0.19860  0.54518  0.45090  1.0000 -0.170941025
C   C30       1.0  0.91650  0.60590  0.21470  1.0000 0.1041863362
C   C31       1.0  0.83530  0.62794  0.26890  1.0000 -0.0176062698
C   C32       1.0  0.63110  0.56479  0.18030  1.0000 0.0708802504
C   C33       1.0  0.70730  0.54039  0.12490  1.0000 -0.0878629938
C   C34       1.0  0.85450  0.56107  0.14250  1.0000 -0.1107906208
C   C35       1.0  0.83880  0.79290  0.53910  1.0000 -0.170941025
C   C36       1.0  0.73880  0.75019  0.47470  1.0000 0.0880911897
C   C37       1.0  0.92360  0.68444  0.58100  1.0000 0.0708802504
C   C38       1.0  0.03160  0.72417  0.64970  1.0000 -0.1433988561
C   C39       1.0  0.98840  0.77987  0.62880  1.0000 0.061073764
C   C40       1.0  0.10650  0.82202  0.70060  1.0000 0.2300877895
C   C41       1.0  0.21770  0.89610  0.80260  1.0000 0.2300877895
C   C42       1.0  0.24020  0.94959  0.86400  1.0000 0.0534136619
C   C43       1.0  0.30800  0.99446  0.83770  1.0000 -0.170941025
C   C44       1.0  0.33270  0.04289  0.90020  1.0000 0.0880911897
C   C45       1.0  0.22750  0.00487  0.00840  1.0000 0.0708802504
C   C46       1.0  0.19860  0.95482  0.95090  1.0000 -0.170941025
C   C47       1.0  0.91650  0.89410  0.71470  1.0000 0.1041863362
C   C48       1.0  0.83530  0.87206  0.76890  1.0000 -0.0176062698
C   C49       1.0  0.63110  0.93521  0.68030  1.0000 0.0708802504
C   C50       1.0  0.70730  0.95961  0.62490  1.0000 -0.0878629938
C   C51       1.0  0.85450  0.93893  0.64250  1.0000 -0.1107906208
C   C52       1.0  0.16120  0.29290  0.96090  1.0000 -0.170941025
C   C53       1.0  0.26120  0.25019  0.02530  1.0000 0.0880911897
C   C54       1.0  0.07640  0.18444  0.91900  1.0000 0.0708802504
C   C55       1.0  0.96840  0.22417  0.85030  1.0000 -0.1433988561
C   C56       1.0  0.01160  0.27987  0.87120  1.0000 0.061073764
C   C57       1.0  0.89350  0.32202  0.79940  1.0000 0.2300877895
C   C58       1.0  0.78230  0.39610  0.69740  1.0000 0.2300877895
C   C59       1.0  0.75980  0.44959  0.63600  1.0000 0.0534136619
C   C60       1.0  0.69200  0.49446  0.66230  1.0000 -0.170941025
C   C61       1.0  0.66730  0.54289  0.59980  1.0000 0.0880911897
C   C62       1.0  0.77250  0.50487  0.49160  1.0000 0.0708802504
C   C63       1.0  0.80140  0.45482  0.54910  1.0000 -0.170941025
C   C64       1.0  0.08350  0.39410  0.78530  1.0000 0.1041863362
C   C65       1.0  0.16470  0.37206  0.73110  1.0000 -0.0176062698
C   C66       1.0  0.36890  0.43521  0.81970  1.0000 0.0708802504
C   C67       1.0  0.29270  0.45961  0.87510  1.0000 -0.0878629938
C   C68       1.0  0.14550  0.43893  0.85750  1.0000 -0.1107906208
N   N1        1.0  0.22270  0.30356  0.50590  1.0000 -0.2033792932
N   N2        1.0  0.73750  0.18304  0.26010  1.0000 -0.2079439995
N   N3        1.0  0.66690  0.13581  0.19500  1.0000 -0.1795889486
N   N4        1.0  0.92820  0.12870  0.26210  1.0000 -0.0878629938
N   N5        1.0  0.70660  0.95107  0.01580  1.0000 -0.2033792932
N   N6        1.0  0.30760  0.10758  0.24790  1.0000 -0.1600837757
N   N7        1.0  0.77730  0.80356  0.99410  1.0000 -0.2033792932
N   N8        1.0  0.26250  0.68304  0.23990  1.0000 -0.2079439995
N   N9        1.0  0.33310  0.63581  0.30500  1.0000 -0.1795889486
N   N10       1.0  0.07180  0.62870  0.23790  1.0000 -0.0878629938
N   N11       1.0  0.29340  0.45107  0.48420  1.0000 -0.2033792932
N   N12       1.0  0.69240  0.60758  0.25210  1.0000 -0.1600837757
N   N13       1.0  0.77730  0.69644  0.49410  1.0000 -0.2033792932
N   N14       1.0  0.26250  0.81696  0.73990  1.0000 -0.2079439995
N   N15       1.0  0.33310  0.86419  0.80500  1.0000 -0.1795889486
N   N16       1.0  0.07180  0.87130  0.73790  1.0000 -0.0878629938
N   N17       1.0  0.29340  0.04893  0.98420  1.0000 -0.2033792932
N   N18       1.0  0.69240  0.89242  0.75210  1.0000 -0.1600837757
N   N19       1.0  0.22270  0.19644  0.00590  1.0000 -0.2033792932
N   N20       1.0  0.73750  0.31696  0.76010  1.0000 -0.2079439995
N   N21       1.0  0.66690  0.36419  0.69500  1.0000 -0.1795889486
N   N22       1.0  0.92820  0.37130  0.76210  1.0000 -0.0878629938
N   N23       1.0  0.70660  0.54893  0.51580  1.0000 -0.2033792932
N   N24       1.0  0.30760  0.39242  0.74790  1.0000 -0.1600837757
F   F1        1.0  0.75120  0.39707  0.28000  1.0000 -0.4017743915
F   F2        1.0  0.57220  0.37089  0.33130  1.0000 -0.3813367535
F   F3        1.0  0.38200  0.37732  0.15840  1.0000 -0.4017743915
F   F4        1.0  0.56370  0.40700  0.10570  1.0000 -0.4017743915
F   F5        1.0  0.59340  0.32552  0.19170  1.0000 -0.4102874745
F   F6        1.0  0.53900  0.44887  0.24500  1.0000 -0.4102874745
F   F7        1.0  0.24880  0.89707  0.22000  1.0000 -0.4017743915
F   F8        1.0  0.42780  0.87089  0.16870  1.0000 -0.3813367535
F   F9        1.0  0.61800  0.87732  0.34160  1.0000 -0.4017743915
F   F10       1.0  0.43630  0.90700  0.39430  1.0000 -0.4017743915
F   F11       1.0  0.40660  0.82552  0.30830  1.0000 -0.4102874745
F   F12       1.0  0.46100  0.94887  0.25500  1.0000 -0.4102874745
F   F13       1.0  0.24880  0.60293  0.72000  1.0000 -0.4017743915
F   F14       1.0  0.42780  0.62911  0.66870  1.0000 -0.3813367535
F   F15       1.0  0.61800  0.62268  0.84160  1.0000 -0.4017743915
F   F16       1.0  0.43630  0.59300  0.89430  1.0000 -0.4017743915
F   F17       1.0  0.40660  0.67448  0.80830  1.0000 -0.4102874745
F   F18       1.0  0.46100  0.55113  0.75500  1.0000 -0.4102874745
F   F19       1.0  0.75120  0.10293  0.78000  1.0000 -0.4017743915
F   F20       1.0  0.57220  0.12911  0.83130  1.0000 -0.3813367535
F   F21       1.0  0.38200  0.12268  0.65840  1.0000 -0.4017743915
F   F22       1.0  0.56370  0.09300  0.60570  1.0000 -0.4017743915
F   F23       1.0  0.59340  0.17448  0.69170  1.0000 -0.4102874745
F   F24       1.0  0.53900  0.05113  0.74500  1.0000 -0.4102874745
