# DDEC6 charges by PACMAN v1.1 (https://github.com/mtap-research/PACMAN-charge/)
data_2020[Cd][hcb]2[ION]1
_chemical_formula_sum              "Cd4 H40 C44 I12 N4 O28"
_cell_length_a       9.9134
_cell_length_b       15.6147
_cell_length_c       15.7186
_cell_angle_alpha    90
_cell_angle_beta     104.067
_cell_angle_gamma    90

_symmetry_space_group_name_H-M    "P 1"
_symmetry_Int_Tables_number       1

loop_
  _symmetry_equiv_pos_as_xyz
  'x, y, z'

loop_
  _atom_site_type_symbol
  _atom_site_label
  _atom_site_symmetry_multiplicity
  _atom_site_fract_x
  _atom_site_fract_y
  _atom_site_fract_z
  _atom_site_occupancy
  _atom_site_charge
Cd  Cd1       1.0  0.21494  0.93339  0.15247  1.0000 0.9934491853
Cd  Cd2       1.0  0.78506  0.43339  0.34753  1.0000 0.9934491853
Cd  Cd3       1.0  0.78506  0.06661  0.84753  1.0000 0.9934491853
Cd  Cd4       1.0  0.21494  0.56661  0.65247  1.0000 0.9934491853
H   H1        1.0  0.11600  0.92100  0.97000  1.0000 0.4050069939
H   H2        1.0  0.16000  0.83940  0.01400  1.0000 0.3877494003
H   H3        1.0  0.88400  0.42100  0.53000  1.0000 0.4050069939
H   H4        1.0  0.84000  0.33940  0.48600  1.0000 0.3877494003
H   H5        1.0  0.88400  0.07900  0.03000  1.0000 0.4050069939
H   H6        1.0  0.84000  0.16060  0.98600  1.0000 0.3877494003
H   H7        1.0  0.11600  0.57900  0.47000  1.0000 0.4050069939
H   H8        1.0  0.16000  0.66060  0.51400  1.0000 0.3877494003
H   H9        1.0  0.38120  0.70710  0.46970  1.0000 0.1161065477
H   H10       1.0  0.43480  0.66850  0.39190  1.0000 0.1307105388
H   H11       1.0  0.27600  0.68780  0.37980  1.0000 0.1161065477
H   H12       1.0  0.31820  0.91320  0.37650  1.0000 0.1307105388
H   H13       1.0  0.31290  0.86210  0.46150  1.0000 0.1140002723
H   H14       1.0  0.20290  0.84370  0.37330  1.0000 0.1395648796
H   H15       1.0  0.47820  0.80910  0.40000  1.0000 0.2490402649
H   H16       1.0  0.37670  0.79230  0.31810  1.0000 0.2643279995
H   H17       1.0  0.61880  0.20710  0.03030  1.0000 0.1161065477
H   H18       1.0  0.56520  0.16850  0.10810  1.0000 0.1307105388
H   H19       1.0  0.72400  0.18780  0.12020  1.0000 0.1161065477
H   H20       1.0  0.68180  0.41320  0.12350  1.0000 0.1307105388
H   H21       1.0  0.68710  0.36210  0.03850  1.0000 0.1140002723
H   H22       1.0  0.79710  0.34370  0.12670  1.0000 0.1395648796
H   H23       1.0  0.52180  0.30910  0.10000  1.0000 0.2490402649
H   H24       1.0  0.62330  0.29230  0.18190  1.0000 0.2643279995
H   H25       1.0  0.61880  0.29290  0.53030  1.0000 0.1161065477
H   H26       1.0  0.56520  0.33150  0.60810  1.0000 0.1307105388
H   H27       1.0  0.72400  0.31220  0.62020  1.0000 0.1161065477
H   H28       1.0  0.68180  0.08680  0.62350  1.0000 0.1307105388
H   H29       1.0  0.68710  0.13790  0.53850  1.0000 0.1140002723
H   H30       1.0  0.79710  0.15630  0.62670  1.0000 0.1395648796
H   H31       1.0  0.52180  0.19090  0.60000  1.0000 0.2490402649
H   H32       1.0  0.62330  0.20770  0.68190  1.0000 0.2643279995
H   H33       1.0  0.38120  0.79290  0.96970  1.0000 0.1161065477
H   H34       1.0  0.43480  0.83150  0.89190  1.0000 0.1307105388
H   H35       1.0  0.27600  0.81220  0.87980  1.0000 0.1161065477
H   H36       1.0  0.31820  0.58680  0.87650  1.0000 0.1307105388
H   H37       1.0  0.31290  0.63790  0.96150  1.0000 0.1140002723
H   H38       1.0  0.20290  0.65630  0.87330  1.0000 0.1395648796
H   H39       1.0  0.47820  0.69090  0.90000  1.0000 0.2490402649
H   H40       1.0  0.37670  0.70770  0.81810  1.0000 0.2643279995
C   C1        1.0  0.98740  0.00060  0.19450  1.0000 0.5503335487
C   C2        1.0  0.86520  0.03670  0.22510  1.0000 -0.0673612586
C   C3        1.0  0.73400  0.99740  0.20530  1.0000 0.022231303
C   C4        1.0  0.62450  0.02950  0.23790  1.0000 -0.0673612586
C   C5        1.0  0.64800  0.10260  0.29010  1.0000 0.0266628879
C   C6        1.0  0.77490  0.14520  0.30920  1.0000 -0.0798950006
C   C7        1.0  0.88280  0.11070  0.27620  1.0000 0.0100069741
C   C8        1.0  0.79410  0.22970  0.35870  1.0000 0.5702724348
C   C9        1.0  0.48070  0.98870  0.21510  1.0000 0.5503335487
C   C10       1.0  0.01260  0.50060  0.30550  1.0000 0.5503335487
C   C11       1.0  0.13480  0.53670  0.27490  1.0000 -0.0673612586
C   C12       1.0  0.26600  0.49740  0.29470  1.0000 0.022231303
C   C13       1.0  0.37550  0.52950  0.26210  1.0000 -0.0673612586
C   C14       1.0  0.35200  0.60260  0.20990  1.0000 0.0266628879
C   C15       1.0  0.22510  0.64520  0.19080  1.0000 -0.0798950006
C   C16       1.0  0.11720  0.61070  0.22380  1.0000 0.0100069741
C   C17       1.0  0.20590  0.72970  0.14130  1.0000 0.5702724348
C   C18       1.0  0.51930  0.48870  0.28490  1.0000 0.5503335487
C   C19       1.0  0.01260  0.99940  0.80550  1.0000 0.5503335487
C   C20       1.0  0.13480  0.96330  0.77490  1.0000 -0.0673612586
C   C21       1.0  0.26600  0.00260  0.79470  1.0000 0.022231303
C   C22       1.0  0.37550  0.97050  0.76210  1.0000 -0.0673612586
C   C23       1.0  0.35200  0.89740  0.70990  1.0000 0.0266628879
C   C24       1.0  0.22510  0.85480  0.69080  1.0000 -0.0798950006
C   C25       1.0  0.11720  0.88930  0.72380  1.0000 0.0100069741
C   C26       1.0  0.20590  0.77030  0.64130  1.0000 0.5702724348
C   C27       1.0  0.51930  0.01130  0.78490  1.0000 0.5503335487
C   C28       1.0  0.98740  0.49940  0.69450  1.0000 0.5503335487
C   C29       1.0  0.86520  0.46330  0.72510  1.0000 -0.0673612586
C   C30       1.0  0.73400  0.50260  0.70530  1.0000 0.022231303
C   C31       1.0  0.62450  0.47050  0.73790  1.0000 -0.0673612586
C   C32       1.0  0.64800  0.39740  0.79010  1.0000 0.0266628879
C   C33       1.0  0.77490  0.35480  0.80920  1.0000 -0.0798950006
C   C34       1.0  0.88280  0.38930  0.77620  1.0000 0.0100069741
C   C35       1.0  0.79410  0.27030  0.85870  1.0000 0.5702724348
C   C36       1.0  0.48070  0.51130  0.71510  1.0000 0.5503335487
C   C37       1.0  0.36850  0.70670  0.40720  1.0000 -0.2939031605
C   C38       1.0  0.29800  0.85870  0.39890  1.0000 -0.2675432969
C   C39       1.0  0.63150  0.20670  0.09280  1.0000 -0.2939031605
C   C40       1.0  0.70200  0.35870  0.10110  1.0000 -0.2675432969
C   C41       1.0  0.63150  0.29330  0.59280  1.0000 -0.2939031605
C   C42       1.0  0.70200  0.14130  0.60110  1.0000 -0.2675432969
C   C43       1.0  0.36850  0.79330  0.90720  1.0000 -0.2939031605
C   C44       1.0  0.29800  0.64130  0.89890  1.0000 -0.2675432969
I   I1        1.0  0.69872  0.88940  0.12202  1.0000 0.0046168688
I   I2        1.0  0.07308  0.17707  0.30282  1.0000 0.0100069741
I   I3        1.0  0.48741  0.15128  0.34323  1.0000 -0.0223085072
I   I4        1.0  0.30128  0.38940  0.37798  1.0000 0.0046168688
I   I5        1.0  0.92692  0.67707  0.19718  1.0000 0.0100069741
I   I6        1.0  0.51259  0.65128  0.15677  1.0000 -0.0223085072
I   I7        1.0  0.30128  0.11060  0.87798  1.0000 0.0046168688
I   I8        1.0  0.92692  0.82293  0.69718  1.0000 0.0100069741
I   I9        1.0  0.51259  0.84872  0.65677  1.0000 -0.0223085072
I   I10       1.0  0.69872  0.61060  0.62202  1.0000 0.0046168688
I   I11       1.0  0.07308  0.32293  0.80282  1.0000 0.0046168688
I   I12       1.0  0.48741  0.34872  0.84323  1.0000 -0.0223085072
N   N1        1.0  0.38940  0.79350  0.37680  1.0000 -0.1176009008
N   N2        1.0  0.61060  0.29350  0.12320  1.0000 -0.1176009008
N   N3        1.0  0.61060  0.20650  0.62320  1.0000 -0.1176009008
N   N4        1.0  0.38940  0.70650  0.87680  1.0000 -0.1176009008
O   O1        1.0  0.16800  0.89370  0.01240  1.0000 -0.6921753396
O   O2        1.0  0.06740  0.95100  0.24530  1.0000 -0.5097436905
O   O3        1.0  0.00750  0.02260  0.12200  1.0000 -0.5490438898
O   O4        1.0  0.45590  0.92980  0.26210  1.0000 -0.5396340151
O   O5        1.0  0.39460  0.01880  0.15120  1.0000 -0.5097436905
O   O6        1.0  0.75990  0.29434  0.30977  1.0000 -0.5656726469
O   O7        1.0  0.83960  0.22850  0.43915  1.0000 -0.5097436905
O   O8        1.0  0.83200  0.39370  0.48760  1.0000 -0.6921753396
O   O9        1.0  0.93260  0.45100  0.25470  1.0000 -0.5097436905
O   O10       1.0  0.99250  0.52260  0.37800  1.0000 -0.5490438898
O   O11       1.0  0.54410  0.42980  0.23790  1.0000 -0.5396340151
O   O12       1.0  0.60540  0.51880  0.34880  1.0000 -0.5097436905
O   O13       1.0  0.24010  0.79434  0.19023  1.0000 -0.5649136414
O   O14       1.0  0.16040  0.72850  0.06085  1.0000 -0.5039010455
O   O15       1.0  0.83200  0.10630  0.98760  1.0000 -0.6921753396
O   O16       1.0  0.93260  0.04900  0.75470  1.0000 -0.5097436905
O   O17       1.0  0.99250  0.97740  0.87800  1.0000 -0.5490438898
O   O18       1.0  0.54410  0.07020  0.73790  1.0000 -0.5396340151
O   O19       1.0  0.60540  0.98120  0.84880  1.0000 -0.5097436905
O   O20       1.0  0.24010  0.70566  0.69023  1.0000 -0.5656726469
O   O21       1.0  0.16040  0.77150  0.56085  1.0000 -0.5097436905
O   O22       1.0  0.16800  0.60630  0.51240  1.0000 -0.6921753396
O   O23       1.0  0.06740  0.54900  0.74530  1.0000 -0.5097436905
O   O24       1.0  0.00750  0.47740  0.62200  1.0000 -0.5490438898
O   O25       1.0  0.45590  0.57020  0.76210  1.0000 -0.5396340151
O   O26       1.0  0.39460  0.48120  0.65120  1.0000 -0.5097436905
O   O27       1.0  0.75990  0.20566  0.80977  1.0000 -0.5649136414
O   O28       1.0  0.83960  0.27150  0.93915  1.0000 -0.5097436905
