# DDEC6 charges by PACMAN v1.1 (https://github.com/mtap-research/PACMAN-charge/)
data_2020[Zn][dia]3[ION]1
_chemical_formula_sum              "Zn4 H100 C136 N4 O32"
_cell_length_a       9.486
_cell_length_b       22.084
_cell_length_c       18.6975
_cell_angle_alpha    90
_cell_angle_beta     118.756
_cell_angle_gamma    90

_symmetry_space_group_name_H-M    "P 1"
_symmetry_Int_Tables_number       1

loop_
  _symmetry_equiv_pos_as_xyz
  'x, y, z'

loop_
  _atom_site_type_symbol
  _atom_site_label
  _atom_site_symmetry_multiplicity
  _atom_site_fract_x
  _atom_site_fract_y
  _atom_site_fract_z
  _atom_site_occupancy
  _atom_site_charge
Zn  Zn1       1.0  0.49936  0.38534  0.24894  1.0000 0.8914507079
Zn  Zn2       1.0  0.50064  0.88534  0.25106  1.0000 0.8914507079
Zn  Zn3       1.0  0.50064  0.61466  0.75106  1.0000 0.8914507079
Zn  Zn4       1.0  0.49936  0.11466  0.74894  1.0000 0.8914507079
H   H1        1.0  0.24365  0.38128  0.01078  1.0000 0.1196152117
H   H2        1.0  0.12225  0.33647  0.88420  1.0000 0.1088160696
H   H3        1.0  0.87354  0.37290  0.78015  1.0000 0.1088160696
H   H4        1.0  0.75237  0.45597  0.80175  1.0000 0.1196152117
H   H5        1.0  0.73892  0.38575  0.48142  1.0000 0.1196152117
H   H6        1.0  0.85569  0.33531  0.60433  1.0000 0.1088160696
H   H7        1.0  0.11065  0.36507  0.71080  1.0000 0.1088160696
H   H8        1.0  0.24423  0.44598  0.69262  1.0000 0.1196152117
H   H9        1.0  0.23620  0.29200  0.22420  1.0000 0.3858371126
H   H10       1.0  0.40671  0.39342  0.42760  1.0000 0.1196152117
H   H11       1.0  0.43567  0.44916  0.53804  1.0000 0.1196152117
H   H12       1.0  0.51925  0.40216  0.66557  1.0000 0.1088160696
H   H13       1.0  0.57250  0.29981  0.68228  1.0000 0.1196152117
H   H14       1.0  0.58083  0.09942  0.56112  1.0000 0.1196152117
H   H15       1.0  0.55692  0.04340  0.45196  1.0000 0.1196152117
H   H16       1.0  0.47694  0.09025  0.32477  1.0000 0.1196152117
H   H17       1.0  0.41590  0.19165  0.30633  1.0000 0.1088160696
H   H18       1.0  0.75635  0.88128  0.48922  1.0000 0.1196152117
H   H19       1.0  0.87775  0.83647  0.61580  1.0000 0.1088160696
H   H20       1.0  0.12646  0.87290  0.71985  1.0000 0.1088160696
H   H21       1.0  0.24763  0.95597  0.69825  1.0000 0.1196152117
H   H22       1.0  0.26108  0.88575  0.01858  1.0000 0.1196152117
H   H23       1.0  0.14431  0.83531  0.89567  1.0000 0.1088160696
H   H24       1.0  0.88935  0.86507  0.78920  1.0000 0.1088160696
H   H25       1.0  0.75577  0.94598  0.80738  1.0000 0.1196152117
H   H26       1.0  0.76380  0.79200  0.27580  1.0000 0.3858371126
H   H27       1.0  0.59329  0.89342  0.07240  1.0000 0.1196152117
H   H28       1.0  0.56433  0.94916  0.96196  1.0000 0.1196152117
H   H29       1.0  0.48075  0.90216  0.83443  1.0000 0.1088160696
H   H30       1.0  0.42750  0.79981  0.81772  1.0000 0.1196152117
H   H31       1.0  0.41917  0.59942  0.93888  1.0000 0.1196152117
H   H32       1.0  0.44308  0.54340  0.04804  1.0000 0.1196152117
H   H33       1.0  0.52306  0.59025  0.17523  1.0000 0.1196152117
H   H34       1.0  0.58410  0.69165  0.19367  1.0000 0.1088160696
H   H35       1.0  0.75635  0.61872  0.98922  1.0000 0.1196152117
H   H36       1.0  0.87775  0.66353  0.11580  1.0000 0.1088160696
H   H37       1.0  0.12646  0.62710  0.21985  1.0000 0.1088160696
H   H38       1.0  0.24763  0.54403  0.19825  1.0000 0.1196152117
H   H39       1.0  0.26108  0.61425  0.51858  1.0000 0.1196152117
H   H40       1.0  0.14431  0.66469  0.39567  1.0000 0.1088160696
H   H41       1.0  0.88935  0.63493  0.28920  1.0000 0.1088160696
H   H42       1.0  0.75577  0.55402  0.30738  1.0000 0.1196152117
H   H43       1.0  0.76380  0.70800  0.77580  1.0000 0.3858371126
H   H44       1.0  0.59329  0.60658  0.57240  1.0000 0.1196152117
H   H45       1.0  0.56433  0.55084  0.46196  1.0000 0.1196152117
H   H46       1.0  0.48075  0.59784  0.33443  1.0000 0.1088160696
H   H47       1.0  0.42750  0.70019  0.31772  1.0000 0.1196152117
H   H48       1.0  0.41917  0.90058  0.43888  1.0000 0.1196152117
H   H49       1.0  0.44308  0.95660  0.54804  1.0000 0.1196152117
H   H50       1.0  0.52306  0.90975  0.67523  1.0000 0.1196152117
H   H51       1.0  0.58410  0.80835  0.69367  1.0000 0.1088160696
H   H52       1.0  0.24365  0.11872  0.51078  1.0000 0.1196152117
H   H53       1.0  0.12225  0.16353  0.38420  1.0000 0.1088160696
H   H54       1.0  0.87354  0.12710  0.28015  1.0000 0.1088160696
H   H55       1.0  0.75237  0.04403  0.30175  1.0000 0.1196152117
H   H56       1.0  0.73892  0.11425  0.98142  1.0000 0.1196152117
H   H57       1.0  0.85569  0.16469  0.10433  1.0000 0.1088160696
H   H58       1.0  0.11065  0.13493  0.21080  1.0000 0.1088160696
H   H59       1.0  0.24423  0.05402  0.19262  1.0000 0.1196152117
H   H60       1.0  0.23620  0.20800  0.72420  1.0000 0.3858371126
H   H61       1.0  0.40671  0.10658  0.92760  1.0000 0.1196152117
H   H62       1.0  0.43567  0.05084  0.03804  1.0000 0.1196152117
H   H63       1.0  0.51925  0.09784  0.16557  1.0000 0.1088160696
H   H64       1.0  0.57250  0.20019  0.18228  1.0000 0.1196152117
H   H65       1.0  0.58083  0.40058  0.06112  1.0000 0.1196152117
H   H66       1.0  0.55692  0.45660  0.95196  1.0000 0.1196152117
H   H67       1.0  0.47694  0.40975  0.82477  1.0000 0.1196152117
H   H68       1.0  0.41590  0.30835  0.80633  1.0000 0.1088160696
H   H69       1.0  0.85591  0.05533  0.77707  1.0000 0.2599064158
H   H70       1.0  0.86739  0.09857  0.72039  1.0000 0.2706714021
H   H71       1.0  0.71025  0.01995  0.64944  1.0000 0.1391669186
H   H72       1.0  0.85836  0.97553  0.70083  1.0000 0.1196152117
H   H73       1.0  0.86750  0.02310  0.63863  1.0000 0.1317174022
H   H74       1.0  0.11150  0.09208  0.82971  1.0000 0.1317174022
H   H75       1.0  0.11918  0.06294  0.75330  1.0000 0.1391669186
H   H76       1.0  0.10651  0.02009  0.81900  1.0000 0.1317174022
H   H77       1.0  0.14409  0.55533  0.72293  1.0000 0.2599064158
H   H78       1.0  0.13261  0.59857  0.77961  1.0000 0.2706714021
H   H79       1.0  0.28975  0.51995  0.85056  1.0000 0.1391669186
H   H80       1.0  0.14164  0.47553  0.79917  1.0000 0.1196152117
H   H81       1.0  0.13250  0.52310  0.86137  1.0000 0.1317174022
H   H82       1.0  0.88850  0.59208  0.67029  1.0000 0.1317174022
H   H83       1.0  0.88082  0.56294  0.74670  1.0000 0.1391669186
H   H84       1.0  0.89349  0.52009  0.68100  1.0000 0.1317174022
H   H85       1.0  0.14409  0.94467  0.22293  1.0000 0.2599064158
H   H86       1.0  0.13261  0.90143  0.27961  1.0000 0.2706714021
H   H87       1.0  0.28975  0.98005  0.35056  1.0000 0.1391669186
H   H88       1.0  0.14164  0.02447  0.29917  1.0000 0.1196152117
H   H89       1.0  0.13250  0.97690  0.36137  1.0000 0.1317174022
H   H90       1.0  0.88850  0.90792  0.17029  1.0000 0.1317174022
H   H91       1.0  0.88082  0.93706  0.24670  1.0000 0.1391669186
H   H92       1.0  0.89349  0.97991  0.18100  1.0000 0.1317174022
H   H93       1.0  0.85591  0.44467  0.27707  1.0000 0.2599064158
H   H94       1.0  0.86739  0.40143  0.22039  1.0000 0.2706714021
H   H95       1.0  0.71025  0.48005  0.14944  1.0000 0.1391669186
H   H96       1.0  0.85836  0.52447  0.20083  1.0000 0.1196152117
H   H97       1.0  0.86750  0.47690  0.13863  1.0000 0.1317174022
H   H98       1.0  0.11150  0.40792  0.32971  1.0000 0.1317174022
H   H99       1.0  0.11918  0.43706  0.25330  1.0000 0.1391669186
H   H100      1.0  0.10651  0.47991  0.31900  1.0000 0.1317174022
C   C1        1.0  0.29936  0.45170  0.13056  1.0000 0.556421225
C   C2        1.0  0.14638  0.47766  0.06258  1.0000 -0.0970568413
C   C3        1.0  0.07475  0.44890  0.98595  1.0000 0.0483270083
C   C4        1.0  0.14500  0.39711  0.96910  1.0000 -0.131499415
C   C5        1.0  0.07280  0.37029  0.89450  1.0000 -0.0902968549
C   C6        1.0  0.92360  0.39253  0.83170  1.0000 -0.0970568413
C   C7        1.0  0.85161  0.44152  0.84451  1.0000 -0.1413465748
C   C8        1.0  0.92469  0.47154  0.92239  1.0000 0.0483270083
C   C9        1.0  0.69261  0.46026  0.36751  1.0000 0.556421225
C   C10       1.0  0.84918  0.48193  0.43658  1.0000 -0.1070281456
C   C11       1.0  0.91886  0.44964  0.51056  1.0000 0.0575317676
C   C12       1.0  0.84050  0.39869  0.52380  1.0000 -0.131499415
C   C13       1.0  0.91000  0.36862  0.59640  1.0000 -0.0902968549
C   C14       1.0  0.06320  0.38652  0.66060  1.0000 -0.1070281456
C   C15       1.0  0.14160  0.43456  0.64970  1.0000 -0.1500351502
C   C16       1.0  0.07190  0.46808  0.57480  1.0000 0.0483270083
C   C17       1.0  0.39846  0.30411  0.33716  1.0000 0.583080438
C   C18       1.0  0.44178  0.27412  0.41778  1.0000 -0.1413465748
C   C19       1.0  0.46607  0.30956  0.48537  1.0000 0.0575317676
C   C20       1.0  0.43820  0.37385  0.47830  1.0000 -0.1500351502
C   C21       1.0  0.45650  0.40687  0.54370  1.0000 -0.0715947179
C   C22       1.0  0.50690  0.37851  0.62050  1.0000 -0.0792493724
C   C23       1.0  0.53741  0.31784  0.63031  1.0000 -0.1500351502
C   C24       1.0  0.51708  0.28122  0.56288  1.0000 0.0483270083
C   C25       1.0  0.54538  0.21847  0.57058  1.0000 -0.0902968549
C   C26       1.0  0.52014  0.18294  0.50304  1.0000 0.0483270083
C   C27       1.0  0.55000  0.11886  0.51040  1.0000 -0.131499415
C   C28       1.0  0.53470  0.08559  0.44580  1.0000 -0.0792493724
C   C29       1.0  0.48580  0.11378  0.36930  1.0000 -0.0792493724
C   C30       1.0  0.45110  0.17396  0.35850  1.0000 -0.1694615734
C   C31       1.0  0.46717  0.21119  0.42537  1.0000 0.0483270083
C   C32       1.0  0.60375  0.18758  0.65195  1.0000 0.583080438
C   C33       1.0  0.70064  0.95170  0.36944  1.0000 0.556421225
C   C34       1.0  0.85362  0.97766  0.43742  1.0000 -0.0970568413
C   C35       1.0  0.92525  0.94890  0.51405  1.0000 0.0483270083
C   C36       1.0  0.85500  0.89711  0.53090  1.0000 -0.131499415
C   C37       1.0  0.92720  0.87029  0.60550  1.0000 -0.0902968549
C   C38       1.0  0.07640  0.89253  0.66830  1.0000 -0.0970568413
C   C39       1.0  0.14839  0.94152  0.65549  1.0000 -0.1413465748
C   C40       1.0  0.07531  0.97154  0.57761  1.0000 0.0483270083
C   C41       1.0  0.30739  0.96026  0.13249  1.0000 0.556421225
C   C42       1.0  0.15082  0.98193  0.06342  1.0000 -0.0970568413
C   C43       1.0  0.08114  0.94964  0.98944  1.0000 0.0575317676
C   C44       1.0  0.15950  0.89869  0.97620  1.0000 -0.131499415
C   C45       1.0  0.09000  0.86862  0.90360  1.0000 -0.0902968549
C   C46       1.0  0.93680  0.88652  0.83940  1.0000 -0.1070281456
C   C47       1.0  0.85840  0.93456  0.85030  1.0000 -0.1550673498
C   C48       1.0  0.92810  0.96808  0.92520  1.0000 0.0483270083
C   C49       1.0  0.60154  0.80411  0.16284  1.0000 0.583080438
C   C50       1.0  0.55822  0.77412  0.08222  1.0000 -0.1413465748
C   C51       1.0  0.53393  0.80956  0.01463  1.0000 0.0575317676
C   C52       1.0  0.56180  0.87385  0.02170  1.0000 -0.1500351502
C   C53       1.0  0.54350  0.90687  0.95630  1.0000 -0.0715947179
C   C54       1.0  0.49310  0.87851  0.87950  1.0000 -0.0792493724
C   C55       1.0  0.46259  0.81784  0.86969  1.0000 -0.1500351502
C   C56       1.0  0.48292  0.78122  0.93712  1.0000 0.0483270083
C   C57       1.0  0.45462  0.71847  0.92942  1.0000 -0.0902968549
C   C58       1.0  0.47986  0.68294  0.99696  1.0000 0.0483270083
C   C59       1.0  0.45000  0.61886  0.98960  1.0000 -0.131499415
C   C60       1.0  0.46530  0.58559  0.05420  1.0000 -0.0792493724
C   C61       1.0  0.51420  0.61378  0.13070  1.0000 -0.0792493724
C   C62       1.0  0.54890  0.67396  0.14150  1.0000 -0.1694615734
C   C63       1.0  0.53283  0.71119  0.07463  1.0000 0.0483270083
C   C64       1.0  0.39625  0.68758  0.84805  1.0000 0.583080438
C   C65       1.0  0.70064  0.54830  0.86944  1.0000 0.556421225
C   C66       1.0  0.85362  0.52234  0.93742  1.0000 -0.0970568413
C   C67       1.0  0.92525  0.55110  0.01405  1.0000 0.0483270083
C   C68       1.0  0.85500  0.60289  0.03090  1.0000 -0.131499415
C   C69       1.0  0.92720  0.62971  0.10550  1.0000 -0.0902968549
C   C70       1.0  0.07640  0.60747  0.16830  1.0000 -0.0970568413
C   C71       1.0  0.14839  0.55848  0.15549  1.0000 -0.1413465748
C   C72       1.0  0.07531  0.52846  0.07761  1.0000 0.0483270083
C   C73       1.0  0.30739  0.53974  0.63249  1.0000 0.556421225
C   C74       1.0  0.15082  0.51807  0.56342  1.0000 -0.0970568413
C   C75       1.0  0.08114  0.55036  0.48944  1.0000 0.0575317676
C   C76       1.0  0.15950  0.60131  0.47620  1.0000 -0.131499415
C   C77       1.0  0.09000  0.63138  0.40360  1.0000 -0.0902968549
C   C78       1.0  0.93680  0.61348  0.33940  1.0000 -0.1070281456
C   C79       1.0  0.85840  0.56544  0.35030  1.0000 -0.1500351502
C   C80       1.0  0.92810  0.53192  0.42520  1.0000 0.0483270083
C   C81       1.0  0.60154  0.69589  0.66284  1.0000 0.583080438
C   C82       1.0  0.55822  0.72588  0.58222  1.0000 -0.1413465748
C   C83       1.0  0.53393  0.69044  0.51463  1.0000 0.0575317676
C   C84       1.0  0.56180  0.62615  0.52170  1.0000 -0.1500351502
C   C85       1.0  0.54350  0.59313  0.45630  1.0000 -0.0715947179
C   C86       1.0  0.49310  0.62149  0.37950  1.0000 -0.0792493724
C   C87       1.0  0.46259  0.68216  0.36969  1.0000 -0.1500351502
C   C88       1.0  0.48292  0.71878  0.43712  1.0000 0.0483270083
C   C89       1.0  0.45462  0.78153  0.42942  1.0000 -0.0902968549
C   C90       1.0  0.47986  0.81706  0.49696  1.0000 0.0483270083
C   C91       1.0  0.45000  0.88114  0.48960  1.0000 -0.131499415
C   C92       1.0  0.46530  0.91441  0.55420  1.0000 -0.0792493724
C   C93       1.0  0.51420  0.88622  0.63070  1.0000 -0.0792493724
C   C94       1.0  0.54890  0.82604  0.64150  1.0000 -0.1694615734
C   C95       1.0  0.53283  0.78881  0.57463  1.0000 0.0483270083
C   C96       1.0  0.39625  0.81242  0.34805  1.0000 0.583080438
C   C97       1.0  0.29936  0.04830  0.63056  1.0000 0.556421225
C   C98       1.0  0.14638  0.02234  0.56258  1.0000 -0.0970568413
C   C99       1.0  0.07475  0.05110  0.48595  1.0000 0.0483270083
C   C100      1.0  0.14500  0.10289  0.46910  1.0000 -0.131499415
C   C101      1.0  0.07280  0.12971  0.39450  1.0000 -0.0902968549
C   C102      1.0  0.92360  0.10747  0.33170  1.0000 -0.0970568413
C   C103      1.0  0.85161  0.05848  0.34451  1.0000 -0.1413465748
C   C104      1.0  0.92469  0.02846  0.42239  1.0000 0.0483270083
C   C105      1.0  0.69261  0.03974  0.86751  1.0000 0.556421225
C   C106      1.0  0.84918  0.01807  0.93658  1.0000 -0.1070281456
C   C107      1.0  0.91886  0.05036  0.01056  1.0000 0.0575317676
C   C108      1.0  0.84050  0.10131  0.02380  1.0000 -0.131499415
C   C109      1.0  0.91000  0.13138  0.09640  1.0000 -0.0902968549
C   C110      1.0  0.06320  0.11348  0.16060  1.0000 -0.1070281456
C   C111      1.0  0.14160  0.06544  0.14970  1.0000 -0.1550673498
C   C112      1.0  0.07190  0.03192  0.07480  1.0000 0.0483270083
C   C113      1.0  0.39846  0.19589  0.83716  1.0000 0.583080438
C   C114      1.0  0.44178  0.22588  0.91778  1.0000 -0.1413465748
C   C115      1.0  0.46607  0.19044  0.98537  1.0000 0.0575317676
C   C116      1.0  0.43820  0.12615  0.97830  1.0000 -0.1500351502
C   C117      1.0  0.45650  0.09313  0.04370  1.0000 -0.0715947179
C   C118      1.0  0.50690  0.12149  0.12050  1.0000 -0.0792493724
C   C119      1.0  0.53741  0.18216  0.13031  1.0000 -0.1500351502
C   C120      1.0  0.51708  0.21878  0.06288  1.0000 0.0483270083
C   C121      1.0  0.54538  0.28153  0.07058  1.0000 -0.0902968549
C   C122      1.0  0.52014  0.31706  0.00304  1.0000 0.0483270083
C   C123      1.0  0.55000  0.38114  0.01040  1.0000 -0.131499415
C   C124      1.0  0.53470  0.41441  0.94580  1.0000 -0.0792493724
C   C125      1.0  0.48580  0.38622  0.86930  1.0000 -0.0792493724
C   C126      1.0  0.45110  0.32604  0.85850  1.0000 -0.1694615734
C   C127      1.0  0.46717  0.28881  0.92537  1.0000 0.0483270083
C   C128      1.0  0.60375  0.31242  0.15195  1.0000 0.583080438
C   C129      1.0  0.82770  0.01624  0.67760  1.0000 -0.2997233374
C   C130      1.0  0.07320  0.05890  0.79010  1.0000 -0.293987195
C   C131      1.0  0.17230  0.51624  0.82240  1.0000 -0.2997233374
C   C132      1.0  0.92680  0.55890  0.70990  1.0000 -0.293987195
C   C133      1.0  0.17230  0.98376  0.32240  1.0000 -0.2997233374
C   C134      1.0  0.92680  0.94110  0.20990  1.0000 -0.293987195
C   C135      1.0  0.82770  0.48376  0.17760  1.0000 -0.2997233374
C   C136      1.0  0.07320  0.44110  0.29010  1.0000 -0.293987195
N   N1        1.0  0.89730  0.06101  0.74260  1.0000 -0.0970568413
N   N2        1.0  0.10270  0.56101  0.75740  1.0000 -0.0970568413
N   N3        1.0  0.10270  0.93899  0.25740  1.0000 -0.0970568413
N   N4        1.0  0.89730  0.43899  0.24260  1.0000 -0.0970568413
O   O1        1.0  0.28017  0.41870  0.18177  1.0000 -0.5585965467
O   O2        1.0  0.43134  0.46070  0.13404  1.0000 -0.54076163
O   O3        1.0  0.70844  0.42603  0.31544  1.0000 -0.5539613021
O   O4        1.0  0.56250  0.47263  0.36310  1.0000 -0.5251608444
O   O5        1.0  0.50970  0.33556  0.33860  1.0000 -0.4981380356
O   O6        1.0  0.26912  0.29420  0.27612  1.0000 -0.3667732728
O   O7        1.0  0.49716  0.17596  0.67106  1.0000 -0.5585965467
O   O8        1.0  0.74890  0.17364  0.69070  1.0000 -0.5585965467
O   O9        1.0  0.71983  0.91870  0.31823  1.0000 -0.5585965467
O   O10       1.0  0.56866  0.96070  0.36596  1.0000 -0.54076163
O   O11       1.0  0.29156  0.92603  0.18456  1.0000 -0.5539613021
O   O12       1.0  0.43750  0.97263  0.13690  1.0000 -0.5251608444
O   O13       1.0  0.49030  0.83556  0.16140  1.0000 -0.4981380356
O   O14       1.0  0.73088  0.79420  0.22388  1.0000 -0.3667732728
O   O15       1.0  0.50284  0.67596  0.82894  1.0000 -0.5585965467
O   O16       1.0  0.25110  0.67364  0.80930  1.0000 -0.5585965467
O   O17       1.0  0.71983  0.58130  0.81823  1.0000 -0.5585965467
O   O18       1.0  0.56866  0.53930  0.86596  1.0000 -0.54076163
O   O19       1.0  0.29156  0.57397  0.68456  1.0000 -0.5539613021
O   O20       1.0  0.43750  0.52737  0.63690  1.0000 -0.5251608444
O   O21       1.0  0.49030  0.66444  0.66140  1.0000 -0.4981380356
O   O22       1.0  0.73088  0.70580  0.72388  1.0000 -0.3667732728
O   O23       1.0  0.50284  0.82404  0.32894  1.0000 -0.5585965467
O   O24       1.0  0.25110  0.82636  0.30930  1.0000 -0.5585965467
O   O25       1.0  0.28017  0.08130  0.68177  1.0000 -0.5585965467
O   O26       1.0  0.43134  0.03930  0.63404  1.0000 -0.54076163
O   O27       1.0  0.70844  0.07397  0.81544  1.0000 -0.5539613021
O   O28       1.0  0.56250  0.02737  0.86310  1.0000 -0.5251608444
O   O29       1.0  0.50970  0.16444  0.83860  1.0000 -0.4981380356
O   O30       1.0  0.26912  0.20580  0.77612  1.0000 -0.3667732728
O   O31       1.0  0.49716  0.32404  0.17106  1.0000 -0.5585965467
O   O32       1.0  0.74890  0.32636  0.19070  1.0000 -0.5585965467
