# DDEC6 charges by PACMAN v1.1 (https://github.com/mtap-research/PACMAN-charge/)
data_2020[Mn][hcb]2[ION]1
_chemical_formula_sum              "Mn8 H312 C360 N24 O96"
_cell_length_a       22.3168
_cell_length_b       22.3168
_cell_length_c       22.3168
_cell_angle_alpha    104.017
_cell_angle_beta     104.017
_cell_angle_gamma    104.017

_symmetry_space_group_name_H-M    "P 1"
_symmetry_Int_Tables_number       1

loop_
  _symmetry_equiv_pos_as_xyz
  'x, y, z'

loop_
  _atom_site_type_symbol
  _atom_site_label
  _atom_site_symmetry_multiplicity
  _atom_site_fract_x
  _atom_site_fract_y
  _atom_site_fract_z
  _atom_site_occupancy
  _atom_site_charge
Mn  Mn1       1.0  0.81549  0.29736  0.32241  1.0000 1.0489544423
Mn  Mn2       1.0  0.29736  0.32241  0.81549  1.0000 1.0489544423
Mn  Mn3       1.0  0.32241  0.81549  0.29736  1.0000 1.0489544423
Mn  Mn4       1.0  0.18451  0.70264  0.67759  1.0000 1.0489544423
Mn  Mn5       1.0  0.70264  0.67759  0.18451  1.0000 1.0489544423
Mn  Mn6       1.0  0.67759  0.18451  0.70264  1.0000 1.0489544423
Mn  Mn7       1.0  0.19099  0.19099  0.19099  1.0000 1.060675338
Mn  Mn8       1.0  0.80901  0.80901  0.80901  1.0000 1.060675338
H   H1        1.0  0.74313  0.17146  0.28812  1.0000 0.3524809084
H   H2        1.0  0.80509  0.17907  0.32787  1.0000 0.3569647224
H   H3        1.0  0.77526  0.23803  0.19461  1.0000 0.330403194
H   H4        1.0  0.82401  0.29455  0.20421  1.0000 0.3524809084
H   H5        1.0  0.68905  0.26175  0.27376  1.0000 0.3414190612
H   H6        1.0  0.70505  0.31760  0.32587  1.0000 0.3524809084
H   H7        1.0  0.30062  0.17597  0.17949  1.0000 0.330403194
H   H8        1.0  0.32194  0.23222  0.23092  1.0000 0.2942795606
H   H9        1.0  0.01585  0.60559  0.76174  1.0000 0.1303428512
H   H10       1.0  0.06601  0.71138  0.77250  1.0000 0.1402619681
H   H11       1.0  0.89147  0.72753  0.69602  1.0000 0.1303428512
H   H12       1.0  0.84475  0.62079  0.68606  1.0000 0.1120425668
H   H13       1.0  0.98464  0.93333  0.73362  1.0000 0.1303428512
H   H14       1.0  0.93464  0.82500  0.71408  1.0000 0.1402619681
H   H15       1.0  0.10988  0.80529  0.77907  1.0000 0.1303428512
H   H16       1.0  0.15645  0.91440  0.79970  1.0000 0.1303428512
H   H17       1.0  0.90968  0.41490  0.52866  1.0000 0.1201962868
H   H18       1.0  0.95169  0.48030  0.63597  1.0000 0.1120425668
H   H19       1.0  0.77513  0.49171  0.63220  1.0000 0.1201962868
H   H20       1.0  0.73327  0.42786  0.52431  1.0000 0.1120425668
H   H21       1.0  0.92584  0.51852  0.74003  1.0000 0.1402619681
H   H22       1.0  0.85920  0.53191  0.73486  1.0000 0.1402619681
H   H23       1.0  0.27240  0.08983  0.97420  1.0000 0.1201962868
H   H24       1.0  0.22723  0.04143  0.86292  1.0000 0.1303428512
H   H25       1.0  0.05203  0.04456  0.87484  1.0000 0.1201962868
H   H26       1.0  0.09767  0.09615  0.98560  1.0000 0.1201962868
H   H27       1.0  0.13991  0.01214  0.76471  1.0000 0.1402619681
H   H28       1.0  0.07387  0.02399  0.76714  1.0000 0.1402619681
H   H29       1.0  0.19791  0.35692  0.61572  1.0000 0.1303428512
H   H30       1.0  0.21432  0.40591  0.72304  1.0000 0.1402619681
H   H31       1.0  0.27576  0.57914  0.69810  1.0000 0.1456031403
H   H32       1.0  0.25844  0.52633  0.59093  1.0000 0.1201962868
H   H33       1.0  0.23620  0.50390  0.92293  1.0000 0.1303428512
H   H34       1.0  0.21412  0.45357  0.81485  1.0000 0.1456031403
H   H35       1.0  0.30839  0.62277  0.79919  1.0000 0.1402619681
H   H36       1.0  0.33061  0.66966  0.90842  1.0000 0.1201962868
H   H37       1.0  0.03440  0.22629  0.44183  1.0000 0.1201962868
H   H38       1.0  0.14422  0.28013  0.49374  1.0000 0.1201962868
H   H39       1.0  0.11990  0.44474  0.46779  1.0000 0.1120425668
H   H40       1.0  0.01097  0.39020  0.41289  1.0000 0.1201962868
H   H41       1.0  0.23067  0.43534  0.50327  1.0000 0.1201962868
H   H42       1.0  0.23863  0.37260  0.51964  1.0000 0.1303428512
H   H43       1.0  0.49387  0.59839  0.09013  1.0000 0.1201962868
H   H44       1.0  0.38294  0.56139  0.03833  1.0000 0.1201962868
H   H45       1.0  0.38796  0.74089  0.03592  1.0000 0.1303428512
H   H46       1.0  0.49969  0.77776  0.08564  1.0000 0.1201962868
H   H47       1.0  0.28435  0.65875  0.00357  1.0000 0.1402619681
H   H48       1.0  0.28096  0.59160  0.01525  1.0000 0.1303428512
H   H49       1.0  0.17146  0.28812  0.74313  1.0000 0.3524809084
H   H50       1.0  0.17907  0.32787  0.80509  1.0000 0.3569647224
H   H51       1.0  0.23803  0.19461  0.77526  1.0000 0.330403194
H   H52       1.0  0.29455  0.20421  0.82401  1.0000 0.3524809084
H   H53       1.0  0.26175  0.27376  0.68905  1.0000 0.3414190612
H   H54       1.0  0.31760  0.32587  0.70505  1.0000 0.3524809084
H   H55       1.0  0.17597  0.17949  0.30062  1.0000 0.330403194
H   H56       1.0  0.23222  0.23092  0.32194  1.0000 0.2942795606
H   H57       1.0  0.60559  0.76174  0.01585  1.0000 0.1303428512
H   H58       1.0  0.71138  0.77250  0.06601  1.0000 0.1402619681
H   H59       1.0  0.72753  0.69602  0.89147  1.0000 0.1303428512
H   H60       1.0  0.62079  0.68606  0.84475  1.0000 0.1120425668
H   H61       1.0  0.93333  0.73362  0.98464  1.0000 0.1303428512
H   H62       1.0  0.82500  0.71408  0.93464  1.0000 0.1402619681
H   H63       1.0  0.80529  0.77907  0.10988  1.0000 0.1303428512
H   H64       1.0  0.91440  0.79970  0.15645  1.0000 0.1303428512
H   H65       1.0  0.41490  0.52866  0.90968  1.0000 0.1201962868
H   H66       1.0  0.48030  0.63597  0.95169  1.0000 0.1120425668
H   H67       1.0  0.49171  0.63220  0.77513  1.0000 0.1201962868
H   H68       1.0  0.42786  0.52431  0.73327  1.0000 0.1120425668
H   H69       1.0  0.51852  0.74003  0.92584  1.0000 0.1402619681
H   H70       1.0  0.53191  0.73486  0.85920  1.0000 0.1402619681
H   H71       1.0  0.08983  0.97420  0.27240  1.0000 0.1201962868
H   H72       1.0  0.04143  0.86292  0.22723  1.0000 0.1303428512
H   H73       1.0  0.04456  0.87484  0.05203  1.0000 0.1201962868
H   H74       1.0  0.09615  0.98560  0.09767  1.0000 0.1201962868
H   H75       1.0  0.01214  0.76471  0.13991  1.0000 0.1402619681
H   H76       1.0  0.02399  0.76714  0.07387  1.0000 0.1402619681
H   H77       1.0  0.35692  0.61572  0.19791  1.0000 0.1303428512
H   H78       1.0  0.40591  0.72304  0.21432  1.0000 0.1402619681
H   H79       1.0  0.57914  0.69810  0.27576  1.0000 0.1456031403
H   H80       1.0  0.52633  0.59093  0.25844  1.0000 0.1201962868
H   H81       1.0  0.50390  0.92293  0.23620  1.0000 0.1303428512
H   H82       1.0  0.45357  0.81485  0.21412  1.0000 0.1456031403
H   H83       1.0  0.62277  0.79919  0.30839  1.0000 0.1402619681
H   H84       1.0  0.66966  0.90842  0.33061  1.0000 0.1201962868
H   H85       1.0  0.22629  0.44183  0.03440  1.0000 0.1201962868
H   H86       1.0  0.28013  0.49374  0.14422  1.0000 0.1201962868
H   H87       1.0  0.44474  0.46779  0.11990  1.0000 0.1120425668
H   H88       1.0  0.39020  0.41289  0.01097  1.0000 0.1201962868
H   H89       1.0  0.43534  0.50327  0.23067  1.0000 0.1201962868
H   H90       1.0  0.37260  0.51964  0.23863  1.0000 0.1303428512
H   H91       1.0  0.59839  0.09013  0.49387  1.0000 0.1201962868
H   H92       1.0  0.56139  0.03833  0.38294  1.0000 0.1201962868
H   H93       1.0  0.74089  0.03592  0.38796  1.0000 0.1303428512
H   H94       1.0  0.77776  0.08564  0.49969  1.0000 0.1201962868
H   H95       1.0  0.65875  0.00357  0.28435  1.0000 0.1402619681
H   H96       1.0  0.59160  0.01525  0.28096  1.0000 0.1303428512
H   H97       1.0  0.28812  0.74313  0.17146  1.0000 0.3524809084
H   H98       1.0  0.32787  0.80509  0.17907  1.0000 0.3569647224
H   H99       1.0  0.19461  0.77526  0.23803  1.0000 0.330403194
H   H100      1.0  0.20421  0.82401  0.29455  1.0000 0.3524809084
H   H101      1.0  0.27376  0.68905  0.26175  1.0000 0.3414190612
H   H102      1.0  0.32587  0.70505  0.31760  1.0000 0.3524809084
H   H103      1.0  0.17949  0.30062  0.17597  1.0000 0.330403194
H   H104      1.0  0.23092  0.32194  0.23222  1.0000 0.2942795606
H   H105      1.0  0.76174  0.01585  0.60559  1.0000 0.1303428512
H   H106      1.0  0.77250  0.06601  0.71138  1.0000 0.1402619681
H   H107      1.0  0.69602  0.89147  0.72753  1.0000 0.1303428512
H   H108      1.0  0.68606  0.84475  0.62079  1.0000 0.1120425668
H   H109      1.0  0.73362  0.98464  0.93333  1.0000 0.1303428512
H   H110      1.0  0.71408  0.93464  0.82500  1.0000 0.1402619681
H   H111      1.0  0.77907  0.10988  0.80529  1.0000 0.1303428512
H   H112      1.0  0.79970  0.15645  0.91440  1.0000 0.1303428512
H   H113      1.0  0.52866  0.90968  0.41490  1.0000 0.1201962868
H   H114      1.0  0.63597  0.95169  0.48030  1.0000 0.1120425668
H   H115      1.0  0.63220  0.77513  0.49171  1.0000 0.1201962868
H   H116      1.0  0.52431  0.73327  0.42786  1.0000 0.1201962868
H   H117      1.0  0.74003  0.92584  0.51852  1.0000 0.1402619681
H   H118      1.0  0.73486  0.85920  0.53191  1.0000 0.1402619681
H   H119      1.0  0.97420  0.27240  0.08983  1.0000 0.1201962868
H   H120      1.0  0.86292  0.22723  0.04143  1.0000 0.1303428512
H   H121      1.0  0.87484  0.05203  0.04456  1.0000 0.1201962868
H   H122      1.0  0.98560  0.09767  0.09615  1.0000 0.1201962868
H   H123      1.0  0.76471  0.13991  0.01214  1.0000 0.1402619681
H   H124      1.0  0.76714  0.07387  0.02399  1.0000 0.1402619681
H   H125      1.0  0.61572  0.19791  0.35692  1.0000 0.1303428512
H   H126      1.0  0.72304  0.21432  0.40591  1.0000 0.1402619681
H   H127      1.0  0.69810  0.27576  0.57914  1.0000 0.1456031403
H   H128      1.0  0.59093  0.25844  0.52633  1.0000 0.1201962868
H   H129      1.0  0.92293  0.23620  0.50390  1.0000 0.1303428512
H   H130      1.0  0.81485  0.21412  0.45357  1.0000 0.1456031403
H   H131      1.0  0.79919  0.30839  0.62277  1.0000 0.1402619681
H   H132      1.0  0.90842  0.33061  0.66966  1.0000 0.1201962868
H   H133      1.0  0.44183  0.03440  0.22629  1.0000 0.1201962868
H   H134      1.0  0.49374  0.14422  0.28013  1.0000 0.1201962868
H   H135      1.0  0.46779  0.11990  0.44474  1.0000 0.1120425668
H   H136      1.0  0.41289  0.01097  0.39020  1.0000 0.1201962868
H   H137      1.0  0.50327  0.23067  0.43534  1.0000 0.1201962868
H   H138      1.0  0.51964  0.23863  0.37260  1.0000 0.1303428512
H   H139      1.0  0.09013  0.49387  0.59839  1.0000 0.1201962868
H   H140      1.0  0.03833  0.38294  0.56139  1.0000 0.1201962868
H   H141      1.0  0.03592  0.38796  0.74089  1.0000 0.1303428512
H   H142      1.0  0.08564  0.49969  0.77776  1.0000 0.1201962868
H   H143      1.0  0.00357  0.28435  0.65875  1.0000 0.1402619681
H   H144      1.0  0.01525  0.28096  0.59160  1.0000 0.1303428512
H   H145      1.0  0.25687  0.82854  0.71188  1.0000 0.3524809084
H   H146      1.0  0.19491  0.82093  0.67213  1.0000 0.3569647224
H   H147      1.0  0.22474  0.76197  0.80539  1.0000 0.330403194
H   H148      1.0  0.17599  0.70545  0.79579  1.0000 0.3524809084
H   H149      1.0  0.31095  0.73825  0.72624  1.0000 0.3414190612
H   H150      1.0  0.29495  0.68240  0.67413  1.0000 0.3524809084
H   H151      1.0  0.69938  0.82403  0.82051  1.0000 0.330403194
H   H152      1.0  0.67806  0.76778  0.76908  1.0000 0.2942795606
H   H153      1.0  0.98415  0.39441  0.23826  1.0000 0.1303428512
H   H154      1.0  0.93399  0.28862  0.22750  1.0000 0.1402619681
H   H155      1.0  0.10853  0.27247  0.30398  1.0000 0.1303428512
H   H156      1.0  0.15525  0.37921  0.31394  1.0000 0.1120425668
H   H157      1.0  0.01536  0.06667  0.26638  1.0000 0.1303428512
H   H158      1.0  0.06536  0.17500  0.28592  1.0000 0.1402619681
H   H159      1.0  0.89012  0.19471  0.22093  1.0000 0.1303428512
H   H160      1.0  0.84355  0.08560  0.20030  1.0000 0.1303428512
H   H161      1.0  0.09032  0.58510  0.47134  1.0000 0.1201962868
H   H162      1.0  0.04831  0.51970  0.36403  1.0000 0.1120425668
H   H163      1.0  0.22487  0.50829  0.36780  1.0000 0.1201962868
H   H164      1.0  0.26673  0.57214  0.47569  1.0000 0.1201962868
H   H165      1.0  0.07416  0.48148  0.25997  1.0000 0.1402619681
H   H166      1.0  0.14080  0.46809  0.26514  1.0000 0.1402619681
H   H167      1.0  0.72760  0.91017  0.02580  1.0000 0.1201962868
H   H168      1.0  0.77277  0.95857  0.13708  1.0000 0.1303428512
H   H169      1.0  0.94797  0.95544  0.12516  1.0000 0.1201962868
H   H170      1.0  0.90233  0.90385  0.01440  1.0000 0.1201962868
H   H171      1.0  0.86009  0.98786  0.23529  1.0000 0.1402619681
H   H172      1.0  0.92613  0.97601  0.23286  1.0000 0.1402619681
H   H173      1.0  0.80209  0.64308  0.38428  1.0000 0.1303428512
H   H174      1.0  0.78568  0.59409  0.27696  1.0000 0.1402619681
H   H175      1.0  0.72424  0.42086  0.30190  1.0000 0.1456031403
H   H176      1.0  0.74156  0.47367  0.40907  1.0000 0.1201962868
H   H177      1.0  0.76380  0.49610  0.07707  1.0000 0.1303428512
H   H178      1.0  0.78588  0.54643  0.18515  1.0000 0.1456031403
H   H179      1.0  0.69161  0.37723  0.20081  1.0000 0.1402619681
H   H180      1.0  0.66939  0.33034  0.09158  1.0000 0.1201962868
H   H181      1.0  0.96560  0.77371  0.55817  1.0000 0.1201962868
H   H182      1.0  0.85578  0.71987  0.50626  1.0000 0.1201962868
H   H183      1.0  0.88010  0.55526  0.53221  1.0000 0.1120425668
H   H184      1.0  0.98903  0.60980  0.58711  1.0000 0.1201962868
H   H185      1.0  0.76933  0.56466  0.49673  1.0000 0.1201962868
H   H186      1.0  0.76137  0.62740  0.48036  1.0000 0.1303428512
H   H187      1.0  0.50613  0.40161  0.90987  1.0000 0.1201962868
H   H188      1.0  0.61706  0.43861  0.96167  1.0000 0.1201962868
H   H189      1.0  0.61204  0.25911  0.96408  1.0000 0.1303428512
H   H190      1.0  0.50031  0.22224  0.91436  1.0000 0.1201962868
H   H191      1.0  0.71565  0.34125  0.99643  1.0000 0.1402619681
H   H192      1.0  0.71904  0.40840  0.98475  1.0000 0.1303428512
H   H193      1.0  0.82854  0.71188  0.25687  1.0000 0.3524809084
H   H194      1.0  0.82093  0.67213  0.19491  1.0000 0.3569647224
H   H195      1.0  0.76197  0.80539  0.22474  1.0000 0.330403194
H   H196      1.0  0.70545  0.79579  0.17599  1.0000 0.3524809084
H   H197      1.0  0.73825  0.72624  0.31095  1.0000 0.3414190612
H   H198      1.0  0.68240  0.67413  0.29495  1.0000 0.3524809084
H   H199      1.0  0.82403  0.82051  0.69938  1.0000 0.330403194
H   H200      1.0  0.76778  0.76908  0.67806  1.0000 0.2942795606
H   H201      1.0  0.39441  0.23826  0.98415  1.0000 0.1303428512
H   H202      1.0  0.28862  0.22750  0.93399  1.0000 0.1402619681
H   H203      1.0  0.27247  0.30398  0.10853  1.0000 0.1303428512
H   H204      1.0  0.37921  0.31394  0.15525  1.0000 0.1120425668
H   H205      1.0  0.06667  0.26638  0.01536  1.0000 0.1303428512
H   H206      1.0  0.17500  0.28592  0.06536  1.0000 0.1402619681
H   H207      1.0  0.19471  0.22093  0.89012  1.0000 0.1303428512
H   H208      1.0  0.08560  0.20030  0.84355  1.0000 0.1303428512
H   H209      1.0  0.58510  0.47134  0.09032  1.0000 0.1201962868
H   H210      1.0  0.51970  0.36403  0.04831  1.0000 0.1120425668
H   H211      1.0  0.50829  0.36780  0.22487  1.0000 0.1201962868
H   H212      1.0  0.57214  0.47569  0.26673  1.0000 0.1120425668
H   H213      1.0  0.48148  0.25997  0.07416  1.0000 0.1402619681
H   H214      1.0  0.46809  0.26514  0.14080  1.0000 0.1402619681
H   H215      1.0  0.91017  0.02580  0.72760  1.0000 0.1201962868
H   H216      1.0  0.95857  0.13708  0.77277  1.0000 0.1303428512
H   H217      1.0  0.95544  0.12516  0.94797  1.0000 0.1201962868
H   H218      1.0  0.90385  0.01440  0.90233  1.0000 0.1201962868
H   H219      1.0  0.98786  0.23529  0.86009  1.0000 0.1402619681
H   H220      1.0  0.97601  0.23286  0.92613  1.0000 0.1402619681
H   H221      1.0  0.64308  0.38428  0.80209  1.0000 0.1303428512
H   H222      1.0  0.59409  0.27696  0.78568  1.0000 0.1402619681
H   H223      1.0  0.42086  0.30190  0.72424  1.0000 0.1456031403
H   H224      1.0  0.47367  0.40907  0.74156  1.0000 0.1201962868
H   H225      1.0  0.49610  0.07707  0.76380  1.0000 0.1303428512
H   H226      1.0  0.54643  0.18515  0.78588  1.0000 0.1456031403
H   H227      1.0  0.37723  0.20081  0.69161  1.0000 0.1402619681
H   H228      1.0  0.33034  0.09158  0.66939  1.0000 0.1201962868
H   H229      1.0  0.77371  0.55817  0.96560  1.0000 0.1201962868
H   H230      1.0  0.71987  0.50626  0.85578  1.0000 0.1201962868
H   H231      1.0  0.55526  0.53221  0.88010  1.0000 0.1120425668
H   H232      1.0  0.60980  0.58711  0.98903  1.0000 0.1201962868
H   H233      1.0  0.56466  0.49673  0.76933  1.0000 0.1201962868
H   H234      1.0  0.62740  0.48036  0.76137  1.0000 0.1303428512
H   H235      1.0  0.40161  0.90987  0.50613  1.0000 0.1201962868
H   H236      1.0  0.43861  0.96167  0.61706  1.0000 0.1201962868
H   H237      1.0  0.25911  0.96408  0.61204  1.0000 0.1303428512
H   H238      1.0  0.22224  0.91436  0.50031  1.0000 0.1201962868
H   H239      1.0  0.34125  0.99643  0.71565  1.0000 0.1402619681
H   H240      1.0  0.40840  0.98475  0.71904  1.0000 0.1303428512
H   H241      1.0  0.71188  0.25687  0.82854  1.0000 0.3524809084
H   H242      1.0  0.67213  0.19491  0.82093  1.0000 0.3569647224
H   H243      1.0  0.80539  0.22474  0.76197  1.0000 0.330403194
H   H244      1.0  0.79579  0.17599  0.70545  1.0000 0.3524809084
H   H245      1.0  0.72624  0.31095  0.73825  1.0000 0.3414190612
H   H246      1.0  0.67413  0.29495  0.68240  1.0000 0.3524809084
H   H247      1.0  0.82051  0.69938  0.82403  1.0000 0.330403194
H   H248      1.0  0.76908  0.67806  0.76778  1.0000 0.2942795606
H   H249      1.0  0.23826  0.98415  0.39441  1.0000 0.1303428512
H   H250      1.0  0.22750  0.93399  0.28862  1.0000 0.1402619681
H   H251      1.0  0.30398  0.10853  0.27247  1.0000 0.1303428512
H   H252      1.0  0.31394  0.15525  0.37921  1.0000 0.1120425668
H   H253      1.0  0.26638  0.01536  0.06667  1.0000 0.1303428512
H   H254      1.0  0.28592  0.06536  0.17500  1.0000 0.1402619681
H   H255      1.0  0.22093  0.89012  0.19471  1.0000 0.1303428512
H   H256      1.0  0.20030  0.84355  0.08560  1.0000 0.1303428512
H   H257      1.0  0.47134  0.09032  0.58510  1.0000 0.1201962868
H   H258      1.0  0.36403  0.04831  0.51970  1.0000 0.1120425668
H   H259      1.0  0.36780  0.22487  0.50829  1.0000 0.1201962868
H   H260      1.0  0.47569  0.26673  0.57214  1.0000 0.1120425668
H   H261      1.0  0.25997  0.07416  0.48148  1.0000 0.1402619681
H   H262      1.0  0.26514  0.14080  0.46809  1.0000 0.1402619681
H   H263      1.0  0.02580  0.72760  0.91017  1.0000 0.1201962868
H   H264      1.0  0.13708  0.77277  0.95857  1.0000 0.1303428512
H   H265      1.0  0.12516  0.94797  0.95544  1.0000 0.1201962868
H   H266      1.0  0.01440  0.90233  0.90385  1.0000 0.1201962868
H   H267      1.0  0.23529  0.86009  0.98786  1.0000 0.1402619681
H   H268      1.0  0.23286  0.92613  0.97601  1.0000 0.1402619681
H   H269      1.0  0.38428  0.80209  0.64308  1.0000 0.1303428512
H   H270      1.0  0.27696  0.78568  0.59409  1.0000 0.1402619681
H   H271      1.0  0.30190  0.72424  0.42086  1.0000 0.1456031403
H   H272      1.0  0.40907  0.74156  0.47367  1.0000 0.1201962868
H   H273      1.0  0.07707  0.76380  0.49610  1.0000 0.1303428512
H   H274      1.0  0.18515  0.78588  0.54643  1.0000 0.1456031403
H   H275      1.0  0.20081  0.69161  0.37723  1.0000 0.1402619681
H   H276      1.0  0.09158  0.66939  0.33034  1.0000 0.1201962868
H   H277      1.0  0.55817  0.96560  0.77371  1.0000 0.1201962868
H   H278      1.0  0.50626  0.85578  0.71987  1.0000 0.1201962868
H   H279      1.0  0.53221  0.88010  0.55526  1.0000 0.1120425668
H   H280      1.0  0.58711  0.98903  0.60980  1.0000 0.1201962868
H   H281      1.0  0.49673  0.76933  0.56466  1.0000 0.1201962868
H   H282      1.0  0.48036  0.76137  0.62740  1.0000 0.1303428512
H   H283      1.0  0.90987  0.50613  0.40161  1.0000 0.1201962868
H   H284      1.0  0.96167  0.61706  0.43861  1.0000 0.1201962868
H   H285      1.0  0.96408  0.61204  0.25911  1.0000 0.1303428512
H   H286      1.0  0.91436  0.50031  0.22224  1.0000 0.1201962868
H   H287      1.0  0.99643  0.71565  0.34125  1.0000 0.1402619681
H   H288      1.0  0.98475  0.71904  0.40840  1.0000 0.1303428512
H   H289      1.0  0.84802  0.41520  0.98527  1.0000 0.1201962868
H   H290      1.0  0.93282  0.50648  0.05479  1.0000 0.1303428512
H   H291      1.0  0.91536  0.59218  0.91649  1.0000 0.1120425668
H   H292      1.0  0.83021  0.50126  0.84741  1.0000 0.1120425668
H   H293      1.0  0.98527  0.84802  0.41520  1.0000 0.1201962868
H   H294      1.0  0.05479  0.93282  0.50648  1.0000 0.1303428512
H   H295      1.0  0.91649  0.91536  0.59218  1.0000 0.1201962868
H   H296      1.0  0.84741  0.83021  0.50126  1.0000 0.1120425668
H   H297      1.0  0.41520  0.98527  0.84802  1.0000 0.1201962868
H   H298      1.0  0.50648  0.05479  0.93282  1.0000 0.1303428512
H   H299      1.0  0.59218  0.91649  0.91536  1.0000 0.1201962868
H   H300      1.0  0.50126  0.84741  0.83021  1.0000 0.1120425668
H   H301      1.0  0.15198  0.58480  0.01473  1.0000 0.1201962868
H   H302      1.0  0.06718  0.49352  0.94521  1.0000 0.1303428512
H   H303      1.0  0.08464  0.40782  0.08351  1.0000 0.1120425668
H   H304      1.0  0.16979  0.49874  0.15259  1.0000 0.1120425668
H   H305      1.0  0.01473  0.15198  0.58480  1.0000 0.1201962868
H   H306      1.0  0.94521  0.06718  0.49352  1.0000 0.1303428512
H   H307      1.0  0.08351  0.08464  0.40782  1.0000 0.1120425668
H   H308      1.0  0.15259  0.16979  0.49874  1.0000 0.1120425668
H   H309      1.0  0.58480  0.01473  0.15198  1.0000 0.1201962868
H   H310      1.0  0.49352  0.94521  0.06718  1.0000 0.1303428512
H   H311      1.0  0.40782  0.08351  0.08464  1.0000 0.1120425668
H   H312      1.0  0.49874  0.15259  0.16979  1.0000 0.1120425668
C   C1        1.0  0.99082  0.63067  0.74845  1.0000 0.0386921218
C   C2        1.0  0.02087  0.69397  0.75509  1.0000 -0.1499103716
C   C3        1.0  0.98466  0.73267  0.73610  1.0000 0.1120425668
C   C4        1.0  0.91762  0.70355  0.70974  1.0000 -0.1612000517
C   C5        1.0  0.88976  0.63972  0.70384  1.0000 0.0035854384
C   C6        1.0  0.00970  0.90712  0.74352  1.0000 0.0582890127
C   C7        1.0  0.97979  0.84233  0.73166  1.0000 -0.1499103716
C   C8        1.0  0.01624  0.80213  0.74564  1.0000 0.1120425668
C   C9        1.0  0.08355  0.83075  0.77046  1.0000 -0.1612000517
C   C10       1.0  0.11139  0.89581  0.78232  1.0000 0.0317658095
C   C11       1.0  0.78856  0.37148  0.44526  1.0000 0.5562569252
C   C12       1.0  0.81690  0.41439  0.51540  1.0000 -0.0386817499
C   C13       1.0  0.88245  0.43048  0.54938  1.0000 -0.1103339795
C   C14       1.0  0.90755  0.46944  0.61372  1.0000 -0.1776352474
C   C15       1.0  0.86753  0.49257  0.64552  1.0000 0.0921371469
C   C16       1.0  0.80248  0.47646  0.61142  1.0000 -0.1776352474
C   C17       1.0  0.77724  0.43793  0.54676  1.0000 -0.1216989121
C   C18       1.0  0.89436  0.53467  0.71618  1.0000 -0.2005838899
C   C19       1.0  0.22067  0.13396  0.06354  1.0000 0.5562569252
C   C20       1.0  0.18997  0.09865  0.99164  1.0000 -0.0386817499
C   C21       1.0  0.22816  0.08146  0.95432  1.0000 -0.1013592042
C   C22       1.0  0.20092  0.05191  0.88763  1.0000 -0.1612000517
C   C23       1.0  0.13506  0.03778  0.85728  1.0000 0.0921371469
C   C24       1.0  0.09651  0.05419  0.89463  1.0000 -0.1673426769
C   C25       1.0  0.12383  0.08475  0.96107  1.0000 -0.1103339795
C   C26       1.0  0.10600  0.00500  0.78484  1.0000 -0.1922530071
C   C27       1.0  0.21372  0.40215  0.63281  1.0000 0.0453259332
C   C28       1.0  0.22358  0.43134  0.69696  1.0000 -0.1499103716
C   C29       1.0  0.24748  0.49913  0.72401  1.0000 0.1120425668
C   C30       1.0  0.26000  0.53385  0.68235  1.0000 -0.1612000517
C   C31       1.0  0.24939  0.50214  0.61811  1.0000 0.0317658095
C   C32       1.0  0.25148  0.52765  0.89768  1.0000 0.0386921218
C   C33       1.0  0.23799  0.49767  0.83303  1.0000 -0.1499103716
C   C34       1.0  0.25918  0.53167  0.79371  1.0000 0.1120425668
C   C35       1.0  0.29396  0.59762  0.82372  1.0000 -0.1612000517
C   C36       1.0  0.30698  0.62558  0.88897  1.0000 0.0213104959
C   C37       1.0  0.93963  0.26687  0.38542  1.0000 0.5562569252
C   C38       1.0  0.01112  0.30250  0.42167  1.0000 -0.0386817499
C   C39       1.0  0.05150  0.27015  0.44649  1.0000 -0.1013592042
C   C40       1.0  0.11726  0.30269  0.47827  1.0000 -0.1673426769
C   C41       1.0  0.14332  0.36799  0.48726  1.0000 0.0985980709
C   C42       1.0  0.10290  0.40069  0.46240  1.0000 -0.1776352474
C   C43       1.0  0.03760  0.36800  0.42974  1.0000 -0.1103339795
C   C44       1.0  0.21459  0.40344  0.52322  1.0000 -0.2005838899
C   C45       1.0  0.58080  0.71614  0.12798  1.0000 0.5488854962
C   C46       1.0  0.50826  0.69210  0.09361  1.0000 -0.0386817499
C   C47       1.0  0.47275  0.62720  0.07900  1.0000 -0.1103339795
C   C48       1.0  0.40634  0.60503  0.04806  1.0000 -0.1673426769
C   C49       1.0  0.37437  0.64765  0.03144  1.0000 0.0985980709
C   C50       1.0  0.40931  0.71198  0.04629  1.0000 -0.1673426769
C   C51       1.0  0.47628  0.73427  0.07667  1.0000 -0.1103339795
C   C52       1.0  0.30175  0.62272  0.99684  1.0000 -0.1922530071
C   C53       1.0  0.63067  0.74845  0.99082  1.0000 0.0386921218
C   C54       1.0  0.69397  0.75509  0.02087  1.0000 -0.1499103716
C   C55       1.0  0.73267  0.73610  0.98466  1.0000 0.1120425668
C   C56       1.0  0.70355  0.70974  0.91762  1.0000 -0.1612000517
C   C57       1.0  0.63972  0.70384  0.88976  1.0000 0.0035854384
C   C58       1.0  0.90712  0.74352  0.00970  1.0000 0.0582890127
C   C59       1.0  0.84233  0.73166  0.97979  1.0000 -0.1499103716
C   C60       1.0  0.80213  0.74564  0.01624  1.0000 0.1120425668
C   C61       1.0  0.83075  0.77046  0.08355  1.0000 -0.1612000517
C   C62       1.0  0.89581  0.78232  0.11139  1.0000 0.0317658095
C   C63       1.0  0.37148  0.44526  0.78856  1.0000 0.5562569252
C   C64       1.0  0.41439  0.51540  0.81690  1.0000 -0.0386817499
C   C65       1.0  0.43048  0.54938  0.88245  1.0000 -0.1103339795
C   C66       1.0  0.46944  0.61372  0.90755  1.0000 -0.1776352474
C   C67       1.0  0.49257  0.64552  0.86753  1.0000 0.0921371469
C   C68       1.0  0.47646  0.61142  0.80248  1.0000 -0.1776352474
C   C69       1.0  0.43793  0.54676  0.77724  1.0000 -0.1216989121
C   C70       1.0  0.53467  0.71618  0.89436  1.0000 -0.2005838899
C   C71       1.0  0.13396  0.06354  0.22067  1.0000 0.5562569252
C   C72       1.0  0.09865  0.99164  0.18997  1.0000 -0.0386817499
C   C73       1.0  0.08146  0.95432  0.22816  1.0000 -0.1013592042
C   C74       1.0  0.05191  0.88763  0.20092  1.0000 -0.1612000517
C   C75       1.0  0.03778  0.85728  0.13506  1.0000 0.0921371469
C   C76       1.0  0.05419  0.89463  0.09651  1.0000 -0.1673426769
C   C77       1.0  0.08475  0.96107  0.12383  1.0000 -0.1103339795
C   C78       1.0  0.00500  0.78484  0.10600  1.0000 -0.1922530071
C   C79       1.0  0.40215  0.63281  0.21372  1.0000 0.0453259332
C   C80       1.0  0.43134  0.69696  0.22358  1.0000 -0.1499103716
C   C81       1.0  0.49913  0.72401  0.24748  1.0000 0.1120425668
C   C82       1.0  0.53385  0.68235  0.26000  1.0000 -0.1612000517
C   C83       1.0  0.50214  0.61811  0.24939  1.0000 0.0317658095
C   C84       1.0  0.52765  0.89768  0.25148  1.0000 0.0386921218
C   C85       1.0  0.49767  0.83303  0.23799  1.0000 -0.1499103716
C   C86       1.0  0.53167  0.79371  0.25918  1.0000 0.1120425668
C   C87       1.0  0.59762  0.82372  0.29396  1.0000 -0.1612000517
C   C88       1.0  0.62558  0.88897  0.30698  1.0000 0.0213104959
C   C89       1.0  0.26687  0.38542  0.93963  1.0000 0.5562569252
C   C90       1.0  0.30250  0.42167  0.01112  1.0000 -0.0386817499
C   C91       1.0  0.27015  0.44649  0.05150  1.0000 -0.1013592042
C   C92       1.0  0.30269  0.47827  0.11726  1.0000 -0.1673426769
C   C93       1.0  0.36799  0.48726  0.14332  1.0000 0.0985980709
C   C94       1.0  0.40069  0.46240  0.10290  1.0000 -0.1776352474
C   C95       1.0  0.36800  0.42974  0.03760  1.0000 -0.1103339795
C   C96       1.0  0.40344  0.52322  0.21459  1.0000 -0.2005838899
C   C97       1.0  0.71614  0.12798  0.58080  1.0000 0.5488854962
C   C98       1.0  0.69210  0.09361  0.50826  1.0000 -0.0386817499
C   C99       1.0  0.62720  0.07900  0.47275  1.0000 -0.1103339795
C   C100      1.0  0.60503  0.04806  0.40634  1.0000 -0.1673426769
C   C101      1.0  0.64765  0.03144  0.37437  1.0000 0.0985980709
C   C102      1.0  0.71198  0.04629  0.40931  1.0000 -0.1612000517
C   C103      1.0  0.73427  0.07667  0.47628  1.0000 -0.1103339795
C   C104      1.0  0.62272  0.99684  0.30175  1.0000 -0.1922530071
C   C105      1.0  0.74845  0.99082  0.63067  1.0000 0.0386921218
C   C106      1.0  0.75509  0.02087  0.69397  1.0000 -0.1499103716
C   C107      1.0  0.73610  0.98466  0.73267  1.0000 0.1120425668
C   C108      1.0  0.70974  0.91762  0.70355  1.0000 -0.1612000517
C   C109      1.0  0.70384  0.88976  0.63972  1.0000 0.0035854384
C   C110      1.0  0.74352  0.00970  0.90712  1.0000 0.0582890127
C   C111      1.0  0.73166  0.97979  0.84233  1.0000 -0.1499103716
C   C112      1.0  0.74564  0.01624  0.80213  1.0000 0.1120425668
C   C113      1.0  0.77046  0.08355  0.83075  1.0000 -0.1612000517
C   C114      1.0  0.78232  0.11139  0.89581  1.0000 0.0317658095
C   C115      1.0  0.44526  0.78856  0.37148  1.0000 0.5562569252
C   C116      1.0  0.51540  0.81690  0.41439  1.0000 -0.0386817499
C   C117      1.0  0.54938  0.88245  0.43048  1.0000 -0.1103339795
C   C118      1.0  0.61372  0.90755  0.46944  1.0000 -0.1776352474
C   C119      1.0  0.64552  0.86753  0.49257  1.0000 0.0921371469
C   C120      1.0  0.61142  0.80248  0.47646  1.0000 -0.1776352474
C   C121      1.0  0.54676  0.77724  0.43793  1.0000 -0.1216989121
C   C122      1.0  0.71618  0.89436  0.53467  1.0000 -0.2005838899
C   C123      1.0  0.06354  0.22067  0.13396  1.0000 0.5562569252
C   C124      1.0  0.99164  0.18997  0.09865  1.0000 -0.0386817499
C   C125      1.0  0.95432  0.22816  0.08146  1.0000 -0.1013592042
C   C126      1.0  0.88763  0.20092  0.05191  1.0000 -0.1612000517
C   C127      1.0  0.85728  0.13506  0.03778  1.0000 0.0921371469
C   C128      1.0  0.89463  0.09651  0.05419  1.0000 -0.1673426769
C   C129      1.0  0.96107  0.12383  0.08475  1.0000 -0.1103339795
C   C130      1.0  0.78484  0.10600  0.00500  1.0000 -0.1922530071
C   C131      1.0  0.63281  0.21372  0.40215  1.0000 0.0453259332
C   C132      1.0  0.69696  0.22358  0.43134  1.0000 -0.1499103716
C   C133      1.0  0.72401  0.24748  0.49913  1.0000 0.1120425668
C   C134      1.0  0.68235  0.26000  0.53385  1.0000 -0.1612000517
C   C135      1.0  0.61811  0.24939  0.50214  1.0000 0.0317658095
C   C136      1.0  0.89768  0.25148  0.52765  1.0000 0.0386921218
C   C137      1.0  0.83303  0.23799  0.49767  1.0000 -0.1499103716
C   C138      1.0  0.79371  0.25918  0.53167  1.0000 0.1120425668
C   C139      1.0  0.82372  0.29396  0.59762  1.0000 -0.1612000517
C   C140      1.0  0.88897  0.30698  0.62558  1.0000 0.0213104959
C   C141      1.0  0.38542  0.93963  0.26687  1.0000 0.5562569252
C   C142      1.0  0.42167  0.01112  0.30250  1.0000 -0.0386817499
C   C143      1.0  0.44649  0.05150  0.27015  1.0000 -0.1013592042
C   C144      1.0  0.47827  0.11726  0.30269  1.0000 -0.1673426769
C   C145      1.0  0.48726  0.14332  0.36799  1.0000 0.0985980709
C   C146      1.0  0.46240  0.10290  0.40069  1.0000 -0.1776352474
C   C147      1.0  0.42974  0.03760  0.36800  1.0000 -0.1103339795
C   C148      1.0  0.52322  0.21459  0.40344  1.0000 -0.2005838899
C   C149      1.0  0.12798  0.58080  0.71614  1.0000 0.5488854962
C   C150      1.0  0.09361  0.50826  0.69210  1.0000 -0.0386817499
C   C151      1.0  0.07900  0.47275  0.62720  1.0000 -0.1103339795
C   C152      1.0  0.04806  0.40634  0.60503  1.0000 -0.1673426769
C   C153      1.0  0.03144  0.37437  0.64765  1.0000 0.0985980709
C   C154      1.0  0.04629  0.40931  0.71198  1.0000 -0.1673426769
C   C155      1.0  0.07667  0.47628  0.73427  1.0000 -0.1103339795
C   C156      1.0  0.99684  0.30175  0.62272  1.0000 -0.1922530071
C   C157      1.0  0.00918  0.36933  0.25155  1.0000 0.0386921218
C   C158      1.0  0.97913  0.30603  0.24491  1.0000 -0.1499103716
C   C159      1.0  0.01534  0.26733  0.26390  1.0000 0.1120425668
C   C160      1.0  0.08238  0.29645  0.29026  1.0000 -0.1612000517
C   C161      1.0  0.11024  0.36028  0.29616  1.0000 0.0035854384
C   C162      1.0  0.99030  0.09288  0.25648  1.0000 0.0582890127
C   C163      1.0  0.02021  0.15767  0.26834  1.0000 -0.1499103716
C   C164      1.0  0.98376  0.19787  0.25436  1.0000 0.1120425668
C   C165      1.0  0.91645  0.16925  0.22954  1.0000 -0.1612000517
C   C166      1.0  0.88861  0.10419  0.21768  1.0000 0.0317658095
C   C167      1.0  0.21144  0.62852  0.55474  1.0000 0.5562569252
C   C168      1.0  0.18310  0.58561  0.48460  1.0000 -0.0386817499
C   C169      1.0  0.11755  0.56952  0.45062  1.0000 -0.1103339795
C   C170      1.0  0.09245  0.53056  0.38628  1.0000 -0.1776352474
C   C171      1.0  0.13247  0.50743  0.35448  1.0000 0.0921371469
C   C172      1.0  0.19752  0.52354  0.38858  1.0000 -0.1776352474
C   C173      1.0  0.22276  0.56207  0.45324  1.0000 -0.1216989121
C   C174      1.0  0.10564  0.46533  0.28382  1.0000 -0.2005838899
C   C175      1.0  0.77933  0.86604  0.93646  1.0000 0.5562569252
C   C176      1.0  0.81003  0.90135  0.00836  1.0000 -0.0386817499
C   C177      1.0  0.77184  0.91854  0.04568  1.0000 -0.1013592042
C   C178      1.0  0.79908  0.94809  0.11237  1.0000 -0.1612000517
C   C179      1.0  0.86494  0.96222  0.14272  1.0000 0.0921371469
C   C180      1.0  0.90349  0.94581  0.10537  1.0000 -0.1673426769
C   C181      1.0  0.87617  0.91525  0.03893  1.0000 -0.1103339795
C   C182      1.0  0.89400  0.99500  0.21516  1.0000 -0.1922530071
C   C183      1.0  0.78628  0.59785  0.36719  1.0000 0.0453259332
C   C184      1.0  0.77642  0.56866  0.30304  1.0000 -0.1499103716
C   C185      1.0  0.75252  0.50087  0.27599  1.0000 0.1120425668
C   C186      1.0  0.74000  0.46615  0.31765  1.0000 -0.1612000517
C   C187      1.0  0.75061  0.49786  0.38189  1.0000 0.0317658095
C   C188      1.0  0.74852  0.47235  0.10232  1.0000 0.0386921218
C   C189      1.0  0.76201  0.50233  0.16697  1.0000 -0.1499103716
C   C190      1.0  0.74082  0.46833  0.20629  1.0000 0.1120425668
C   C191      1.0  0.70604  0.40238  0.17628  1.0000 -0.1612000517
C   C192      1.0  0.69302  0.37442  0.11103  1.0000 0.0213104959
C   C193      1.0  0.06037  0.73313  0.61458  1.0000 0.5562569252
C   C194      1.0  0.98888  0.69750  0.57833  1.0000 -0.0386817499
C   C195      1.0  0.94850  0.72985  0.55351  1.0000 -0.1013592042
C   C196      1.0  0.88274  0.69731  0.52173  1.0000 -0.1673426769
C   C197      1.0  0.85668  0.63201  0.51274  1.0000 0.0985980709
C   C198      1.0  0.89710  0.59931  0.53760  1.0000 -0.1776352474
C   C199      1.0  0.96240  0.63200  0.57026  1.0000 -0.1103339795
C   C200      1.0  0.78541  0.59656  0.47678  1.0000 -0.2005838899
C   C201      1.0  0.41920  0.28386  0.87202  1.0000 0.5488854962
C   C202      1.0  0.49174  0.30790  0.90639  1.0000 -0.0386817499
C   C203      1.0  0.52725  0.37280  0.92100  1.0000 -0.1103339795
C   C204      1.0  0.59366  0.39497  0.95194  1.0000 -0.1673426769
C   C205      1.0  0.62563  0.35235  0.96856  1.0000 0.0985980709
C   C206      1.0  0.59069  0.28802  0.95371  1.0000 -0.1673426769
C   C207      1.0  0.52372  0.26573  0.92333  1.0000 -0.1103339795
C   C208      1.0  0.69825  0.37728  0.00316  1.0000 -0.1922530071
C   C209      1.0  0.36933  0.25155  0.00918  1.0000 0.0386921218
C   C210      1.0  0.30603  0.24491  0.97913  1.0000 -0.1499103716
C   C211      1.0  0.26733  0.26390  0.01534  1.0000 0.1120425668
C   C212      1.0  0.29645  0.29026  0.08238  1.0000 -0.1612000517
C   C213      1.0  0.36028  0.29616  0.11024  1.0000 0.0035854384
C   C214      1.0  0.09288  0.25648  0.99030  1.0000 0.0582890127
C   C215      1.0  0.15767  0.26834  0.02021  1.0000 -0.1499103716
C   C216      1.0  0.19787  0.25436  0.98376  1.0000 0.1120425668
C   C217      1.0  0.16925  0.22954  0.91645  1.0000 -0.1612000517
C   C218      1.0  0.10419  0.21768  0.88861  1.0000 0.0317658095
C   C219      1.0  0.62852  0.55474  0.21144  1.0000 0.5562569252
C   C220      1.0  0.58561  0.48460  0.18310  1.0000 -0.0386817499
C   C221      1.0  0.56952  0.45062  0.11755  1.0000 -0.1103339795
C   C222      1.0  0.53056  0.38628  0.09245  1.0000 -0.1776352474
C   C223      1.0  0.50743  0.35448  0.13247  1.0000 0.0921371469
C   C224      1.0  0.52354  0.38858  0.19752  1.0000 -0.1776352474
C   C225      1.0  0.56207  0.45324  0.22276  1.0000 -0.1216989121
C   C226      1.0  0.46533  0.28382  0.10564  1.0000 -0.2005838899
C   C227      1.0  0.86604  0.93646  0.77933  1.0000 0.5562569252
C   C228      1.0  0.90135  0.00836  0.81003  1.0000 -0.0386817499
C   C229      1.0  0.91854  0.04568  0.77184  1.0000 -0.1013592042
C   C230      1.0  0.94809  0.11237  0.79908  1.0000 -0.1612000517
C   C231      1.0  0.96222  0.14272  0.86494  1.0000 0.0921371469
C   C232      1.0  0.94581  0.10537  0.90349  1.0000 -0.1673426769
C   C233      1.0  0.91525  0.03893  0.87617  1.0000 -0.1103339795
C   C234      1.0  0.99500  0.21516  0.89400  1.0000 -0.1922530071
C   C235      1.0  0.59785  0.36719  0.78628  1.0000 0.0453259332
C   C236      1.0  0.56866  0.30304  0.77642  1.0000 -0.1499103716
C   C237      1.0  0.50087  0.27599  0.75252  1.0000 0.1120425668
C   C238      1.0  0.46615  0.31765  0.74000  1.0000 -0.1612000517
C   C239      1.0  0.49786  0.38189  0.75061  1.0000 0.0317658095
C   C240      1.0  0.47235  0.10232  0.74852  1.0000 0.0386921218
C   C241      1.0  0.50233  0.16697  0.76201  1.0000 -0.1499103716
C   C242      1.0  0.46833  0.20629  0.74082  1.0000 0.1120425668
C   C243      1.0  0.40238  0.17628  0.70604  1.0000 -0.1612000517
C   C244      1.0  0.37442  0.11103  0.69302  1.0000 0.0213104959
C   C245      1.0  0.73313  0.61458  0.06037  1.0000 0.5562569252
C   C246      1.0  0.69750  0.57833  0.98888  1.0000 -0.0386817499
C   C247      1.0  0.72985  0.55351  0.94850  1.0000 -0.1013592042
C   C248      1.0  0.69731  0.52173  0.88274  1.0000 -0.1673426769
C   C249      1.0  0.63201  0.51274  0.85668  1.0000 0.0985980709
C   C250      1.0  0.59931  0.53760  0.89710  1.0000 -0.1776352474
C   C251      1.0  0.63200  0.57026  0.96240  1.0000 -0.1103339795
C   C252      1.0  0.59656  0.47678  0.78541  1.0000 -0.2005838899
C   C253      1.0  0.28386  0.87202  0.41920  1.0000 0.5488854962
C   C254      1.0  0.30790  0.90639  0.49174  1.0000 -0.0386817499
C   C255      1.0  0.37280  0.92100  0.52725  1.0000 -0.1103339795
C   C256      1.0  0.39497  0.95194  0.59366  1.0000 -0.1673426769
C   C257      1.0  0.35235  0.96856  0.62563  1.0000 0.0985980709
C   C258      1.0  0.28802  0.95371  0.59069  1.0000 -0.1673426769
C   C259      1.0  0.26573  0.92333  0.52372  1.0000 -0.1103339795
C   C260      1.0  0.37728  0.00316  0.69825  1.0000 -0.1922530071
C   C261      1.0  0.25155  0.00918  0.36933  1.0000 0.0386921218
C   C262      1.0  0.24491  0.97913  0.30603  1.0000 -0.1499103716
C   C263      1.0  0.26390  0.01534  0.26733  1.0000 0.1120425668
C   C264      1.0  0.29026  0.08238  0.29645  1.0000 -0.1612000517
C   C265      1.0  0.29616  0.11024  0.36028  1.0000 0.0035854384
C   C266      1.0  0.25648  0.99030  0.09288  1.0000 0.0582890127
C   C267      1.0  0.26834  0.02021  0.15767  1.0000 -0.1499103716
C   C268      1.0  0.25436  0.98376  0.19787  1.0000 0.1120425668
C   C269      1.0  0.22954  0.91645  0.16925  1.0000 -0.1612000517
C   C270      1.0  0.21768  0.88861  0.10419  1.0000 0.0317658095
C   C271      1.0  0.55474  0.21144  0.62852  1.0000 0.5562569252
C   C272      1.0  0.48460  0.18310  0.58561  1.0000 -0.0386817499
C   C273      1.0  0.45062  0.11755  0.56952  1.0000 -0.1103339795
C   C274      1.0  0.38628  0.09245  0.53056  1.0000 -0.1776352474
C   C275      1.0  0.35448  0.13247  0.50743  1.0000 0.0921371469
C   C276      1.0  0.38858  0.19752  0.52354  1.0000 -0.1776352474
C   C277      1.0  0.45324  0.22276  0.56207  1.0000 -0.1216989121
C   C278      1.0  0.28382  0.10564  0.46533  1.0000 -0.2005838899
C   C279      1.0  0.93646  0.77933  0.86604  1.0000 0.5562569252
C   C280      1.0  0.00836  0.81003  0.90135  1.0000 -0.0386817499
C   C281      1.0  0.04568  0.77184  0.91854  1.0000 -0.1013592042
C   C282      1.0  0.11237  0.79908  0.94809  1.0000 -0.1612000517
C   C283      1.0  0.14272  0.86494  0.96222  1.0000 0.0921371469
C   C284      1.0  0.10537  0.90349  0.94581  1.0000 -0.1673426769
C   C285      1.0  0.03893  0.87617  0.91525  1.0000 -0.1103339795
C   C286      1.0  0.21516  0.89400  0.99500  1.0000 -0.1922530071
C   C287      1.0  0.36719  0.78628  0.59785  1.0000 0.0453259332
C   C288      1.0  0.30304  0.77642  0.56866  1.0000 -0.1499103716
C   C289      1.0  0.27599  0.75252  0.50087  1.0000 0.1120425668
C   C290      1.0  0.31765  0.74000  0.46615  1.0000 -0.1612000517
C   C291      1.0  0.38189  0.75061  0.49786  1.0000 0.0317658095
C   C292      1.0  0.10232  0.74852  0.47235  1.0000 0.0386921218
C   C293      1.0  0.16697  0.76201  0.50233  1.0000 -0.1499103716
C   C294      1.0  0.20629  0.74082  0.46833  1.0000 0.1120425668
C   C295      1.0  0.17628  0.70604  0.40238  1.0000 -0.1612000517
C   C296      1.0  0.11103  0.69302  0.37442  1.0000 0.0213104959
C   C297      1.0  0.61458  0.06037  0.73313  1.0000 0.5562569252
C   C298      1.0  0.57833  0.98888  0.69750  1.0000 -0.0386817499
C   C299      1.0  0.55351  0.94850  0.72985  1.0000 -0.1013592042
C   C300      1.0  0.52173  0.88274  0.69731  1.0000 -0.1673426769
C   C301      1.0  0.51274  0.85668  0.63201  1.0000 0.0985980709
C   C302      1.0  0.53760  0.89710  0.59931  1.0000 -0.1776352474
C   C303      1.0  0.57026  0.96240  0.63200  1.0000 -0.1103339795
C   C304      1.0  0.47678  0.78541  0.59656  1.0000 -0.2005838899
C   C305      1.0  0.87202  0.41920  0.28386  1.0000 0.5488854962
C   C306      1.0  0.90639  0.49174  0.30790  1.0000 -0.0386817499
C   C307      1.0  0.92100  0.52725  0.37280  1.0000 -0.1103339795
C   C308      1.0  0.95194  0.59366  0.39497  1.0000 -0.1673426769
C   C309      1.0  0.96856  0.62563  0.35235  1.0000 0.0985980709
C   C310      1.0  0.95371  0.59069  0.28802  1.0000 -0.1673426769
C   C311      1.0  0.92333  0.52372  0.26573  1.0000 -0.1103339795
C   C312      1.0  0.00316  0.69825  0.37728  1.0000 -0.1922530071
C   C313      1.0  0.77667  0.38777  0.86215  1.0000 0.5488854962
C   C314      1.0  0.99293  0.61593  0.03648  1.0000 0.5488854962
C   C315      1.0  0.83123  0.44810  0.90857  1.0000 -0.022538036
C   C316      1.0  0.86171  0.45044  0.97103  1.0000 -0.1013592042
C   C317      1.0  0.91271  0.50522  0.01261  1.0000 -0.0916834535
C   C318      1.0  0.93421  0.55802  0.99252  1.0000 -0.0019653324
C   C319      1.0  0.90239  0.55650  0.93037  1.0000 -0.1216989121
C   C320      1.0  0.85141  0.50194  0.88906  1.0000 -0.1257476917
C   C321      1.0  0.86215  0.77667  0.38777  1.0000 0.5488854962
C   C322      1.0  0.03648  0.99293  0.61593  1.0000 0.5488854962
C   C323      1.0  0.90857  0.83123  0.44810  1.0000 -0.022538036
C   C324      1.0  0.97103  0.86171  0.45044  1.0000 -0.1013592042
C   C325      1.0  0.01261  0.91271  0.50522  1.0000 -0.0916834535
C   C326      1.0  0.99252  0.93421  0.55802  1.0000 -0.0019653324
C   C327      1.0  0.93037  0.90239  0.55650  1.0000 -0.1216989121
C   C328      1.0  0.88906  0.85141  0.50194  1.0000 -0.1257476917
C   C329      1.0  0.38777  0.86215  0.77667  1.0000 0.5488854962
C   C330      1.0  0.61593  0.03648  0.99293  1.0000 0.5488854962
C   C331      1.0  0.44810  0.90857  0.83123  1.0000 -0.022538036
C   C332      1.0  0.45044  0.97103  0.86171  1.0000 -0.1013592042
C   C333      1.0  0.50522  0.01261  0.91271  1.0000 -0.0916834535
C   C334      1.0  0.55802  0.99252  0.93421  1.0000 -0.0019653324
C   C335      1.0  0.55650  0.93037  0.90239  1.0000 -0.1216989121
C   C336      1.0  0.50194  0.88906  0.85141  1.0000 -0.1257476917
C   C337      1.0  0.22333  0.61223  0.13785  1.0000 0.5488854962
C   C338      1.0  0.00707  0.38407  0.96352  1.0000 0.5488854962
C   C339      1.0  0.16877  0.55190  0.09143  1.0000 -0.022538036
C   C340      1.0  0.13829  0.54956  0.02897  1.0000 -0.1013592042
C   C341      1.0  0.08729  0.49478  0.98739  1.0000 -0.0916834535
C   C342      1.0  0.06579  0.44198  0.00748  1.0000 -0.0019653324
C   C343      1.0  0.09761  0.44350  0.06963  1.0000 -0.1216989121
C   C344      1.0  0.14859  0.49806  0.11094  1.0000 -0.1257476917
C   C345      1.0  0.13785  0.22333  0.61223  1.0000 0.5488854962
C   C346      1.0  0.96352  0.00707  0.38407  1.0000 0.5488854962
C   C347      1.0  0.09143  0.16877  0.55190  1.0000 -0.022538036
C   C348      1.0  0.02897  0.13829  0.54956  1.0000 -0.1013592042
C   C349      1.0  0.98739  0.08729  0.49478  1.0000 -0.0916834535
C   C350      1.0  0.00748  0.06579  0.44198  1.0000 -0.0019653324
C   C351      1.0  0.06963  0.09761  0.44350  1.0000 -0.1216989121
C   C352      1.0  0.11094  0.14859  0.49806  1.0000 -0.1257476917
C   C353      1.0  0.61223  0.13785  0.22333  1.0000 0.5488854962
C   C354      1.0  0.38407  0.96352  0.00707  1.0000 0.5488854962
C   C355      1.0  0.55190  0.09143  0.16877  1.0000 -0.022538036
C   C356      1.0  0.54956  0.02897  0.13829  1.0000 -0.1013592042
C   C357      1.0  0.49478  0.98739  0.08729  1.0000 -0.0916834535
C   C358      1.0  0.44198  0.00748  0.06579  1.0000 -0.0019653324
C   C359      1.0  0.44350  0.06963  0.09761  1.0000 -0.1216989121
C   C360      1.0  0.49806  0.11094  0.14859  1.0000 -0.1257476917
N   N1        1.0  0.92630  0.60409  0.72330  1.0000 0.0985980709
N   N2        1.0  0.07437  0.93332  0.76914  1.0000 0.1120425668
N   N3        1.0  0.22629  0.43716  0.59372  1.0000 0.1120425668
N   N4        1.0  0.28643  0.59086  0.92561  1.0000 0.0985980709
N   N5        1.0  0.60409  0.72330  0.92630  1.0000 0.0985980709
N   N6        1.0  0.93332  0.76914  0.07437  1.0000 0.1120425668
N   N7        1.0  0.43716  0.59372  0.22629  1.0000 0.1120425668
N   N8        1.0  0.59086  0.92561  0.28643  1.0000 0.0985980709
N   N9        1.0  0.72330  0.92630  0.60409  1.0000 0.0985980709
N   N10       1.0  0.76914  0.07437  0.93332  1.0000 0.1120425668
N   N11       1.0  0.59372  0.22629  0.43716  1.0000 0.1120425668
N   N12       1.0  0.92561  0.28643  0.59086  1.0000 0.0985980709
N   N13       1.0  0.07370  0.39591  0.27670  1.0000 0.0985980709
N   N14       1.0  0.92563  0.06668  0.23086  1.0000 0.1120425668
N   N15       1.0  0.77371  0.56284  0.40628  1.0000 0.1120425668
N   N16       1.0  0.71357  0.40914  0.07439  1.0000 0.0985980709
N   N17       1.0  0.39591  0.27670  0.07370  1.0000 0.0985980709
N   N18       1.0  0.06668  0.23086  0.92563  1.0000 0.1120425668
N   N19       1.0  0.56284  0.40628  0.77371  1.0000 0.1120425668
N   N20       1.0  0.40914  0.07439  0.71357  1.0000 0.0985980709
N   N21       1.0  0.27670  0.07370  0.39591  1.0000 0.0985980709
N   N22       1.0  0.23086  0.92563  0.06668  1.0000 0.1120425668
N   N23       1.0  0.40628  0.77371  0.56284  1.0000 0.1120425668
N   N24       1.0  0.07439  0.71357  0.40914  1.0000 0.0985980709
O   O1        1.0  0.82203  0.33964  0.42353  1.0000 -0.5605242599
O   O2        1.0  0.73338  0.37003  0.41390  1.0000 -0.5695269502
O   O3        1.0  0.18689  0.16107  0.09109  1.0000 -0.5787163135
O   O4        1.0  0.27692  0.13505  0.09023  1.0000 -0.5605242599
O   O5        1.0  0.91103  0.29445  0.35137  1.0000 -0.5695269502
O   O6        1.0  0.91455  0.21336  0.39111  1.0000 -0.5605242599
O   O7        1.0  0.60421  0.67749  0.14919  1.0000 -0.547272846
O   O8        1.0  0.61232  0.77231  0.13284  1.0000 -0.5695269502
O   O9        1.0  0.77497  0.19631  0.32226  1.0000 -0.7009521274
O   O10       1.0  0.81368  0.26295  0.21874  1.0000 -0.6874957232
O   O11       1.0  0.71542  0.30066  0.29300  1.0000 -0.7087192981
O   O12       1.0  0.29451  0.19367  0.21490  1.0000 -0.6874957232
O   O13       1.0  0.33964  0.42353  0.82203  1.0000 -0.5605242599
O   O14       1.0  0.37003  0.41390  0.73338  1.0000 -0.5695269502
O   O15       1.0  0.16107  0.09109  0.18689  1.0000 -0.5787163135
O   O16       1.0  0.13505  0.09023  0.27692  1.0000 -0.5605242599
O   O17       1.0  0.29445  0.35137  0.91103  1.0000 -0.5695269502
O   O18       1.0  0.21336  0.39111  0.91455  1.0000 -0.5605242599
O   O19       1.0  0.67749  0.14919  0.60421  1.0000 -0.547272846
O   O20       1.0  0.77231  0.13284  0.61232  1.0000 -0.5695269502
O   O21       1.0  0.19631  0.32226  0.77497  1.0000 -0.7009521274
O   O22       1.0  0.26295  0.21874  0.81368  1.0000 -0.6874957232
O   O23       1.0  0.30066  0.29300  0.71542  1.0000 -0.7087192981
O   O24       1.0  0.19367  0.21490  0.29451  1.0000 -0.6874957232
O   O25       1.0  0.42353  0.82203  0.33964  1.0000 -0.5605242599
O   O26       1.0  0.41390  0.73338  0.37003  1.0000 -0.5695269502
O   O27       1.0  0.09109  0.18689  0.16107  1.0000 -0.5787163135
O   O28       1.0  0.09023  0.27692  0.13505  1.0000 -0.5605242599
O   O29       1.0  0.35137  0.91103  0.29445  1.0000 -0.5695269502
O   O30       1.0  0.39111  0.91455  0.21336  1.0000 -0.5605242599
O   O31       1.0  0.14919  0.60421  0.67749  1.0000 -0.547272846
O   O32       1.0  0.13284  0.61232  0.77231  1.0000 -0.5695269502
O   O33       1.0  0.32226  0.77497  0.19631  1.0000 -0.7009521274
O   O34       1.0  0.21874  0.81368  0.26295  1.0000 -0.6874957232
O   O35       1.0  0.29300  0.71542  0.30066  1.0000 -0.7087192981
O   O36       1.0  0.21490  0.29451  0.19367  1.0000 -0.6874957232
O   O37       1.0  0.17797  0.66036  0.57647  1.0000 -0.5605242599
O   O38       1.0  0.26662  0.62997  0.58610  1.0000 -0.5695269502
O   O39       1.0  0.81311  0.83893  0.90891  1.0000 -0.5787163135
O   O40       1.0  0.72308  0.86495  0.90977  1.0000 -0.5605242599
O   O41       1.0  0.08897  0.70555  0.64863  1.0000 -0.5695269502
O   O42       1.0  0.08545  0.78664  0.60889  1.0000 -0.5605242599
O   O43       1.0  0.39579  0.32251  0.85081  1.0000 -0.547272846
O   O44       1.0  0.38768  0.22769  0.86716  1.0000 -0.5695269502
O   O45       1.0  0.22503  0.80369  0.67774  1.0000 -0.7009521274
O   O46       1.0  0.18632  0.73705  0.78126  1.0000 -0.6874957232
O   O47       1.0  0.28458  0.69934  0.70700  1.0000 -0.7087192981
O   O48       1.0  0.70549  0.80633  0.78510  1.0000 -0.6874957232
O   O49       1.0  0.66036  0.57647  0.17797  1.0000 -0.5605242599
O   O50       1.0  0.62997  0.58610  0.26662  1.0000 -0.5695269502
O   O51       1.0  0.83893  0.90891  0.81311  1.0000 -0.5787163135
O   O52       1.0  0.86495  0.90977  0.72308  1.0000 -0.5605242599
O   O53       1.0  0.70555  0.64863  0.08897  1.0000 -0.5695269502
O   O54       1.0  0.78664  0.60889  0.08545  1.0000 -0.5605242599
O   O55       1.0  0.32251  0.85081  0.39579  1.0000 -0.547272846
O   O56       1.0  0.22769  0.86716  0.38768  1.0000 -0.5695269502
O   O57       1.0  0.80369  0.67774  0.22503  1.0000 -0.7009521274
O   O58       1.0  0.73705  0.78126  0.18632  1.0000 -0.6874957232
O   O59       1.0  0.69934  0.70700  0.28458  1.0000 -0.7087192981
O   O60       1.0  0.80633  0.78510  0.70549  1.0000 -0.6874957232
O   O61       1.0  0.57647  0.17797  0.66036  1.0000 -0.5605242599
O   O62       1.0  0.58610  0.26662  0.62997  1.0000 -0.5695269502
O   O63       1.0  0.90891  0.81311  0.83893  1.0000 -0.5787163135
O   O64       1.0  0.90977  0.72308  0.86495  1.0000 -0.5605242599
O   O65       1.0  0.64863  0.08897  0.70555  1.0000 -0.5695269502
O   O66       1.0  0.60889  0.08545  0.78664  1.0000 -0.5605242599
O   O67       1.0  0.85081  0.39579  0.32251  1.0000 -0.547272846
O   O68       1.0  0.86716  0.38768  0.22769  1.0000 -0.5787163135
O   O69       1.0  0.67774  0.22503  0.80369  1.0000 -0.7009521274
O   O70       1.0  0.78126  0.18632  0.73705  1.0000 -0.6874957232
O   O71       1.0  0.70700  0.28458  0.69934  1.0000 -0.7087192981
O   O72       1.0  0.78510  0.70549  0.80633  1.0000 -0.6874957232
O   O73       1.0  0.75988  0.34133  0.88281  1.0000 -0.5695269502
O   O74       1.0  0.75206  0.38858  0.80600  1.0000 -0.5787163135
O   O75       1.0  0.00972  0.62295  0.09658  1.0000 -0.6095537989
O   O76       1.0  0.02057  0.65319  0.01082  1.0000 -0.599005704
O   O77       1.0  0.88281  0.75988  0.34133  1.0000 -0.5695269502
O   O78       1.0  0.80600  0.75206  0.38858  1.0000 -0.5787163135
O   O79       1.0  0.09658  0.00972  0.62295  1.0000 -0.6095537989
O   O80       1.0  0.01082  0.02057  0.65319  1.0000 -0.599005704
O   O81       1.0  0.34133  0.88281  0.75988  1.0000 -0.5695269502
O   O82       1.0  0.38858  0.80600  0.75206  1.0000 -0.5787163135
O   O83       1.0  0.62295  0.09658  0.00972  1.0000 -0.6095537989
O   O84       1.0  0.65319  0.01082  0.02057  1.0000 -0.599005704
O   O85       1.0  0.24012  0.65867  0.11719  1.0000 -0.5695269502
O   O86       1.0  0.24794  0.61142  0.19400  1.0000 -0.5787163135
O   O87       1.0  0.99028  0.37705  0.90342  1.0000 -0.6095537989
O   O88       1.0  0.97943  0.34681  0.98918  1.0000 -0.599005704
O   O89       1.0  0.11719  0.24012  0.65867  1.0000 -0.5695269502
O   O90       1.0  0.19400  0.24794  0.61142  1.0000 -0.5787163135
O   O91       1.0  0.90342  0.99028  0.37705  1.0000 -0.6095537989
O   O92       1.0  0.98918  0.97943  0.34681  1.0000 -0.599005704
O   O93       1.0  0.65867  0.11719  0.24012  1.0000 -0.5695269502
O   O94       1.0  0.61142  0.19400  0.24794  1.0000 -0.5787163135
O   O95       1.0  0.37705  0.90342  0.99028  1.0000 -0.6095537989
O   O96       1.0  0.34681  0.98918  0.97943  1.0000 -0.599005704
