# DDEC6 charges by PACMAN v1.1 (https://github.com/mtap-research/PACMAN-charge/)
data_2020[Co][anh]3[ION]2
_chemical_formula_sum              "Co6 H90 C108 N18 Cl3 O36"
_cell_length_a       17.0264
_cell_length_b       17.0264
_cell_length_c       21.2238
_cell_angle_alpha    90
_cell_angle_beta     90
_cell_angle_gamma    120

_symmetry_space_group_name_H-M    "P 1"
_symmetry_Int_Tables_number       1

loop_
  _symmetry_equiv_pos_as_xyz
  'x, y, z'

loop_
  _atom_site_type_symbol
  _atom_site_label
  _atom_site_symmetry_multiplicity
  _atom_site_fract_x
  _atom_site_fract_y
  _atom_site_fract_z
  _atom_site_occupancy
  _atom_site_charge
Co  Co1       1.0  0.27911  0.88358  0.80272  1.0000 0.8152298872
Co  Co2       1.0  0.60447  0.72089  0.46939  1.0000 0.8152298872
Co  Co3       1.0  0.11642  0.39553  0.13606  1.0000 0.8152298872
Co  Co4       1.0  0.39553  0.11642  0.86394  1.0000 0.8152298872
Co  Co5       1.0  0.88358  0.27911  0.19728  1.0000 0.8152298872
Co  Co6       1.0  0.72089  0.60447  0.53061  1.0000 0.8152298872
H   H1        1.0  0.32940  0.79460  0.97663  1.0000 0.1164735848
H   H2        1.0  0.54290  0.03970  0.99463  1.0000 0.1301580632
H   H3        1.0  0.52570  0.84640  0.16953  1.0000 0.1301580632
H   H4        1.0  0.59680  0.84980  0.12103  1.0000 0.1551047806
H   H5        1.0  0.50280  0.76070  0.12873  1.0000 0.1401455363
H   H6        1.0  0.71140  0.06610  0.01533  1.0000 0.1504189465
H   H7        1.0  0.57860  0.99470  0.18043  1.0000 0.1504189465
H   H8        1.0  0.35790  0.72900  0.16113  1.0000 0.1401455363
H   H9        1.0  0.32340  0.64550  0.98373  1.0000 0.1401455363
H   H10       1.0  0.21490  0.50480  0.01683  1.0000 0.1301580632
H   H11       1.0  0.25130  0.58430  0.19023  1.0000 0.1101191212
H   H12       1.0  0.69580  0.10620  0.22813  1.0000 0.1101191212
H   H13       1.0  0.82930  0.18170  0.06753  1.0000 0.1301580632
H   H14       1.0  0.14900  0.83370  0.73863  1.0000 0.3211156621
H   H15       1.0  0.20850  0.92000  0.72093  1.0000 0.3602977041
H   H16       1.0  0.46520  0.67060  0.64330  1.0000 0.1164735848
H   H17       1.0  0.49680  0.45710  0.66130  1.0000 0.1301580632
H   H18       1.0  0.32070  0.47430  0.83620  1.0000 0.1301580632
H   H19       1.0  0.25300  0.40320  0.78770  1.0000 0.1551047806
H   H20       1.0  0.25790  0.49720  0.79540  1.0000 0.1401455363
H   H21       1.0  0.35470  0.28860  0.68200  1.0000 0.1504189465
H   H22       1.0  0.41610  0.42140  0.84710  1.0000 0.1504189465
H   H23       1.0  0.37110  0.64210  0.82780  1.0000 0.1401455363
H   H24       1.0  0.32210  0.67660  0.65040  1.0000 0.1401455363
H   H25       1.0  0.28990  0.78510  0.68350  1.0000 0.1301580632
H   H26       1.0  0.33300  0.74870  0.85690  1.0000 0.1101191212
H   H27       1.0  0.41040  0.30420  0.89480  1.0000 0.1101191212
H   H28       1.0  0.35240  0.17070  0.73420  1.0000 0.1301580632
H   H29       1.0  0.68470  0.85100  0.40530  1.0000 0.3211156621
H   H30       1.0  0.71150  0.79150  0.38760  1.0000 0.3602977041
H   H31       1.0  0.20540  0.53480  0.30997  1.0000 0.1164735848
H   H32       1.0  0.96030  0.50320  0.32797  1.0000 0.1301580632
H   H33       1.0  0.15360  0.67930  0.50287  1.0000 0.1301580632
H   H34       1.0  0.15020  0.74700  0.45437  1.0000 0.1551047806
H   H35       1.0  0.23930  0.74210  0.46207  1.0000 0.1401455363
H   H36       1.0  0.93390  0.64530  0.34867  1.0000 0.1504189465
H   H37       1.0  0.00530  0.58390  0.51377  1.0000 0.1504189465
H   H38       1.0  0.27100  0.62890  0.49447  1.0000 0.1401455363
H   H39       1.0  0.35450  0.67790  0.31707  1.0000 0.1401455363
H   H40       1.0  0.49520  0.71010  0.35017  1.0000 0.1301580632
H   H41       1.0  0.41570  0.66700  0.52357  1.0000 0.1101191212
H   H42       1.0  0.89380  0.58960  0.56147  1.0000 0.1101191212
H   H43       1.0  0.81830  0.64760  0.40087  1.0000 0.1301580632
H   H44       1.0  0.16630  0.31530  0.07197  1.0000 0.3211156621
H   H45       1.0  0.08000  0.28850  0.05427  1.0000 0.3602977041
H   H46       1.0  0.53480  0.20540  0.69003  1.0000 0.1164735848
H   H47       1.0  0.50320  0.96030  0.67203  1.0000 0.1301580632
H   H48       1.0  0.67930  0.15360  0.49713  1.0000 0.1301580632
H   H49       1.0  0.74700  0.15020  0.54563  1.0000 0.1551047806
H   H50       1.0  0.74210  0.23930  0.53793  1.0000 0.1401455363
H   H51       1.0  0.64530  0.93390  0.65133  1.0000 0.1504189465
H   H52       1.0  0.58390  0.00530  0.48623  1.0000 0.1504189465
H   H53       1.0  0.62890  0.27100  0.50553  1.0000 0.1401455363
H   H54       1.0  0.67790  0.35450  0.68293  1.0000 0.1401455363
H   H55       1.0  0.71010  0.49520  0.64983  1.0000 0.1301580632
H   H56       1.0  0.66700  0.41570  0.47643  1.0000 0.1101191212
H   H57       1.0  0.58960  0.89380  0.43853  1.0000 0.1101191212
H   H58       1.0  0.64760  0.81830  0.59913  1.0000 0.1301580632
H   H59       1.0  0.31530  0.16630  0.92803  1.0000 0.3211156621
H   H60       1.0  0.28850  0.08000  0.94573  1.0000 0.3602977041
H   H61       1.0  0.79460  0.32940  0.02337  1.0000 0.1164735848
H   H62       1.0  0.03970  0.54290  0.00537  1.0000 0.1301580632
H   H63       1.0  0.84640  0.52570  0.83047  1.0000 0.1301580632
H   H64       1.0  0.84980  0.59680  0.87897  1.0000 0.1551047806
H   H65       1.0  0.76070  0.50280  0.87127  1.0000 0.1401455363
H   H66       1.0  0.06610  0.71140  0.98467  1.0000 0.1504189465
H   H67       1.0  0.99470  0.57860  0.81957  1.0000 0.1504189465
H   H68       1.0  0.72900  0.35790  0.83887  1.0000 0.1401455363
H   H69       1.0  0.64550  0.32340  0.01627  1.0000 0.1401455363
H   H70       1.0  0.50480  0.21490  0.98317  1.0000 0.1301580632
H   H71       1.0  0.58430  0.25130  0.80977  1.0000 0.1101191212
H   H72       1.0  0.10620  0.69580  0.77187  1.0000 0.1101191212
H   H73       1.0  0.18170  0.82930  0.93247  1.0000 0.1301580632
H   H74       1.0  0.83370  0.14900  0.26137  1.0000 0.3211156621
H   H75       1.0  0.92000  0.20850  0.27907  1.0000 0.3602977041
H   H76       1.0  0.67060  0.46520  0.35670  1.0000 0.1164735848
H   H77       1.0  0.45710  0.49680  0.33870  1.0000 0.1301580632
H   H78       1.0  0.47430  0.32070  0.16380  1.0000 0.1301580632
H   H79       1.0  0.40320  0.25300  0.21230  1.0000 0.1551047806
H   H80       1.0  0.49720  0.25790  0.20460  1.0000 0.1401455363
H   H81       1.0  0.28860  0.35470  0.31800  1.0000 0.1504189465
H   H82       1.0  0.42140  0.41610  0.15290  1.0000 0.1504189465
H   H83       1.0  0.64210  0.37110  0.17220  1.0000 0.1401455363
H   H84       1.0  0.67660  0.32210  0.34960  1.0000 0.1401455363
H   H85       1.0  0.78510  0.28990  0.31650  1.0000 0.1301580632
H   H86       1.0  0.74870  0.33300  0.14310  1.0000 0.1101191212
H   H87       1.0  0.30420  0.41040  0.10520  1.0000 0.1101191212
H   H88       1.0  0.17070  0.35240  0.26580  1.0000 0.1301580632
H   H89       1.0  0.85100  0.68470  0.59470  1.0000 0.3211156621
H   H90       1.0  0.79150  0.71150  0.61240  1.0000 0.3602977041
C   C1        1.0  0.43350  0.92370  0.97687  1.0000 -0.0113100185
C   C2        1.0  0.38320  0.83390  0.99725  1.0000 -0.1447194572
C   C3        1.0  0.41170  0.80100  0.04833  1.0000 -0.0001219723
C   C4        1.0  0.49300  0.85870  0.07773  1.0000 0.098225429
C   C5        1.0  0.54310  0.94980  0.05713  1.0000 0.0111137014
C   C6        1.0  0.51010  0.97920  0.00709  1.0000 -0.13169921
C   C7        1.0  0.40030  0.95310  0.92201  1.0000 0.6038237158
C   C8        1.0  0.53340  0.82590  0.12903  1.0000 -0.4377602593
C   C9        1.0  0.70690  0.07540  0.05803  1.0000 -0.1712894644
C   C10       1.0  0.62660  0.02040  0.09163  1.0000 0.1301580632
C   C11       1.0  0.62880  0.03280  0.15603  1.0000 -0.1712894644
C   C12       1.0  0.32930  0.68480  0.13033  1.0000 -0.1814209427
C   C13       1.0  0.35020  0.70690  0.06873  1.0000 0.1301580632
C   C14       1.0  0.30830  0.63550  0.02623  1.0000 -0.1970868613
C   C15       1.0  0.24480  0.55030  0.04663  1.0000 0.098225429
C   C16       1.0  0.26550  0.59680  0.14783  1.0000 0.0937176291
C   C17       1.0  0.70380  0.10040  0.18382  1.0000 0.0711667482
C   C18       1.0  0.77750  0.14250  0.09013  1.0000 0.098225429
C   C19       1.0  0.49020  0.56650  0.64354  1.0000 -0.0113100185
C   C20       1.0  0.45070  0.61680  0.66392  1.0000 -0.1447194572
C   C21       1.0  0.38930  0.58830  0.71500  1.0000 -0.0001219723
C   C22       1.0  0.36570  0.50700  0.74440  1.0000 0.098225429
C   C23       1.0  0.40670  0.45690  0.72380  1.0000 0.0111137014
C   C24       1.0  0.46910  0.48990  0.67376  1.0000 -0.13169921
C   C25       1.0  0.55280  0.59970  0.58868  1.0000 0.6038237158
C   C26       1.0  0.29250  0.46660  0.79570  1.0000 -0.4377602593
C   C27       1.0  0.36850  0.29310  0.72470  1.0000 -0.1712894644
C   C28       1.0  0.39380  0.37340  0.75830  1.0000 0.1301580632
C   C29       1.0  0.40400  0.37120  0.82270  1.0000 -0.1712894644
C   C30       1.0  0.35550  0.67070  0.79700  1.0000 -0.1814209427
C   C31       1.0  0.35670  0.64980  0.73540  1.0000 0.1301580632
C   C32       1.0  0.32720  0.69170  0.69290  1.0000 -0.1970868613
C   C33       1.0  0.30550  0.75520  0.71330  1.0000 0.098225429
C   C34       1.0  0.33130  0.73450  0.81450  1.0000 0.0937176291
C   C35       1.0  0.39660  0.29620  0.85049  1.0000 0.0711667482
C   C36       1.0  0.36500  0.22250  0.75680  1.0000 0.098225429
C   C37       1.0  0.07630  0.50980  0.31021  1.0000 -0.0113100185
C   C38       1.0  0.16610  0.54930  0.33059  1.0000 -0.1447194572
C   C39       1.0  0.19900  0.61070  0.38167  1.0000 -0.0001219723
C   C40       1.0  0.14130  0.63430  0.41107  1.0000 0.098225429
C   C41       1.0  0.05020  0.59330  0.39047  1.0000 0.0111137014
C   C42       1.0  0.02080  0.53090  0.34043  1.0000 -0.13169921
C   C43       1.0  0.04690  0.44720  0.25535  1.0000 0.6038237158
C   C44       1.0  0.17410  0.70750  0.46237  1.0000 -0.4377602593
C   C45       1.0  0.92460  0.63150  0.39137  1.0000 -0.1712894644
C   C46       1.0  0.97960  0.60620  0.42497  1.0000 0.1301580632
C   C47       1.0  0.96720  0.59600  0.48937  1.0000 -0.1712894644
C   C48       1.0  0.31520  0.64450  0.46367  1.0000 -0.1814209427
C   C49       1.0  0.29310  0.64330  0.40207  1.0000 0.1301580632
C   C50       1.0  0.36450  0.67280  0.35957  1.0000 -0.1970868613
C   C51       1.0  0.44970  0.69450  0.37997  1.0000 0.098225429
C   C52       1.0  0.40320  0.66870  0.48117  1.0000 0.0937176291
C   C53       1.0  0.89960  0.60340  0.51716  1.0000 0.0711667482
C   C54       1.0  0.85750  0.63500  0.42347  1.0000 0.098225429
C   C55       1.0  0.50980  0.07630  0.68979  1.0000 -0.0113100185
C   C56       1.0  0.54930  0.16610  0.66941  1.0000 -0.1447194572
C   C57       1.0  0.61070  0.19900  0.61833  1.0000 -0.0001219723
C   C58       1.0  0.63430  0.14130  0.58893  1.0000 0.098225429
C   C59       1.0  0.59330  0.05020  0.60953  1.0000 0.0111137014
C   C60       1.0  0.53090  0.02080  0.65957  1.0000 -0.13169921
C   C61       1.0  0.44720  0.04690  0.74465  1.0000 0.6038237158
C   C62       1.0  0.70750  0.17410  0.53763  1.0000 -0.4377602593
C   C63       1.0  0.63150  0.92460  0.60863  1.0000 -0.1712894644
C   C64       1.0  0.60620  0.97960  0.57503  1.0000 0.1301580632
C   C65       1.0  0.59600  0.96720  0.51063  1.0000 -0.1712894644
C   C66       1.0  0.64450  0.31520  0.53633  1.0000 -0.1814209427
C   C67       1.0  0.64330  0.29310  0.59793  1.0000 0.1301580632
C   C68       1.0  0.67280  0.36450  0.64043  1.0000 -0.1970868613
C   C69       1.0  0.69450  0.44970  0.62003  1.0000 0.098225429
C   C70       1.0  0.66870  0.40320  0.51883  1.0000 0.0937176291
C   C71       1.0  0.60340  0.89960  0.48284  1.0000 0.0711667482
C   C72       1.0  0.63500  0.85750  0.57653  1.0000 0.098225429
C   C73       1.0  0.92370  0.43350  0.02313  1.0000 -0.0113100185
C   C74       1.0  0.83390  0.38320  0.00275  1.0000 -0.1447194572
C   C75       1.0  0.80100  0.41170  0.95167  1.0000 -0.0001219723
C   C76       1.0  0.85870  0.49300  0.92227  1.0000 0.098225429
C   C77       1.0  0.94980  0.54310  0.94287  1.0000 0.0111137014
C   C78       1.0  0.97920  0.51010  0.99291  1.0000 -0.13169921
C   C79       1.0  0.95310  0.40030  0.07799  1.0000 0.6038237158
C   C80       1.0  0.82590  0.53340  0.87097  1.0000 -0.4377602593
C   C81       1.0  0.07540  0.70690  0.94197  1.0000 -0.1712894644
C   C82       1.0  0.02040  0.62660  0.90837  1.0000 0.1301580632
C   C83       1.0  0.03280  0.62880  0.84397  1.0000 -0.1712894644
C   C84       1.0  0.68480  0.32930  0.86967  1.0000 -0.1814209427
C   C85       1.0  0.70690  0.35020  0.93127  1.0000 0.1301580632
C   C86       1.0  0.63550  0.30830  0.97377  1.0000 -0.1970868613
C   C87       1.0  0.55030  0.24480  0.95337  1.0000 0.098225429
C   C88       1.0  0.59680  0.26550  0.85217  1.0000 0.0937176291
C   C89       1.0  0.10040  0.70380  0.81618  1.0000 0.0711667482
C   C90       1.0  0.14250  0.77750  0.90987  1.0000 0.098225429
C   C91       1.0  0.56650  0.49020  0.35646  1.0000 -0.0113100185
C   C92       1.0  0.61680  0.45070  0.33608  1.0000 -0.1447194572
C   C93       1.0  0.58830  0.38930  0.28500  1.0000 -0.0001219723
C   C94       1.0  0.50700  0.36570  0.25560  1.0000 0.098225429
C   C95       1.0  0.45690  0.40670  0.27620  1.0000 0.0111137014
C   C96       1.0  0.48990  0.46910  0.32624  1.0000 -0.13169921
C   C97       1.0  0.59970  0.55280  0.41132  1.0000 0.6038237158
C   C98       1.0  0.46660  0.29250  0.20430  1.0000 -0.4377602593
C   C99       1.0  0.29310  0.36850  0.27530  1.0000 -0.1712894644
C   C100      1.0  0.37340  0.39380  0.24170  1.0000 0.1301580632
C   C101      1.0  0.37120  0.40400  0.17730  1.0000 -0.1712894644
C   C102      1.0  0.67070  0.35550  0.20300  1.0000 -0.1814209427
C   C103      1.0  0.64980  0.35670  0.26460  1.0000 0.1301580632
C   C104      1.0  0.69170  0.32720  0.30710  1.0000 -0.1970868613
C   C105      1.0  0.75520  0.30550  0.28670  1.0000 0.098225429
C   C106      1.0  0.73450  0.33130  0.18550  1.0000 0.0937176291
C   C107      1.0  0.29620  0.39660  0.14951  1.0000 0.0711667482
C   C108      1.0  0.22250  0.36500  0.24320  1.0000 0.098225429
N   N1        1.0  0.22420  0.53010  0.10655  1.0000 -0.2156909064
N   N2        1.0  0.77730  0.15580  0.15214  1.0000 -0.2448478099
N   N3        1.0  0.30590  0.77580  0.77322  1.0000 -0.2156909064
N   N4        1.0  0.37850  0.22270  0.81881  1.0000 -0.2448478099
N   N5        1.0  0.46990  0.69410  0.43989  1.0000 -0.2156909064
N   N6        1.0  0.84420  0.62150  0.48548  1.0000 -0.2448478099
N   N7        1.0  0.69410  0.46990  0.56011  1.0000 -0.2156909064
N   N8        1.0  0.62150  0.84420  0.51452  1.0000 -0.2448478099
N   N9        1.0  0.53010  0.22420  0.89345  1.0000 -0.2156909064
N   N10       1.0  0.15580  0.77730  0.84786  1.0000 -0.2448478099
N   N11       1.0  0.77580  0.30590  0.22678  1.0000 -0.2156909064
N   N12       1.0  0.22270  0.37850  0.18119  1.0000 -0.2448478099
N   N13       1.0  0.23900  0.99960  0.12310  1.0000 0.7231743379
N   N14       1.0  0.76060  0.76100  0.78977  1.0000 0.7231743379
N   N15       1.0  0.00040  0.23940  0.45643  1.0000 0.7231743379
N   N16       1.0  0.23940  0.00040  0.54357  1.0000 0.7231743379
N   N17       1.0  0.99960  0.23900  0.87690  1.0000 0.7231743379
N   N18       1.0  0.76100  0.76060  0.21023  1.0000 0.7231743379
Cl  Cl1       1.0  0.24959  0.00000  0.83333  1.0000 -0.5318423565
Cl  Cl2       1.0  0.75041  0.75041  0.50000  1.0000 -0.5318423565
Cl  Cl3       1.0  0.00000  0.24959  0.16667  1.0000 -0.5318423565
O   O1        1.0  0.34160  0.89180  0.88558  1.0000 -0.5650429781
O   O2        1.0  0.43032  0.03622  0.91554  1.0000 -0.5223709798
O   O3        1.0  0.20030  0.86646  0.72121  1.0000 -0.6233284231
O   O4        1.0  0.55020  0.65840  0.55225  1.0000 -0.5650429781
O   O5        1.0  0.60590  0.56968  0.58221  1.0000 -0.5223709798
O   O6        1.0  0.66616  0.79970  0.38788  1.0000 -0.6233284231
O   O7        1.0  0.10820  0.44980  0.21892  1.0000 -0.5650429781
O   O8        1.0  0.96378  0.39410  0.24888  1.0000 -0.5223709798
O   O9        1.0  0.13354  0.33384  0.05455  1.0000 -0.6233284231
O   O10       1.0  0.44980  0.10820  0.78108  1.0000 -0.5650429781
O   O11       1.0  0.39410  0.96378  0.75112  1.0000 -0.5223709798
O   O12       1.0  0.33384  0.13354  0.94545  1.0000 -0.6233284231
O   O13       1.0  0.89180  0.34160  0.11442  1.0000 -0.5650429781
O   O14       1.0  0.03622  0.43032  0.08446  1.0000 -0.5223709798
O   O15       1.0  0.86646  0.20030  0.27879  1.0000 -0.6233284231
O   O16       1.0  0.65840  0.55020  0.44775  1.0000 -0.5650429781
O   O17       1.0  0.56968  0.60590  0.41779  1.0000 -0.5223709798
O   O18       1.0  0.79970  0.66616  0.61212  1.0000 -0.6233284231
O   O19       1.0  0.28590  0.05300  0.17560  1.0000 -0.5223709798
O   O20       1.0  0.26340  0.95270  0.08910  1.0000 -0.466354624
O   O21       1.0  0.16880  0.00830  0.10700  1.0000 -0.415992349
O   O22       1.0  0.76710  0.71410  0.84227  1.0000 -0.5223709798
O   O23       1.0  0.68930  0.73660  0.75577  1.0000 -0.466354624
O   O24       1.0  0.83950  0.83120  0.77367  1.0000 -0.415992349
O   O25       1.0  0.94700  0.23290  0.50893  1.0000 -0.5223709798
O   O26       1.0  0.04730  0.31070  0.42243  1.0000 -0.466354624
O   O27       1.0  0.99170  0.16050  0.44033  1.0000 -0.415992349
O   O28       1.0  0.23290  0.94700  0.49107  1.0000 -0.5223709798
O   O29       1.0  0.31070  0.04730  0.57757  1.0000 -0.466354624
O   O30       1.0  0.16050  0.99170  0.55967  1.0000 -0.4144160505
O   O31       1.0  0.05300  0.28590  0.82440  1.0000 -0.5223709798
O   O32       1.0  0.95270  0.26340  0.91090  1.0000 -0.466354624
O   O33       1.0  0.00830  0.16880  0.89300  1.0000 -0.415992349
O   O34       1.0  0.71410  0.76710  0.15773  1.0000 -0.5223709798
O   O35       1.0  0.73660  0.68930  0.24423  1.0000 -0.466354624
O   O36       1.0  0.83120  0.83950  0.22633  1.0000 -0.415992349
