# DDEC6 charges by PACMAN v1.1 (https://github.com/mtap-research/PACMAN-charge/)
data_2020[Tb][pcu]3[ION]1
_chemical_formula_sum              "Tb12 H196 C260 N8 O92"
_cell_length_a       15.5565
_cell_length_b       23.3284
_cell_length_c       22.836
_cell_angle_alpha    90
_cell_angle_beta     119.39
_cell_angle_gamma    90

_symmetry_space_group_name_H-M    "P 1"
_symmetry_Int_Tables_number       1

loop_
  _symmetry_equiv_pos_as_xyz
  'x, y, z'

loop_
  _atom_site_type_symbol
  _atom_site_label
  _atom_site_symmetry_multiplicity
  _atom_site_fract_x
  _atom_site_fract_y
  _atom_site_fract_z
  _atom_site_occupancy
  _atom_site_charge
Tb  Tb1       1.0  0.24877  0.23142  0.41103  1.0000 2.0156467052
Tb  Tb2       1.0  0.99780  0.27698  0.24617  1.0000 2.0790195556
Tb  Tb3       1.0  0.74326  0.23278  0.08515  1.0000 1.9964528174
Tb  Tb4       1.0  0.75123  0.73142  0.08897  1.0000 2.0156467052
Tb  Tb5       1.0  0.00220  0.77698  0.25383  1.0000 2.0790195556
Tb  Tb6       1.0  0.25674  0.73278  0.41485  1.0000 1.9964528174
Tb  Tb7       1.0  0.75123  0.76858  0.58897  1.0000 2.0141670794
Tb  Tb8       1.0  0.00220  0.72302  0.75383  1.0000 2.0790195556
Tb  Tb9       1.0  0.25674  0.76722  0.91485  1.0000 1.9964528174
Tb  Tb10      1.0  0.24877  0.26858  0.91103  1.0000 2.0141670794
Tb  Tb11      1.0  0.99780  0.22302  0.74617  1.0000 2.0790195556
Tb  Tb12      1.0  0.74326  0.26722  0.58515  1.0000 1.9964528174
H   H1        1.0  0.04520  0.15460  0.27620  1.0000 0.3903183283
H   H2        1.0  0.95140  0.15500  0.22040  1.0000 0.3903183283
H   H3        1.0  0.23110  0.37655  0.48644  1.0000 0.1291904831
H   H4        1.0  0.26761  0.41792  0.58793  1.0000 0.1086631941
H   H5        1.0  0.27882  0.51803  0.60174  1.0000 0.1086631941
H   H6        1.0  0.26376  0.57636  0.51540  1.0000 0.1207894563
H   H7        1.0  0.17601  0.54878  0.29164  1.0000 0.1207894563
H   H8        1.0  0.14460  0.44996  0.27341  1.0000 0.1207894563
H   H9        1.0  0.94121  0.39394  0.11137  1.0000 0.1291904831
H   H10       1.0  0.03514  0.44701  0.07865  1.0000 0.1086631941
H   H11       1.0  0.00037  0.54476  0.05100  1.0000 0.1021737268
H   H12       1.0  0.88238  0.59091  0.06733  1.0000 0.1291904831
H   H13       1.0  0.64960  0.53241  0.12783  1.0000 0.1207894563
H   H14       1.0  0.66900  0.43231  0.13964  1.0000 0.1207894563
H   H15       1.0  0.73752  0.32029  0.27875  1.0000 0.1371206613
H   H16       1.0  0.73554  0.32611  0.37973  1.0000 0.1086631941
H   H17       1.0  0.78497  0.13551  0.45886  1.0000 0.1207894563
H   H18       1.0  0.80461  0.04944  0.41722  1.0000 0.1086631941
H   H19       1.0  0.80250  0.04529  0.31404  1.0000 0.1086631941
H   H20       1.0  0.77906  0.12748  0.25183  1.0000 0.1207894563
H   H21       1.0  0.01282  0.33639  0.03821  1.0000 0.1207894563
H   H22       1.0  0.02770  0.31921  0.94223  1.0000 0.1291904831
H   H23       1.0  0.00205  0.12064  0.91559  1.0000 0.1207894563
H   H24       1.0  0.97946  0.04539  0.97168  1.0000 0.1021737268
H   H25       1.0  0.96256  0.06200  0.06716  1.0000 0.1086631941
H   H26       1.0  0.96838  0.15428  0.10595  1.0000 0.1291904831
H   H27       1.0  0.22117  0.17449  0.19150  1.0000 0.1207894563
H   H28       1.0  0.22821  0.18591  0.09255  1.0000 0.1207894563
H   H29       1.0  0.27075  0.38434  0.07920  1.0000 0.1371206613
H   H30       1.0  0.29499  0.46086  0.14997  1.0000 0.1086631941
H   H31       1.0  0.29592  0.44712  0.25251  1.0000 0.1021737268
H   H32       1.0  0.27404  0.35694  0.28339  1.0000 0.1207894563
H   H33       1.0  0.50836  0.28104  0.55845  1.0000 0.1021737268
H   H34       1.0  0.95480  0.65460  0.22380  1.0000 0.3903183283
H   H35       1.0  0.04860  0.65500  0.27960  1.0000 0.3903183283
H   H36       1.0  0.76890  0.87655  0.01356  1.0000 0.1291904831
H   H37       1.0  0.73239  0.91792  0.91207  1.0000 0.1086631941
H   H38       1.0  0.72118  0.01803  0.89826  1.0000 0.1086631941
H   H39       1.0  0.73624  0.07636  0.98460  1.0000 0.1207894563
H   H40       1.0  0.82399  0.04878  0.20836  1.0000 0.1207894563
H   H41       1.0  0.85540  0.94996  0.22659  1.0000 0.1207894563
H   H42       1.0  0.05879  0.89394  0.38863  1.0000 0.1291904831
H   H43       1.0  0.96486  0.94701  0.42135  1.0000 0.1086631941
H   H44       1.0  0.99963  0.04476  0.44900  1.0000 0.1021737268
H   H45       1.0  0.11762  0.09091  0.43267  1.0000 0.1291904831
H   H46       1.0  0.35040  0.03241  0.37217  1.0000 0.1207894563
H   H47       1.0  0.33100  0.93231  0.36036  1.0000 0.1207894563
H   H48       1.0  0.26248  0.82029  0.22125  1.0000 0.1371206613
H   H49       1.0  0.26446  0.82611  0.12027  1.0000 0.1086631941
H   H50       1.0  0.21503  0.63551  0.04114  1.0000 0.1207894563
H   H51       1.0  0.19539  0.54944  0.08278  1.0000 0.1086631941
H   H52       1.0  0.19750  0.54529  0.18596  1.0000 0.1086631941
H   H53       1.0  0.22094  0.62748  0.24817  1.0000 0.1207894563
H   H54       1.0  0.98718  0.83639  0.46179  1.0000 0.1207894563
H   H55       1.0  0.97230  0.81921  0.55777  1.0000 0.1207894563
H   H56       1.0  0.99795  0.62064  0.58441  1.0000 0.1207894563
H   H57       1.0  0.02054  0.54539  0.52832  1.0000 0.1021737268
H   H58       1.0  0.03744  0.56200  0.43284  1.0000 0.1086631941
H   H59       1.0  0.03162  0.65428  0.39405  1.0000 0.1291904831
H   H60       1.0  0.77883  0.67449  0.30850  1.0000 0.1207894563
H   H61       1.0  0.77179  0.68591  0.40745  1.0000 0.1207894563
H   H62       1.0  0.72925  0.88434  0.42080  1.0000 0.1371206613
H   H63       1.0  0.70501  0.96086  0.35003  1.0000 0.1086631941
H   H64       1.0  0.70408  0.94712  0.24749  1.0000 0.1021737268
H   H65       1.0  0.72596  0.85694  0.21661  1.0000 0.1207894563
H   H66       1.0  0.49164  0.78104  0.94155  1.0000 0.1021737268
H   H67       1.0  0.95480  0.84540  0.72380  1.0000 0.3903183283
H   H68       1.0  0.04860  0.84500  0.77960  1.0000 0.3903183283
H   H69       1.0  0.76890  0.62345  0.51356  1.0000 0.1291904831
H   H70       1.0  0.73239  0.58208  0.41207  1.0000 0.1086631941
H   H71       1.0  0.72118  0.48197  0.39826  1.0000 0.1086631941
H   H72       1.0  0.73624  0.42364  0.48460  1.0000 0.1207894563
H   H73       1.0  0.82399  0.45122  0.70836  1.0000 0.1207894563
H   H74       1.0  0.85540  0.55004  0.72659  1.0000 0.1207894563
H   H75       1.0  0.05879  0.60606  0.88863  1.0000 0.1291904831
H   H76       1.0  0.96486  0.55299  0.92135  1.0000 0.1086631941
H   H77       1.0  0.99963  0.45524  0.94900  1.0000 0.1021737268
H   H78       1.0  0.11762  0.40909  0.93267  1.0000 0.1291904831
H   H79       1.0  0.35040  0.46759  0.87217  1.0000 0.1207894563
H   H80       1.0  0.33100  0.56769  0.86036  1.0000 0.1207894563
H   H81       1.0  0.26248  0.67971  0.72125  1.0000 0.1371206613
H   H82       1.0  0.26446  0.67389  0.62027  1.0000 0.1086631941
H   H83       1.0  0.21503  0.86449  0.54114  1.0000 0.1207894563
H   H84       1.0  0.19539  0.95056  0.58278  1.0000 0.1086631941
H   H85       1.0  0.19750  0.95471  0.68596  1.0000 0.1086631941
H   H86       1.0  0.22094  0.87252  0.74817  1.0000 0.1207894563
H   H87       1.0  0.98718  0.66361  0.96179  1.0000 0.1207894563
H   H88       1.0  0.97230  0.68079  0.05777  1.0000 0.1207894563
H   H89       1.0  0.99795  0.87936  0.08441  1.0000 0.1207894563
H   H90       1.0  0.02054  0.95461  0.02832  1.0000 0.1021737268
H   H91       1.0  0.03744  0.93800  0.93284  1.0000 0.1086631941
H   H92       1.0  0.03162  0.84572  0.89405  1.0000 0.1291904831
H   H93       1.0  0.77883  0.82551  0.80850  1.0000 0.1207894563
H   H94       1.0  0.77179  0.81409  0.90745  1.0000 0.1207894563
H   H95       1.0  0.72925  0.61566  0.92080  1.0000 0.1371206613
H   H96       1.0  0.70501  0.53914  0.85003  1.0000 0.1086631941
H   H97       1.0  0.70408  0.55288  0.74749  1.0000 0.1021737268
H   H98       1.0  0.72596  0.64306  0.71661  1.0000 0.1207894563
H   H99       1.0  0.49164  0.71896  0.44155  1.0000 0.1021737268
H   H100      1.0  0.04520  0.34540  0.77620  1.0000 0.3903183283
H   H101      1.0  0.95140  0.34500  0.72040  1.0000 0.3903183283
H   H102      1.0  0.23110  0.12345  0.98644  1.0000 0.1291904831
H   H103      1.0  0.26761  0.08208  0.08793  1.0000 0.1086631941
H   H104      1.0  0.27882  0.98197  0.10174  1.0000 0.1086631941
H   H105      1.0  0.26376  0.92364  0.01540  1.0000 0.1207894563
H   H106      1.0  0.17601  0.95122  0.79164  1.0000 0.1207894563
H   H107      1.0  0.14460  0.05004  0.77341  1.0000 0.1207894563
H   H108      1.0  0.94121  0.10606  0.61137  1.0000 0.1291904831
H   H109      1.0  0.03514  0.05299  0.57865  1.0000 0.1086631941
H   H110      1.0  0.00037  0.95524  0.55100  1.0000 0.1021737268
H   H111      1.0  0.88238  0.90909  0.56733  1.0000 0.1291904831
H   H112      1.0  0.64960  0.96759  0.62783  1.0000 0.1207894563
H   H113      1.0  0.66900  0.06769  0.63964  1.0000 0.1207894563
H   H114      1.0  0.73752  0.17971  0.77875  1.0000 0.1371206613
H   H115      1.0  0.73554  0.17389  0.87973  1.0000 0.1086631941
H   H116      1.0  0.78497  0.36449  0.95886  1.0000 0.1207894563
H   H117      1.0  0.80461  0.45056  0.91722  1.0000 0.1086631941
H   H118      1.0  0.80250  0.45471  0.81404  1.0000 0.1086631941
H   H119      1.0  0.77906  0.37252  0.75183  1.0000 0.1207894563
H   H120      1.0  0.01282  0.16361  0.53821  1.0000 0.1207894563
H   H121      1.0  0.02770  0.18079  0.44223  1.0000 0.1291904831
H   H122      1.0  0.00205  0.37936  0.41559  1.0000 0.1207894563
H   H123      1.0  0.97946  0.45461  0.47168  1.0000 0.1021737268
H   H124      1.0  0.96256  0.43800  0.56716  1.0000 0.1086631941
H   H125      1.0  0.96838  0.34572  0.60595  1.0000 0.1291904831
H   H126      1.0  0.22117  0.32551  0.69150  1.0000 0.1207894563
H   H127      1.0  0.22821  0.31409  0.59255  1.0000 0.1207894563
H   H128      1.0  0.27075  0.11566  0.57920  1.0000 0.1371206613
H   H129      1.0  0.29499  0.03914  0.64997  1.0000 0.1086631941
H   H130      1.0  0.29592  0.05288  0.75251  1.0000 0.1021737268
H   H131      1.0  0.27404  0.14306  0.78339  1.0000 0.1207894563
H   H132      1.0  0.50836  0.21896  0.05845  1.0000 0.1021737268
H   H133      1.0  0.42091  0.89885  0.02785  1.0000 0.269898119
H   H134      1.0  0.46308  0.94318  0.08027  1.0000 0.24930636
H   H135      1.0  0.40002  0.86134  0.10767  1.0000 0.1371206613
H   H136      1.0  0.50714  0.88239  0.16363  1.0000 0.1291904831
H   H137      1.0  0.49647  0.82982  0.11549  1.0000 0.1500971296
H   H138      1.0  0.55760  0.92800  0.03098  1.0000 0.1291904831
H   H139      1.0  0.57601  0.86442  0.06106  1.0000 0.1500971296
H   H140      1.0  0.61665  0.91836  0.11060  1.0000 0.1207894563
H   H141      1.0  0.46258  0.81050  0.55342  1.0000 0.269898119
H   H142      1.0  0.54966  0.84807  0.58227  1.0000 0.269898119
H   H143      1.0  0.42696  0.89414  0.49295  1.0000 0.1371206613
H   H144      1.0  0.45120  0.92820  0.56016  1.0000 0.1291904831
H   H145      1.0  0.35757  0.88651  0.52591  1.0000 0.1291904831
H   H146      1.0  0.53001  0.80470  0.66459  1.0000 0.1371206613
H   H147      1.0  0.42705  0.83779  0.63594  1.0000 0.1291904831
H   H148      1.0  0.52824  0.87312  0.66887  1.0000 0.1291904831
H   H149      1.0  0.57909  0.39885  0.47215  1.0000 0.2646406682
H   H150      1.0  0.53692  0.44318  0.41973  1.0000 0.24930636
H   H151      1.0  0.59998  0.36134  0.39233  1.0000 0.1371206613
H   H152      1.0  0.49286  0.38239  0.33637  1.0000 0.1291904831
H   H153      1.0  0.50353  0.32982  0.38451  1.0000 0.1500971296
H   H154      1.0  0.44240  0.42800  0.46902  1.0000 0.1291904831
H   H155      1.0  0.42399  0.36442  0.43894  1.0000 0.1500971296
H   H156      1.0  0.38335  0.41836  0.38940  1.0000 0.1207894563
H   H157      1.0  0.53742  0.31050  0.94658  1.0000 0.269898119
H   H158      1.0  0.45034  0.34807  0.91773  1.0000 0.269898119
H   H159      1.0  0.57304  0.39414  0.00705  1.0000 0.1371206613
H   H160      1.0  0.54880  0.42820  0.93984  1.0000 0.1291904831
H   H161      1.0  0.64243  0.38651  0.97409  1.0000 0.1291904831
H   H162      1.0  0.46999  0.30470  0.83541  1.0000 0.1371206613
H   H163      1.0  0.57295  0.33779  0.86406  1.0000 0.1291904831
H   H164      1.0  0.47176  0.37312  0.83113  1.0000 0.1291904831
H   H165      1.0  0.57909  0.10115  0.97215  1.0000 0.2646406682
H   H166      1.0  0.53692  0.05682  0.91973  1.0000 0.24930636
H   H167      1.0  0.59998  0.13866  0.89233  1.0000 0.1371206613
H   H168      1.0  0.49286  0.11761  0.83637  1.0000 0.1291904831
H   H169      1.0  0.50353  0.17018  0.88451  1.0000 0.1500971296
H   H170      1.0  0.44240  0.07200  0.96902  1.0000 0.1291904831
H   H171      1.0  0.42399  0.13558  0.93894  1.0000 0.1500971296
H   H172      1.0  0.38335  0.08164  0.88940  1.0000 0.1207894563
H   H173      1.0  0.53742  0.18950  0.44658  1.0000 0.269898119
H   H174      1.0  0.45034  0.15193  0.41773  1.0000 0.269898119
H   H175      1.0  0.57304  0.10586  0.50705  1.0000 0.1371206613
H   H176      1.0  0.54880  0.07180  0.43984  1.0000 0.1291904831
H   H177      1.0  0.64243  0.11349  0.47409  1.0000 0.1291904831
H   H178      1.0  0.46999  0.19530  0.33541  1.0000 0.1371206613
H   H179      1.0  0.57295  0.16221  0.36406  1.0000 0.1291904831
H   H180      1.0  0.47176  0.12688  0.33113  1.0000 0.1291904831
H   H181      1.0  0.42091  0.60115  0.52785  1.0000 0.2646406682
H   H182      1.0  0.46308  0.55682  0.58027  1.0000 0.24930636
H   H183      1.0  0.40002  0.63866  0.60767  1.0000 0.1371206613
H   H184      1.0  0.50714  0.61761  0.66363  1.0000 0.1291904831
H   H185      1.0  0.49647  0.67018  0.61549  1.0000 0.1500971296
H   H186      1.0  0.55760  0.57200  0.53098  1.0000 0.1291904831
H   H187      1.0  0.57601  0.63558  0.56106  1.0000 0.1500971296
H   H188      1.0  0.61665  0.58164  0.61060  1.0000 0.1207894563
H   H189      1.0  0.46258  0.68950  0.05342  1.0000 0.269898119
H   H190      1.0  0.54966  0.65193  0.08227  1.0000 0.269898119
H   H191      1.0  0.42696  0.60586  0.99295  1.0000 0.1371206613
H   H192      1.0  0.45120  0.57180  0.06016  1.0000 0.1291904831
H   H193      1.0  0.35757  0.61349  0.02591  1.0000 0.1291904831
H   H194      1.0  0.53001  0.69530  0.16459  1.0000 0.1371206613
H   H195      1.0  0.42705  0.66221  0.13594  1.0000 0.1291904831
H   H196      1.0  0.52824  0.62688  0.16887  1.0000 0.1291904831
C   C1        1.0  0.17497  0.36610  0.35422  1.0000 0.6264883296
C   C2        1.0  0.19189  0.42927  0.37069  1.0000 -0.0620921614
C   C3        1.0  0.22445  0.45157  0.43655  1.0000 0.0493737749
C   C4        1.0  0.23719  0.41701  0.49139  1.0000 -0.1315344062
C   C5        1.0  0.25841  0.44168  0.55151  1.0000 -0.1003991513
C   C6        1.0  0.26670  0.50161  0.56030  1.0000 -0.1077158193
C   C7        1.0  0.25718  0.53602  0.50908  1.0000 -0.1654827206
C   C8        1.0  0.23763  0.51222  0.44643  1.0000 0.0493737749
C   C9        1.0  0.22339  0.54756  0.39119  1.0000 -0.0733318312
C   C10       1.0  0.18844  0.52445  0.32834  1.0000 -0.120438353
C   C11       1.0  0.17099  0.46519  0.31749  1.0000 -0.120438353
C   C12       1.0  0.24325  0.61055  0.39918  1.0000 0.5715337337
C   C13       1.0  0.80743  0.36514  0.14533  1.0000 0.638534555
C   C14       1.0  0.78927  0.42804  0.12787  1.0000 -0.0495989842
C   C15       1.0  0.85221  0.46022  0.11071  1.0000 0.0596238273
C   C16       1.0  0.92850  0.43376  0.10260  1.0000 -0.120438353
C   C17       1.0  0.98340  0.46501  0.08260  1.0000 -0.1077158193
C   C18       1.0  0.96420  0.52393  0.06750  1.0000 -0.1077158193
C   C19       1.0  0.89360  0.55106  0.07650  1.0000 -0.1315344062
C   C20       1.0  0.83670  0.52031  0.09950  1.0000 0.0596238273
C   C21       1.0  0.76249  0.54731  0.11059  1.0000 -0.0620921614
C   C22       1.0  0.70133  0.51451  0.12383  1.0000 -0.120438353
C   C23       1.0  0.71349  0.45445  0.13169  1.0000 -0.1315344062
C   C24       1.0  0.75571  0.61128  0.11181  1.0000 0.5802632065
C   C25       1.0  0.75616  0.23188  0.21462  1.0000 0.6264883296
C   C26       1.0  0.75520  0.23472  0.27968  1.0000 -0.0387058493
C   C27       1.0  0.74428  0.28631  0.30358  1.0000 -0.1077158193
C   C28       1.0  0.74286  0.28956  0.36436  1.0000 -0.1003991513
C   C29       1.0  0.75170  0.24179  0.40310  1.0000 -0.0845864548
C   C30       1.0  0.76621  0.18653  0.37981  1.0000 0.0596238273
C   C31       1.0  0.78259  0.13470  0.41649  1.0000 -0.1408022682
C   C32       1.0  0.79500  0.08356  0.39200  1.0000 -0.1003991513
C   C33       1.0  0.79380  0.08103  0.33040  1.0000 -0.1003991513
C   C34       1.0  0.77999  0.12967  0.29369  1.0000 -0.1315344062
C   C35       1.0  0.76710  0.18363  0.31730  1.0000 0.0493737749
C   C36       1.0  0.74481  0.25053  0.46471  1.0000 0.5499626042
C   C37       1.0  0.98010  0.26872  0.11473  1.0000 0.6075073944
C   C38       1.0  0.98896  0.25406  0.05439  1.0000 -0.0620921614
C   C39       1.0  0.00689  0.29836  0.02179  1.0000 -0.1077158193
C   C40       1.0  0.01655  0.28800  0.96439  1.0000 -0.1077158193
C   C41       1.0  0.01000  0.23301  0.94004  1.0000 -0.0620921614
C   C42       1.0  0.99522  0.18577  0.97435  1.0000 0.0596238273
C   C43       1.0  0.99400  0.12810  0.95350  1.0000 -0.1315344062
C   C44       1.0  0.98136  0.08349  0.98696  1.0000 -0.1003991513
C   C45       1.0  0.97122  0.09344  0.04412  1.0000 -0.0947885079
C   C46       1.0  0.97372  0.14824  0.06672  1.0000 -0.120438353
C   C47       1.0  0.98432  0.19628  0.03207  1.0000 0.0596238273
C   C48       1.0  0.01476  0.22509  0.87731  1.0000 0.6075073944
C   C49       1.0  0.24578  0.24879  0.28508  1.0000 0.595212111
C   C50       1.0  0.24648  0.25780  0.22148  1.0000 -0.0495989842
C   C51       1.0  0.23288  0.21149  0.17948  1.0000 -0.120438353
C   C52       1.0  0.23609  0.21864  0.11949  1.0000 -0.1003991513
C   C53       1.0  0.25000  0.27037  0.09866  1.0000 -0.0620921614
C   C54       1.0  0.26118  0.32108  0.13888  1.0000 0.0596238273
C   C55       1.0  0.27255  0.37786  0.12085  1.0000 -0.1408022682
C   C56       1.0  0.28602  0.42348  0.16262  1.0000 -0.1077158193
C   C57       1.0  0.28680  0.41535  0.22400  1.0000 -0.1003991513
C   C58       1.0  0.27431  0.36196  0.24221  1.0000 -0.1315344062
C   C59       1.0  0.26175  0.31345  0.20135  1.0000 0.0685375423
C   C60       1.0  0.25067  0.27234  0.03318  1.0000 0.5715337337
C   C61       1.0  0.49914  0.25958  0.52044  1.0000 0.539152527
C   C62       1.0  0.82503  0.86610  0.14578  1.0000 0.6264883296
C   C63       1.0  0.80811  0.92927  0.12931  1.0000 -0.0620921614
C   C64       1.0  0.77555  0.95157  0.06345  1.0000 0.0493737749
C   C65       1.0  0.76281  0.91701  0.00861  1.0000 -0.1315344062
C   C66       1.0  0.74159  0.94168  0.94849  1.0000 -0.1003991513
C   C67       1.0  0.73330  0.00161  0.93970  1.0000 -0.1077158193
C   C68       1.0  0.74282  0.03602  0.99092  1.0000 -0.1654827206
C   C69       1.0  0.76237  0.01222  0.05357  1.0000 0.0493737749
C   C70       1.0  0.77661  0.04756  0.10881  1.0000 -0.0733318312
C   C71       1.0  0.81156  0.02445  0.17166  1.0000 -0.120438353
C   C72       1.0  0.82901  0.96519  0.18251  1.0000 -0.120438353
C   C73       1.0  0.75675  0.11055  0.10082  1.0000 0.5715337337
C   C74       1.0  0.19257  0.86514  0.35467  1.0000 0.638534555
C   C75       1.0  0.21073  0.92804  0.37213  1.0000 -0.0495989842
C   C76       1.0  0.14779  0.96022  0.38929  1.0000 0.0596238273
C   C77       1.0  0.07150  0.93376  0.39740  1.0000 -0.120438353
C   C78       1.0  0.01660  0.96501  0.41740  1.0000 -0.1077158193
C   C79       1.0  0.03580  0.02393  0.43250  1.0000 -0.1077158193
C   C80       1.0  0.10640  0.05106  0.42350  1.0000 -0.1315344062
C   C81       1.0  0.16330  0.02031  0.40050  1.0000 0.0596238273
C   C82       1.0  0.23751  0.04731  0.38941  1.0000 -0.0620921614
C   C83       1.0  0.29867  0.01451  0.37617  1.0000 -0.120438353
C   C84       1.0  0.28651  0.95445  0.36831  1.0000 -0.1315344062
C   C85       1.0  0.24429  0.11128  0.38819  1.0000 0.5802632065
C   C86       1.0  0.24384  0.73188  0.28538  1.0000 0.6264883296
C   C87       1.0  0.24480  0.73472  0.22032  1.0000 -0.0387058493
C   C88       1.0  0.25572  0.78631  0.19642  1.0000 -0.1077158193
C   C89       1.0  0.25714  0.78956  0.13564  1.0000 -0.1003991513
C   C90       1.0  0.24830  0.74179  0.09690  1.0000 -0.0845864548
C   C91       1.0  0.23379  0.68653  0.12019  1.0000 0.0596238273
C   C92       1.0  0.21741  0.63470  0.08351  1.0000 -0.1408022682
C   C93       1.0  0.20500  0.58356  0.10800  1.0000 -0.1003991513
C   C94       1.0  0.20620  0.58103  0.16960  1.0000 -0.1003991513
C   C95       1.0  0.22001  0.62967  0.20631  1.0000 -0.1315344062
C   C96       1.0  0.23290  0.68363  0.18270  1.0000 0.0493737749
C   C97       1.0  0.25519  0.75053  0.03529  1.0000 0.5499626042
C   C98       1.0  0.01990  0.76872  0.38527  1.0000 0.6075073944
C   C99       1.0  0.01104  0.75406  0.44561  1.0000 -0.0620921614
C   C100      1.0  0.99311  0.79836  0.47821  1.0000 -0.1077158193
C   C101      1.0  0.98345  0.78800  0.53561  1.0000 -0.1077158193
C   C102      1.0  0.99000  0.73301  0.55996  1.0000 -0.0620921614
C   C103      1.0  0.00478  0.68577  0.52565  1.0000 0.0596238273
C   C104      1.0  0.00600  0.62810  0.54650  1.0000 -0.1315344062
C   C105      1.0  0.01864  0.58349  0.51304  1.0000 -0.1003991513
C   C106      1.0  0.02878  0.59344  0.45588  1.0000 -0.0947885079
C   C107      1.0  0.02628  0.64824  0.43328  1.0000 -0.120438353
C   C108      1.0  0.01568  0.69628  0.46793  1.0000 0.0596238273
C   C109      1.0  0.98524  0.72509  0.62269  1.0000 0.6075073944
C   C110      1.0  0.75422  0.74879  0.21492  1.0000 0.595212111
C   C111      1.0  0.75352  0.75780  0.27852  1.0000 -0.0495989842
C   C112      1.0  0.76712  0.71149  0.32052  1.0000 -0.120438353
C   C113      1.0  0.76391  0.71864  0.38051  1.0000 -0.1003991513
C   C114      1.0  0.75000  0.77037  0.40134  1.0000 -0.0620921614
C   C115      1.0  0.73882  0.82108  0.36112  1.0000 0.0596238273
C   C116      1.0  0.72745  0.87786  0.37915  1.0000 -0.1408022682
C   C117      1.0  0.71398  0.92348  0.33738  1.0000 -0.1077158193
C   C118      1.0  0.71320  0.91535  0.27600  1.0000 -0.1077158193
C   C119      1.0  0.72569  0.86196  0.25779  1.0000 -0.1315344062
C   C120      1.0  0.73825  0.81345  0.29865  1.0000 0.0685375423
C   C121      1.0  0.74933  0.77234  0.46682  1.0000 0.5715337337
C   C122      1.0  0.50086  0.75958  0.97956  1.0000 0.539152527
C   C123      1.0  0.82503  0.63390  0.64578  1.0000 0.6264883296
C   C124      1.0  0.80811  0.57073  0.62931  1.0000 -0.0620921614
C   C125      1.0  0.77555  0.54843  0.56345  1.0000 0.0493737749
C   C126      1.0  0.76281  0.58299  0.50861  1.0000 -0.1315344062
C   C127      1.0  0.74159  0.55832  0.44849  1.0000 -0.1003991513
C   C128      1.0  0.73330  0.49839  0.43970  1.0000 -0.1077158193
C   C129      1.0  0.74282  0.46398  0.49092  1.0000 -0.1654827206
C   C130      1.0  0.76237  0.48778  0.55357  1.0000 0.0493737749
C   C131      1.0  0.77661  0.45244  0.60881  1.0000 -0.0733318312
C   C132      1.0  0.81156  0.47555  0.67166  1.0000 -0.120438353
C   C133      1.0  0.82901  0.53481  0.68251  1.0000 -0.120438353
C   C134      1.0  0.75675  0.38945  0.60082  1.0000 0.5715337337
C   C135      1.0  0.19257  0.63486  0.85467  1.0000 0.638534555
C   C136      1.0  0.21073  0.57196  0.87213  1.0000 -0.0495989842
C   C137      1.0  0.14779  0.53978  0.88929  1.0000 0.0596238273
C   C138      1.0  0.07150  0.56624  0.89740  1.0000 -0.120438353
C   C139      1.0  0.01660  0.53499  0.91740  1.0000 -0.1077158193
C   C140      1.0  0.03580  0.47607  0.93250  1.0000 -0.1077158193
C   C141      1.0  0.10640  0.44894  0.92350  1.0000 -0.1315344062
C   C142      1.0  0.16330  0.47969  0.90050  1.0000 0.0596238273
C   C143      1.0  0.23751  0.45269  0.88941  1.0000 -0.0620921614
C   C144      1.0  0.29867  0.48549  0.87617  1.0000 -0.120438353
C   C145      1.0  0.28651  0.54555  0.86831  1.0000 -0.1315344062
C   C146      1.0  0.24429  0.38872  0.88819  1.0000 0.5802632065
C   C147      1.0  0.24384  0.76812  0.78538  1.0000 0.6264883296
C   C148      1.0  0.24480  0.76528  0.72032  1.0000 -0.0387058493
C   C149      1.0  0.25572  0.71369  0.69642  1.0000 -0.1077158193
C   C150      1.0  0.25714  0.71044  0.63564  1.0000 -0.1003991513
C   C151      1.0  0.24830  0.75821  0.59690  1.0000 -0.0845864548
C   C152      1.0  0.23379  0.81347  0.62019  1.0000 0.0596238273
C   C153      1.0  0.21741  0.86530  0.58351  1.0000 -0.1408022682
C   C154      1.0  0.20500  0.91644  0.60800  1.0000 -0.1003991513
C   C155      1.0  0.20620  0.91897  0.66960  1.0000 -0.1003991513
C   C156      1.0  0.22001  0.87033  0.70631  1.0000 -0.1315344062
C   C157      1.0  0.23290  0.81637  0.68270  1.0000 0.0493737749
C   C158      1.0  0.25519  0.74947  0.53529  1.0000 0.5499626042
C   C159      1.0  0.01990  0.73128  0.88527  1.0000 0.6075073944
C   C160      1.0  0.01104  0.74594  0.94561  1.0000 -0.0620921614
C   C161      1.0  0.99311  0.70164  0.97821  1.0000 -0.1077158193
C   C162      1.0  0.98345  0.71200  0.03561  1.0000 -0.1077158193
C   C163      1.0  0.99000  0.76699  0.05996  1.0000 -0.0620921614
C   C164      1.0  0.00478  0.81423  0.02565  1.0000 0.0596238273
C   C165      1.0  0.00600  0.87190  0.04650  1.0000 -0.1315344062
C   C166      1.0  0.01864  0.91651  0.01304  1.0000 -0.1003991513
C   C167      1.0  0.02878  0.90656  0.95588  1.0000 -0.0947885079
C   C168      1.0  0.02628  0.85176  0.93328  1.0000 -0.120438353
C   C169      1.0  0.01568  0.80372  0.96793  1.0000 0.0596238273
C   C170      1.0  0.98524  0.77491  0.12269  1.0000 0.6075073944
C   C171      1.0  0.75422  0.75121  0.71492  1.0000 0.595212111
C   C172      1.0  0.75352  0.74220  0.77852  1.0000 -0.0495989842
C   C173      1.0  0.76712  0.78851  0.82052  1.0000 -0.120438353
C   C174      1.0  0.76391  0.78136  0.88051  1.0000 -0.1003991513
C   C175      1.0  0.75000  0.72963  0.90134  1.0000 -0.0620921614
C   C176      1.0  0.73882  0.67892  0.86112  1.0000 0.0596238273
C   C177      1.0  0.72745  0.62214  0.87915  1.0000 -0.1408022682
C   C178      1.0  0.71398  0.57652  0.83738  1.0000 -0.1077158193
C   C179      1.0  0.71320  0.58465  0.77600  1.0000 -0.1003991513
C   C180      1.0  0.72569  0.63804  0.75779  1.0000 -0.1315344062
C   C181      1.0  0.73825  0.68655  0.79865  1.0000 0.0685375423
C   C182      1.0  0.74933  0.72766  0.96682  1.0000 0.5715337337
C   C183      1.0  0.50086  0.74042  0.47956  1.0000 0.539152527
C   C184      1.0  0.17497  0.13390  0.85422  1.0000 0.6264883296
C   C185      1.0  0.19189  0.07073  0.87069  1.0000 -0.0620921614
C   C186      1.0  0.22445  0.04843  0.93655  1.0000 0.0493737749
C   C187      1.0  0.23719  0.08299  0.99139  1.0000 -0.1315344062
C   C188      1.0  0.25841  0.05832  0.05151  1.0000 -0.1003991513
C   C189      1.0  0.26670  0.99839  0.06030  1.0000 -0.1077158193
C   C190      1.0  0.25718  0.96398  0.00908  1.0000 -0.1654827206
C   C191      1.0  0.23763  0.98778  0.94643  1.0000 0.0493737749
C   C192      1.0  0.22339  0.95244  0.89119  1.0000 -0.0733318312
C   C193      1.0  0.18844  0.97555  0.82834  1.0000 -0.120438353
C   C194      1.0  0.17099  0.03481  0.81749  1.0000 -0.120438353
C   C195      1.0  0.24325  0.88945  0.89918  1.0000 0.5715337337
C   C196      1.0  0.80743  0.13486  0.64533  1.0000 0.638534555
C   C197      1.0  0.78927  0.07196  0.62787  1.0000 -0.0495989842
C   C198      1.0  0.85221  0.03978  0.61071  1.0000 0.0596238273
C   C199      1.0  0.92850  0.06624  0.60260  1.0000 -0.120438353
C   C200      1.0  0.98340  0.03499  0.58260  1.0000 -0.1077158193
C   C201      1.0  0.96420  0.97607  0.56750  1.0000 -0.1077158193
C   C202      1.0  0.89360  0.94894  0.57650  1.0000 -0.1315344062
C   C203      1.0  0.83670  0.97969  0.59950  1.0000 0.0596238273
C   C204      1.0  0.76249  0.95269  0.61059  1.0000 -0.0620921614
C   C205      1.0  0.70133  0.98549  0.62383  1.0000 -0.120438353
C   C206      1.0  0.71349  0.04555  0.63169  1.0000 -0.1315344062
C   C207      1.0  0.75571  0.88872  0.61181  1.0000 0.5802632065
C   C208      1.0  0.75616  0.26812  0.71462  1.0000 0.6264883296
C   C209      1.0  0.75520  0.26528  0.77968  1.0000 -0.0387058493
C   C210      1.0  0.74428  0.21369  0.80358  1.0000 -0.1077158193
C   C211      1.0  0.74286  0.21044  0.86436  1.0000 -0.1003991513
C   C212      1.0  0.75170  0.25821  0.90310  1.0000 -0.0845864548
C   C213      1.0  0.76621  0.31347  0.87981  1.0000 0.0596238273
C   C214      1.0  0.78259  0.36530  0.91649  1.0000 -0.1408022682
C   C215      1.0  0.79500  0.41644  0.89200  1.0000 -0.1003991513
C   C216      1.0  0.79380  0.41897  0.83040  1.0000 -0.1003991513
C   C217      1.0  0.77999  0.37033  0.79369  1.0000 -0.1315344062
C   C218      1.0  0.76710  0.31637  0.81730  1.0000 0.0493737749
C   C219      1.0  0.74481  0.24947  0.96471  1.0000 0.5499626042
C   C220      1.0  0.98010  0.23128  0.61473  1.0000 0.6075073944
C   C221      1.0  0.98896  0.24594  0.55439  1.0000 -0.0620921614
C   C222      1.0  0.00689  0.20164  0.52179  1.0000 -0.1077158193
C   C223      1.0  0.01655  0.21200  0.46439  1.0000 -0.1077158193
C   C224      1.0  0.01000  0.26699  0.44004  1.0000 -0.0620921614
C   C225      1.0  0.99522  0.31423  0.47435  1.0000 0.0596238273
C   C226      1.0  0.99400  0.37190  0.45350  1.0000 -0.1315344062
C   C227      1.0  0.98136  0.41651  0.48696  1.0000 -0.1003991513
C   C228      1.0  0.97122  0.40656  0.54412  1.0000 -0.0947885079
C   C229      1.0  0.97372  0.35176  0.56672  1.0000 -0.120438353
C   C230      1.0  0.98432  0.30372  0.53207  1.0000 0.0596238273
C   C231      1.0  0.01476  0.27491  0.37731  1.0000 0.6075073944
C   C232      1.0  0.24578  0.25121  0.78508  1.0000 0.595212111
C   C233      1.0  0.24648  0.24220  0.72148  1.0000 -0.0495989842
C   C234      1.0  0.23288  0.28851  0.67948  1.0000 -0.120438353
C   C235      1.0  0.23609  0.28136  0.61949  1.0000 -0.1003991513
C   C236      1.0  0.25000  0.22963  0.59866  1.0000 -0.0620921614
C   C237      1.0  0.26118  0.17892  0.63888  1.0000 0.0596238273
C   C238      1.0  0.27255  0.12214  0.62085  1.0000 -0.1408022682
C   C239      1.0  0.28602  0.07652  0.66262  1.0000 -0.1077158193
C   C240      1.0  0.28680  0.08465  0.72400  1.0000 -0.1003991513
C   C241      1.0  0.27431  0.13804  0.74221  1.0000 -0.1315344062
C   C242      1.0  0.26175  0.18655  0.70135  1.0000 0.0685375423
C   C243      1.0  0.25067  0.22766  0.53318  1.0000 0.5715337337
C   C244      1.0  0.49914  0.24042  0.02044  1.0000 0.539152527
C   C245      1.0  0.46850  0.86680  0.11810  1.0000 -0.2974971864
C   C246      1.0  0.56270  0.90420  0.06790  1.0000 -0.2974971864
C   C247      1.0  0.42560  0.89230  0.53540  1.0000 -0.2974971864
C   C248      1.0  0.49380  0.83950  0.64180  1.0000 -0.2896429135
C   C249      1.0  0.53150  0.36680  0.38190  1.0000 -0.2974971864
C   C250      1.0  0.43730  0.40420  0.43210  1.0000 -0.2974971864
C   C251      1.0  0.57440  0.39230  0.96460  1.0000 -0.2974971864
C   C252      1.0  0.50620  0.33950  0.85820  1.0000 -0.2896429135
C   C253      1.0  0.53150  0.13320  0.88190  1.0000 -0.2974971864
C   C254      1.0  0.43730  0.09580  0.93210  1.0000 -0.2974971864
C   C255      1.0  0.57440  0.10770  0.46460  1.0000 -0.2974971864
C   C256      1.0  0.50620  0.16050  0.35820  1.0000 -0.2896429135
C   C257      1.0  0.46850  0.63320  0.61810  1.0000 -0.2974971864
C   C258      1.0  0.56270  0.59580  0.56790  1.0000 -0.2974971864
C   C259      1.0  0.42560  0.60770  0.03540  1.0000 -0.2974971864
C   C260      1.0  0.49380  0.66050  0.14180  1.0000 -0.2896429135
N   N1        1.0  0.47180  0.90690  0.06960  1.0000 -0.1003991513
N   N2        1.0  0.48772  0.84377  0.57632  1.0000 -0.1003991513
N   N3        1.0  0.52820  0.40690  0.43040  1.0000 -0.1003991513
N   N4        1.0  0.51228  0.34377  0.92368  1.0000 -0.1003991513
N   N5        1.0  0.52820  0.09310  0.93040  1.0000 -0.1003991513
N   N6        1.0  0.51228  0.15623  0.42368  1.0000 -0.1003991513
N   N7        1.0  0.47180  0.59310  0.56960  1.0000 -0.1003991513
N   N8        1.0  0.48772  0.65623  0.07632  1.0000 -0.0947885079
O   O1        1.0  0.00301  0.17425  0.24375  1.0000 -0.7405172198
O   O2        1.0  0.09906  0.35385  0.30016  1.0000 -0.6404739528
O   O3        1.0  0.23819  0.33107  0.39434  1.0000 -0.6525756626
O   O4        1.0  0.17604  0.64390  0.35921  1.0000 -0.6108134447
O   O5        1.0  0.32525  0.63017  0.44363  1.0000 -0.6108134447
O   O6        1.0  0.73785  0.33055  0.11354  1.0000 -0.6404739528
O   O7        1.0  0.89278  0.35246  0.19067  1.0000 -0.6404739528
O   O8        1.0  0.67239  0.63550  0.08735  1.0000 -0.6274004786
O   O9        1.0  0.83352  0.64072  0.13737  1.0000 -0.6108134447
O   O10       1.0  0.67753  0.22017  0.16169  1.0000 -0.6209177806
O   O11       1.0  0.83527  0.24166  0.21335  1.0000 -0.7110037713
O   O12       1.0  0.74434  0.30100  0.48469  1.0000 -0.6209177806
O   O13       1.0  0.73689  0.20847  0.49651  1.0000 -0.6108134447
O   O14       1.0  0.91251  0.24512  0.12425  1.0000 -0.771683207
O   O15       1.0  0.03901  0.30316  0.15781  1.0000 -0.5817440508
O   O16       1.0  0.95755  0.19155  0.83245  1.0000 -0.5657346754
O   O17       1.0  0.07583  0.25584  0.86737  1.0000 -0.7607172041
O   O18       1.0  0.16423  0.24278  0.28474  1.0000 -0.7244776396
O   O19       1.0  0.32579  0.24569  0.33899  1.0000 -0.5997555165
O   O20       1.0  0.24753  0.22487  0.00532  1.0000 -0.6209177806
O   O21       1.0  0.25290  0.31888  0.00518  1.0000 -0.6209177806
O   O22       1.0  0.41590  0.24295  0.48313  1.0000 -0.5817440508
O   O23       1.0  0.57405  0.25184  0.51483  1.0000 -0.5997555165
O   O24       1.0  0.99699  0.67425  0.25625  1.0000 -0.7405172198
O   O25       1.0  0.90094  0.85385  0.19984  1.0000 -0.6404739528
O   O26       1.0  0.76181  0.83107  0.10566  1.0000 -0.6525756626
O   O27       1.0  0.82396  0.14390  0.14079  1.0000 -0.6108134447
O   O28       1.0  0.67475  0.13017  0.05637  1.0000 -0.6108134447
O   O29       1.0  0.26215  0.83055  0.38646  1.0000 -0.6404739528
O   O30       1.0  0.10722  0.85246  0.30933  1.0000 -0.6404739528
O   O31       1.0  0.32761  0.13550  0.41265  1.0000 -0.6274004786
O   O32       1.0  0.16648  0.14072  0.36263  1.0000 -0.6108134447
O   O33       1.0  0.32247  0.72017  0.33831  1.0000 -0.6209177806
O   O34       1.0  0.16473  0.74166  0.28665  1.0000 -0.7110037713
O   O35       1.0  0.25566  0.80100  0.01531  1.0000 -0.6209177806
O   O36       1.0  0.26311  0.70847  0.00349  1.0000 -0.6108134447
O   O37       1.0  0.08749  0.74512  0.37575  1.0000 -0.771683207
O   O38       1.0  0.96099  0.80316  0.34219  1.0000 -0.5817440508
O   O39       1.0  0.04245  0.69155  0.66755  1.0000 -0.5657346754
O   O40       1.0  0.92417  0.75584  0.63263  1.0000 -0.7607172041
O   O41       1.0  0.83577  0.74278  0.21526  1.0000 -0.7244776396
O   O42       1.0  0.67421  0.74569  0.16101  1.0000 -0.5997555165
O   O43       1.0  0.75247  0.72487  0.49468  1.0000 -0.6209177806
O   O44       1.0  0.74710  0.81888  0.49482  1.0000 -0.6209177806
O   O45       1.0  0.58410  0.74295  0.01687  1.0000 -0.5817440508
O   O46       1.0  0.42595  0.75184  0.98517  1.0000 -0.5997555165
O   O47       1.0  0.99699  0.82575  0.75625  1.0000 -0.7405172198
O   O48       1.0  0.90094  0.64615  0.69984  1.0000 -0.6404739528
O   O49       1.0  0.76181  0.66893  0.60566  1.0000 -0.6525756626
O   O50       1.0  0.82396  0.35610  0.64079  1.0000 -0.6108134447
O   O51       1.0  0.67475  0.36983  0.55637  1.0000 -0.6108134447
O   O52       1.0  0.26215  0.66945  0.88646  1.0000 -0.6404739528
O   O53       1.0  0.10722  0.64754  0.80933  1.0000 -0.6404739528
O   O54       1.0  0.32761  0.36450  0.91265  1.0000 -0.6274004786
O   O55       1.0  0.16648  0.35928  0.86263  1.0000 -0.6108134447
O   O56       1.0  0.32247  0.77983  0.83831  1.0000 -0.6209177806
O   O57       1.0  0.16473  0.75834  0.78665  1.0000 -0.7110037713
O   O58       1.0  0.25566  0.69900  0.51531  1.0000 -0.6209177806
O   O59       1.0  0.26311  0.79153  0.50349  1.0000 -0.6108134447
O   O60       1.0  0.08749  0.75488  0.87575  1.0000 -0.771683207
O   O61       1.0  0.96099  0.69684  0.84219  1.0000 -0.5817440508
O   O62       1.0  0.04245  0.80845  0.16755  1.0000 -0.5657346754
O   O63       1.0  0.92417  0.74416  0.13263  1.0000 -0.7607172041
O   O64       1.0  0.83577  0.75722  0.71526  1.0000 -0.7244776396
O   O65       1.0  0.67421  0.75431  0.66101  1.0000 -0.5997555165
O   O66       1.0  0.75247  0.77513  0.99468  1.0000 -0.6209177806
O   O67       1.0  0.74710  0.68112  0.99482  1.0000 -0.6209177806
O   O68       1.0  0.58410  0.75705  0.51687  1.0000 -0.5817440508
O   O69       1.0  0.42595  0.74816  0.48517  1.0000 -0.5997555165
O   O70       1.0  0.00301  0.32575  0.74375  1.0000 -0.7405172198
O   O71       1.0  0.09906  0.14615  0.80016  1.0000 -0.6404739528
O   O72       1.0  0.23819  0.16893  0.89434  1.0000 -0.6525756626
O   O73       1.0  0.17604  0.85610  0.85921  1.0000 -0.6108134447
O   O74       1.0  0.32525  0.86983  0.94363  1.0000 -0.6108134447
O   O75       1.0  0.73785  0.16945  0.61354  1.0000 -0.6404739528
O   O76       1.0  0.89278  0.14754  0.69067  1.0000 -0.6404739528
O   O77       1.0  0.67239  0.86450  0.58735  1.0000 -0.6274004786
O   O78       1.0  0.83352  0.85928  0.63737  1.0000 -0.6108134447
O   O79       1.0  0.67753  0.27983  0.66169  1.0000 -0.6209177806
O   O80       1.0  0.83527  0.25834  0.71335  1.0000 -0.7110037713
O   O81       1.0  0.74434  0.19900  0.98469  1.0000 -0.6209177806
O   O82       1.0  0.73689  0.29153  0.99651  1.0000 -0.6108134447
O   O83       1.0  0.91251  0.25488  0.62425  1.0000 -0.771683207
O   O84       1.0  0.03901  0.19684  0.65781  1.0000 -0.5817440508
O   O85       1.0  0.95755  0.30845  0.33245  1.0000 -0.5657346754
O   O86       1.0  0.07583  0.24416  0.36737  1.0000 -0.7607172041
O   O87       1.0  0.16423  0.25722  0.78474  1.0000 -0.7244776396
O   O88       1.0  0.32579  0.25431  0.83899  1.0000 -0.5997555165
O   O89       1.0  0.24753  0.27513  0.50532  1.0000 -0.6209177806
O   O90       1.0  0.25290  0.18112  0.50518  1.0000 -0.6209177806
O   O91       1.0  0.41590  0.25705  0.98313  1.0000 -0.5817440508
O   O92       1.0  0.57405  0.24816  0.01483  1.0000 -0.5997555165
