# DDEC6 charges by PACMAN v1.1 (https://github.com/mtap-research/PACMAN-charge/)
data_2020[Ni][hcb]2[ION]1
_chemical_formula_sum              "Ni8 H312 C360 N24 O96"
_cell_length_a       22.2847
_cell_length_b       22.2847
_cell_length_c       22.2847
_cell_angle_alpha    104.255
_cell_angle_beta     104.255
_cell_angle_gamma    104.255

_symmetry_space_group_name_H-M    "P 1"
_symmetry_Int_Tables_number       1

loop_
  _symmetry_equiv_pos_as_xyz
  'x, y, z'

loop_
  _atom_site_type_symbol
  _atom_site_label
  _atom_site_symmetry_multiplicity
  _atom_site_fract_x
  _atom_site_fract_y
  _atom_site_fract_z
  _atom_site_occupancy
  _atom_site_charge
Ni  Ni1       1.0  0.81391  0.29895  0.32198  1.0000 0.9371149729
Ni  Ni2       1.0  0.29895  0.32198  0.81391  1.0000 0.9371149729
Ni  Ni3       1.0  0.32198  0.81391  0.29895  1.0000 0.9371149729
Ni  Ni4       1.0  0.18609  0.70105  0.67802  1.0000 0.9371149729
Ni  Ni5       1.0  0.70105  0.67802  0.18609  1.0000 0.9371149729
Ni  Ni6       1.0  0.67802  0.18609  0.70105  1.0000 0.9371149729
Ni  Ni7       1.0  0.19091  0.19091  0.19091  1.0000 0.9622135947
Ni  Ni8       1.0  0.80909  0.80909  0.80909  1.0000 0.9622135947
H   H1        1.0  0.74763  0.18029  0.29210  1.0000 0.3416075416
H   H2        1.0  0.80960  0.18790  0.33184  1.0000 0.3602905065
H   H3        1.0  0.77500  0.23704  0.20159  1.0000 0.3329280208
H   H4        1.0  0.82376  0.29356  0.21119  1.0000 0.3416075416
H   H5        1.0  0.69348  0.26274  0.27058  1.0000 0.3416075416
H   H6        1.0  0.70948  0.31859  0.32269  1.0000 0.3416075416
H   H7        1.0  0.29462  0.17584  0.18246  1.0000 0.320845295
H   H8        1.0  0.31594  0.23209  0.23389  1.0000 0.2880426834
H   H9        1.0  0.01682  0.60485  0.75855  1.0000 0.1314809094
H   H10       1.0  0.06705  0.71147  0.76904  1.0000 0.1409191082
H   H11       1.0  0.89037  0.72745  0.69846  1.0000 0.1409191082
H   H12       1.0  0.84417  0.61984  0.68818  1.0000 0.1203164231
H   H13       1.0  0.98357  0.93334  0.73396  1.0000 0.1314809094
H   H14       1.0  0.93383  0.82452  0.71370  1.0000 0.1409191082
H   H15       1.0  0.11038  0.80652  0.77842  1.0000 0.1409191082
H   H16       1.0  0.15685  0.91661  0.79952  1.0000 0.1314809094
H   H17       1.0  0.91056  0.41412  0.52570  1.0000 0.1203164231
H   H18       1.0  0.95276  0.47933  0.63447  1.0000 0.1203164231
H   H19       1.0  0.77475  0.48896  0.62945  1.0000 0.1203164231
H   H20       1.0  0.73340  0.42509  0.52071  1.0000 0.1203164231
H   H21       1.0  0.92685  0.51734  0.73865  1.0000 0.1409191082
H   H22       1.0  0.85964  0.52976  0.73304  1.0000 0.1409191082
H   H23       1.0  0.27090  0.09398  0.97855  1.0000 0.1203164231
H   H24       1.0  0.22705  0.04480  0.86684  1.0000 0.1314809094
H   H25       1.0  0.04968  0.04483  0.87429  1.0000 0.1203164231
H   H26       1.0  0.09403  0.09713  0.98645  1.0000 0.1203164231
H   H27       1.0  0.14010  0.01452  0.76632  1.0000 0.1409191082
H   H28       1.0  0.07328  0.02530  0.76739  1.0000 0.1409191082
H   H29       1.0  0.19916  0.35429  0.61551  1.0000 0.1314809094
H   H30       1.0  0.21625  0.40422  0.72349  1.0000 0.1486463446
H   H31       1.0  0.27590  0.57800  0.69750  1.0000 0.1486463446
H   H32       1.0  0.25750  0.52391  0.58954  1.0000 0.1314809094
H   H33       1.0  0.23857  0.50394  0.92387  1.0000 0.1314809094
H   H34       1.0  0.21637  0.45269  0.81534  1.0000 0.1486463446
H   H35       1.0  0.30785  0.62305  0.79920  1.0000 0.1409191082
H   H36       1.0  0.32971  0.67093  0.90892  1.0000 0.1314809094
H   H37       1.0  0.02729  0.22601  0.43865  1.0000 0.1203164231
H   H38       1.0  0.13850  0.27646  0.49074  1.0000 0.1203164231
H   H39       1.0  0.12189  0.44512  0.46819  1.0000 0.110782294
H   H40       1.0  0.01110  0.39341  0.41334  1.0000 0.1203164231
H   H41       1.0  0.23135  0.43115  0.50244  1.0000 0.1203164231
H   H42       1.0  0.23623  0.36759  0.51886  1.0000 0.1314809094
H   H43       1.0  0.49349  0.59659  0.09212  1.0000 0.1203164231
H   H44       1.0  0.38204  0.56098  0.03940  1.0000 0.1203164231
H   H45       1.0  0.39158  0.74232  0.03875  1.0000 0.1314809094
H   H46       1.0  0.50391  0.77766  0.08897  1.0000 0.1203164231
H   H47       1.0  0.28604  0.66089  0.00465  1.0000 0.1409191082
H   H48       1.0  0.28075  0.59332  0.01618  1.0000 0.1409191082
H   H49       1.0  0.18029  0.29210  0.74763  1.0000 0.3416075416
H   H50       1.0  0.18790  0.33184  0.80960  1.0000 0.3602905065
H   H51       1.0  0.23704  0.20159  0.77500  1.0000 0.3329280208
H   H52       1.0  0.29356  0.21119  0.82376  1.0000 0.3416075416
H   H53       1.0  0.26274  0.27058  0.69348  1.0000 0.3416075416
H   H54       1.0  0.31859  0.32269  0.70948  1.0000 0.3416075416
H   H55       1.0  0.17584  0.18246  0.29462  1.0000 0.320845295
H   H56       1.0  0.23209  0.23389  0.31594  1.0000 0.2880426834
H   H57       1.0  0.60485  0.75855  0.01682  1.0000 0.1314809094
H   H58       1.0  0.71147  0.76904  0.06705  1.0000 0.1409191082
H   H59       1.0  0.72745  0.69846  0.89037  1.0000 0.1409191082
H   H60       1.0  0.61984  0.68818  0.84417  1.0000 0.1203164231
H   H61       1.0  0.93334  0.73396  0.98357  1.0000 0.1314809094
H   H62       1.0  0.82452  0.71370  0.93383  1.0000 0.1409191082
H   H63       1.0  0.80652  0.77842  0.11038  1.0000 0.1409191082
H   H64       1.0  0.91661  0.79952  0.15685  1.0000 0.1314809094
H   H65       1.0  0.41412  0.52570  0.91056  1.0000 0.1203164231
H   H66       1.0  0.47933  0.63447  0.95276  1.0000 0.1203164231
H   H67       1.0  0.48896  0.62945  0.77475  1.0000 0.1203164231
H   H68       1.0  0.42509  0.52071  0.73340  1.0000 0.1203164231
H   H69       1.0  0.51734  0.73865  0.92685  1.0000 0.1409191082
H   H70       1.0  0.52976  0.73304  0.85964  1.0000 0.1409191082
H   H71       1.0  0.09398  0.97855  0.27090  1.0000 0.1203164231
H   H72       1.0  0.04480  0.86684  0.22705  1.0000 0.1314809094
H   H73       1.0  0.04483  0.87429  0.04968  1.0000 0.1203164231
H   H74       1.0  0.09713  0.98645  0.09403  1.0000 0.1203164231
H   H75       1.0  0.01452  0.76632  0.14010  1.0000 0.1409191082
H   H76       1.0  0.02530  0.76739  0.07328  1.0000 0.1409191082
H   H77       1.0  0.35429  0.61551  0.19916  1.0000 0.1314809094
H   H78       1.0  0.40422  0.72349  0.21625  1.0000 0.1486463446
H   H79       1.0  0.57800  0.69750  0.27590  1.0000 0.1486463446
H   H80       1.0  0.52391  0.58954  0.25750  1.0000 0.1314809094
H   H81       1.0  0.50394  0.92387  0.23857  1.0000 0.1314809094
H   H82       1.0  0.45269  0.81534  0.21637  1.0000 0.1486463446
H   H83       1.0  0.62305  0.79920  0.30785  1.0000 0.1409191082
H   H84       1.0  0.67093  0.90892  0.32971  1.0000 0.1314809094
H   H85       1.0  0.22601  0.43865  0.02729  1.0000 0.1203164231
H   H86       1.0  0.27646  0.49074  0.13850  1.0000 0.1203164231
H   H87       1.0  0.44512  0.46819  0.12189  1.0000 0.110782294
H   H88       1.0  0.39341  0.41334  0.01110  1.0000 0.1203164231
H   H89       1.0  0.43115  0.50244  0.23135  1.0000 0.1203164231
H   H90       1.0  0.36759  0.51886  0.23623  1.0000 0.1314809094
H   H91       1.0  0.59659  0.09212  0.49349  1.0000 0.1203164231
H   H92       1.0  0.56098  0.03940  0.38204  1.0000 0.1203164231
H   H93       1.0  0.74232  0.03875  0.39158  1.0000 0.1314809094
H   H94       1.0  0.77766  0.08897  0.50391  1.0000 0.1203164231
H   H95       1.0  0.66089  0.00465  0.28604  1.0000 0.1409191082
H   H96       1.0  0.59332  0.01618  0.28075  1.0000 0.1409191082
H   H97       1.0  0.29210  0.74763  0.18029  1.0000 0.3416075416
H   H98       1.0  0.33184  0.80960  0.18790  1.0000 0.3602905065
H   H99       1.0  0.20159  0.77500  0.23704  1.0000 0.3329280208
H   H100      1.0  0.21119  0.82376  0.29356  1.0000 0.3416075416
H   H101      1.0  0.27058  0.69348  0.26274  1.0000 0.3416075416
H   H102      1.0  0.32269  0.70948  0.31859  1.0000 0.3416075416
H   H103      1.0  0.18246  0.29462  0.17584  1.0000 0.320845295
H   H104      1.0  0.23389  0.31594  0.23209  1.0000 0.2880426834
H   H105      1.0  0.75855  0.01682  0.60485  1.0000 0.1314809094
H   H106      1.0  0.76904  0.06705  0.71147  1.0000 0.1409191082
H   H107      1.0  0.69846  0.89037  0.72745  1.0000 0.1409191082
H   H108      1.0  0.68818  0.84417  0.61984  1.0000 0.1203164231
H   H109      1.0  0.73396  0.98357  0.93334  1.0000 0.1314809094
H   H110      1.0  0.71370  0.93383  0.82452  1.0000 0.1409191082
H   H111      1.0  0.77842  0.11038  0.80652  1.0000 0.1409191082
H   H112      1.0  0.79952  0.15685  0.91661  1.0000 0.1314809094
H   H113      1.0  0.52570  0.91056  0.41412  1.0000 0.1203164231
H   H114      1.0  0.63447  0.95276  0.47933  1.0000 0.1203164231
H   H115      1.0  0.62945  0.77475  0.48896  1.0000 0.1203164231
H   H116      1.0  0.52071  0.73340  0.42509  1.0000 0.1203164231
H   H117      1.0  0.73865  0.92685  0.51734  1.0000 0.1409191082
H   H118      1.0  0.73304  0.85964  0.52976  1.0000 0.1409191082
H   H119      1.0  0.97855  0.27090  0.09398  1.0000 0.1203164231
H   H120      1.0  0.86684  0.22705  0.04480  1.0000 0.1314809094
H   H121      1.0  0.87429  0.04968  0.04483  1.0000 0.1203164231
H   H122      1.0  0.98645  0.09403  0.09713  1.0000 0.1203164231
H   H123      1.0  0.76632  0.14010  0.01452  1.0000 0.1409191082
H   H124      1.0  0.76739  0.07328  0.02530  1.0000 0.1409191082
H   H125      1.0  0.61551  0.19916  0.35429  1.0000 0.1314809094
H   H126      1.0  0.72349  0.21625  0.40422  1.0000 0.1486463446
H   H127      1.0  0.69750  0.27590  0.57800  1.0000 0.1486463446
H   H128      1.0  0.58954  0.25750  0.52391  1.0000 0.1314809094
H   H129      1.0  0.92387  0.23857  0.50394  1.0000 0.1314809094
H   H130      1.0  0.81534  0.21637  0.45269  1.0000 0.1486463446
H   H131      1.0  0.79920  0.30785  0.62305  1.0000 0.1409191082
H   H132      1.0  0.90892  0.32971  0.67093  1.0000 0.1314809094
H   H133      1.0  0.43865  0.02729  0.22601  1.0000 0.1203164231
H   H134      1.0  0.49074  0.13850  0.27646  1.0000 0.1203164231
H   H135      1.0  0.46819  0.12189  0.44512  1.0000 0.110782294
H   H136      1.0  0.41334  0.01110  0.39341  1.0000 0.1203164231
H   H137      1.0  0.50244  0.23135  0.43115  1.0000 0.1203164231
H   H138      1.0  0.51886  0.23623  0.36759  1.0000 0.1314809094
H   H139      1.0  0.09212  0.49349  0.59659  1.0000 0.1203164231
H   H140      1.0  0.03940  0.38204  0.56098  1.0000 0.1203164231
H   H141      1.0  0.03875  0.39158  0.74232  1.0000 0.1314809094
H   H142      1.0  0.08897  0.50391  0.77766  1.0000 0.1203164231
H   H143      1.0  0.00465  0.28604  0.66089  1.0000 0.1409191082
H   H144      1.0  0.01618  0.28075  0.59332  1.0000 0.1409191082
H   H145      1.0  0.25237  0.81971  0.70790  1.0000 0.3416075416
H   H146      1.0  0.19040  0.81210  0.66816  1.0000 0.3602905065
H   H147      1.0  0.22500  0.76296  0.79841  1.0000 0.3329280208
H   H148      1.0  0.17624  0.70644  0.78881  1.0000 0.3416075416
H   H149      1.0  0.30652  0.73726  0.72942  1.0000 0.3416075416
H   H150      1.0  0.29052  0.68141  0.67731  1.0000 0.3416075416
H   H151      1.0  0.70538  0.82416  0.81754  1.0000 0.320845295
H   H152      1.0  0.68406  0.76791  0.76611  1.0000 0.2880426834
H   H153      1.0  0.98318  0.39515  0.24145  1.0000 0.1314809094
H   H154      1.0  0.93295  0.28853  0.23096  1.0000 0.1409191082
H   H155      1.0  0.10963  0.27255  0.30154  1.0000 0.1409191082
H   H156      1.0  0.15583  0.38016  0.31182  1.0000 0.1203164231
H   H157      1.0  0.01643  0.06666  0.26604  1.0000 0.1314809094
H   H158      1.0  0.06617  0.17548  0.28630  1.0000 0.1409191082
H   H159      1.0  0.88962  0.19348  0.22158  1.0000 0.1409191082
H   H160      1.0  0.84315  0.08339  0.20048  1.0000 0.1314809094
H   H161      1.0  0.08944  0.58588  0.47430  1.0000 0.1203164231
H   H162      1.0  0.04724  0.52067  0.36553  1.0000 0.1203164231
H   H163      1.0  0.22525  0.51104  0.37055  1.0000 0.1203164231
H   H164      1.0  0.26660  0.57491  0.47929  1.0000 0.1203164231
H   H165      1.0  0.07315  0.48266  0.26135  1.0000 0.1409191082
H   H166      1.0  0.14036  0.47024  0.26696  1.0000 0.1409191082
H   H167      1.0  0.72910  0.90602  0.02145  1.0000 0.1203164231
H   H168      1.0  0.77295  0.95520  0.13316  1.0000 0.1314809094
H   H169      1.0  0.95032  0.95517  0.12571  1.0000 0.1203164231
H   H170      1.0  0.90597  0.90287  0.01355  1.0000 0.1203164231
H   H171      1.0  0.85990  0.98548  0.23368  1.0000 0.1409191082
H   H172      1.0  0.92672  0.97470  0.23261  1.0000 0.1409191082
H   H173      1.0  0.80084  0.64571  0.38449  1.0000 0.1314809094
H   H174      1.0  0.78375  0.59578  0.27651  1.0000 0.1486463446
H   H175      1.0  0.72410  0.42200  0.30250  1.0000 0.1486463446
H   H176      1.0  0.74250  0.47609  0.41046  1.0000 0.1314809094
H   H177      1.0  0.76143  0.49606  0.07613  1.0000 0.1314809094
H   H178      1.0  0.78363  0.54731  0.18466  1.0000 0.1486463446
H   H179      1.0  0.69215  0.37695  0.20080  1.0000 0.1409191082
H   H180      1.0  0.67029  0.32907  0.09108  1.0000 0.1314809094
H   H181      1.0  0.97271  0.77399  0.56135  1.0000 0.1203164231
H   H182      1.0  0.86150  0.72354  0.50926  1.0000 0.1203164231
H   H183      1.0  0.87811  0.55488  0.53181  1.0000 0.110782294
H   H184      1.0  0.98890  0.60659  0.58666  1.0000 0.1203164231
H   H185      1.0  0.76865  0.56885  0.49756  1.0000 0.1203164231
H   H186      1.0  0.76377  0.63241  0.48114  1.0000 0.1314809094
H   H187      1.0  0.50651  0.40341  0.90788  1.0000 0.1203164231
H   H188      1.0  0.61796  0.43902  0.96060  1.0000 0.1203164231
H   H189      1.0  0.60842  0.25768  0.96125  1.0000 0.1314809094
H   H190      1.0  0.49609  0.22234  0.91103  1.0000 0.1203164231
H   H191      1.0  0.71396  0.33911  0.99535  1.0000 0.1409191082
H   H192      1.0  0.71925  0.40668  0.98382  1.0000 0.1409191082
H   H193      1.0  0.81971  0.70790  0.25237  1.0000 0.3416075416
H   H194      1.0  0.81210  0.66816  0.19040  1.0000 0.3602905065
H   H195      1.0  0.76296  0.79841  0.22500  1.0000 0.3329280208
H   H196      1.0  0.70644  0.78881  0.17624  1.0000 0.3416075416
H   H197      1.0  0.73726  0.72942  0.30652  1.0000 0.3416075416
H   H198      1.0  0.68141  0.67731  0.29052  1.0000 0.3456139455
H   H199      1.0  0.82416  0.81754  0.70538  1.0000 0.320845295
H   H200      1.0  0.76791  0.76611  0.68406  1.0000 0.2880426834
H   H201      1.0  0.39515  0.24145  0.98318  1.0000 0.1314809094
H   H202      1.0  0.28853  0.23096  0.93295  1.0000 0.1409191082
H   H203      1.0  0.27255  0.30154  0.10963  1.0000 0.1409191082
H   H204      1.0  0.38016  0.31182  0.15583  1.0000 0.1203164231
H   H205      1.0  0.06666  0.26604  0.01643  1.0000 0.1314809094
H   H206      1.0  0.17548  0.28630  0.06617  1.0000 0.1409191082
H   H207      1.0  0.19348  0.22158  0.88962  1.0000 0.1409191082
H   H208      1.0  0.08339  0.20048  0.84315  1.0000 0.1314809094
H   H209      1.0  0.58588  0.47430  0.08944  1.0000 0.1203164231
H   H210      1.0  0.52067  0.36553  0.04724  1.0000 0.1203164231
H   H211      1.0  0.51104  0.37055  0.22525  1.0000 0.1203164231
H   H212      1.0  0.57491  0.47929  0.26660  1.0000 0.1203164231
H   H213      1.0  0.48266  0.26135  0.07315  1.0000 0.1409191082
H   H214      1.0  0.47024  0.26696  0.14036  1.0000 0.1409191082
H   H215      1.0  0.90602  0.02145  0.72910  1.0000 0.1203164231
H   H216      1.0  0.95520  0.13316  0.77295  1.0000 0.1314809094
H   H217      1.0  0.95517  0.12571  0.95032  1.0000 0.1203164231
H   H218      1.0  0.90287  0.01355  0.90597  1.0000 0.1203164231
H   H219      1.0  0.98548  0.23368  0.85990  1.0000 0.1409191082
H   H220      1.0  0.97470  0.23261  0.92672  1.0000 0.1409191082
H   H221      1.0  0.64571  0.38449  0.80084  1.0000 0.1314809094
H   H222      1.0  0.59578  0.27651  0.78375  1.0000 0.1486463446
H   H223      1.0  0.42200  0.30250  0.72410  1.0000 0.1486463446
H   H224      1.0  0.47609  0.41046  0.74250  1.0000 0.1314809094
H   H225      1.0  0.49606  0.07613  0.76143  1.0000 0.1314809094
H   H226      1.0  0.54731  0.18466  0.78363  1.0000 0.1486463446
H   H227      1.0  0.37695  0.20080  0.69215  1.0000 0.1409191082
H   H228      1.0  0.32907  0.09108  0.67029  1.0000 0.1314809094
H   H229      1.0  0.77399  0.56135  0.97271  1.0000 0.1203164231
H   H230      1.0  0.72354  0.50926  0.86150  1.0000 0.1203164231
H   H231      1.0  0.55488  0.53181  0.87811  1.0000 0.110782294
H   H232      1.0  0.60659  0.58666  0.98890  1.0000 0.1203164231
H   H233      1.0  0.56885  0.49756  0.76865  1.0000 0.1203164231
H   H234      1.0  0.63241  0.48114  0.76377  1.0000 0.1314809094
H   H235      1.0  0.40341  0.90788  0.50651  1.0000 0.1203164231
H   H236      1.0  0.43902  0.96060  0.61796  1.0000 0.1203164231
H   H237      1.0  0.25768  0.96125  0.60842  1.0000 0.1314809094
H   H238      1.0  0.22234  0.91103  0.49609  1.0000 0.1203164231
H   H239      1.0  0.33911  0.99535  0.71396  1.0000 0.1409191082
H   H240      1.0  0.40668  0.98382  0.71925  1.0000 0.1409191082
H   H241      1.0  0.70790  0.25237  0.81971  1.0000 0.3416075416
H   H242      1.0  0.66816  0.19040  0.81210  1.0000 0.3602905065
H   H243      1.0  0.79841  0.22500  0.76296  1.0000 0.3329280208
H   H244      1.0  0.78881  0.17624  0.70644  1.0000 0.3416075416
H   H245      1.0  0.72942  0.30652  0.73726  1.0000 0.3416075416
H   H246      1.0  0.67731  0.29052  0.68141  1.0000 0.3416075416
H   H247      1.0  0.81754  0.70538  0.82416  1.0000 0.320845295
H   H248      1.0  0.76611  0.68406  0.76791  1.0000 0.2880426834
H   H249      1.0  0.24145  0.98318  0.39515  1.0000 0.1314809094
H   H250      1.0  0.23096  0.93295  0.28853  1.0000 0.1409191082
H   H251      1.0  0.30154  0.10963  0.27255  1.0000 0.1409191082
H   H252      1.0  0.31182  0.15583  0.38016  1.0000 0.1203164231
H   H253      1.0  0.26604  0.01643  0.06666  1.0000 0.1314809094
H   H254      1.0  0.28630  0.06617  0.17548  1.0000 0.1409191082
H   H255      1.0  0.22158  0.88962  0.19348  1.0000 0.1409191082
H   H256      1.0  0.20048  0.84315  0.08339  1.0000 0.1314809094
H   H257      1.0  0.47430  0.08944  0.58588  1.0000 0.1203164231
H   H258      1.0  0.36553  0.04724  0.52067  1.0000 0.1203164231
H   H259      1.0  0.37055  0.22525  0.51104  1.0000 0.1203164231
H   H260      1.0  0.47929  0.26660  0.57491  1.0000 0.1203164231
H   H261      1.0  0.26135  0.07315  0.48266  1.0000 0.1409191082
H   H262      1.0  0.26696  0.14036  0.47024  1.0000 0.1409191082
H   H263      1.0  0.02145  0.72910  0.90602  1.0000 0.1203164231
H   H264      1.0  0.13316  0.77295  0.95520  1.0000 0.1314809094
H   H265      1.0  0.12571  0.95032  0.95517  1.0000 0.1203164231
H   H266      1.0  0.01355  0.90597  0.90287  1.0000 0.1203164231
H   H267      1.0  0.23368  0.85990  0.98548  1.0000 0.1409191082
H   H268      1.0  0.23261  0.92672  0.97470  1.0000 0.1409191082
H   H269      1.0  0.38449  0.80084  0.64571  1.0000 0.1314809094
H   H270      1.0  0.27651  0.78375  0.59578  1.0000 0.1486463446
H   H271      1.0  0.30250  0.72410  0.42200  1.0000 0.1486463446
H   H272      1.0  0.41046  0.74250  0.47609  1.0000 0.1314809094
H   H273      1.0  0.07613  0.76143  0.49606  1.0000 0.1314809094
H   H274      1.0  0.18466  0.78363  0.54731  1.0000 0.1486463446
H   H275      1.0  0.20080  0.69215  0.37695  1.0000 0.1409191082
H   H276      1.0  0.09108  0.67029  0.32907  1.0000 0.1314809094
H   H277      1.0  0.56135  0.97271  0.77399  1.0000 0.1203164231
H   H278      1.0  0.50926  0.86150  0.72354  1.0000 0.1203164231
H   H279      1.0  0.53181  0.87811  0.55488  1.0000 0.110782294
H   H280      1.0  0.58666  0.98890  0.60659  1.0000 0.1203164231
H   H281      1.0  0.49756  0.76865  0.56885  1.0000 0.1203164231
H   H282      1.0  0.48114  0.76377  0.63241  1.0000 0.1314809094
H   H283      1.0  0.90788  0.50651  0.40341  1.0000 0.1203164231
H   H284      1.0  0.96060  0.61796  0.43902  1.0000 0.1203164231
H   H285      1.0  0.96125  0.60842  0.25768  1.0000 0.1314809094
H   H286      1.0  0.91103  0.49609  0.22234  1.0000 0.1203164231
H   H287      1.0  0.99535  0.71396  0.33911  1.0000 0.1409191082
H   H288      1.0  0.98382  0.71925  0.40668  1.0000 0.1409191082
H   H289      1.0  0.84966  0.41156  0.98714  1.0000 0.1203164231
H   H290      1.0  0.93466  0.50463  0.05629  1.0000 0.1203164231
H   H291      1.0  0.91228  0.58821  0.91688  1.0000 0.110782294
H   H292      1.0  0.82725  0.49514  0.84827  1.0000 0.110782294
H   H293      1.0  0.98714  0.84966  0.41156  1.0000 0.1203164231
H   H294      1.0  0.05629  0.93466  0.50463  1.0000 0.1203164231
H   H295      1.0  0.91688  0.91228  0.58821  1.0000 0.110782294
H   H296      1.0  0.84827  0.82725  0.49514  1.0000 0.110782294
H   H297      1.0  0.41156  0.98714  0.84966  1.0000 0.1203164231
H   H298      1.0  0.50463  0.05629  0.93466  1.0000 0.1203164231
H   H299      1.0  0.58821  0.91688  0.91228  1.0000 0.110782294
H   H300      1.0  0.49514  0.84827  0.82725  1.0000 0.110782294
H   H301      1.0  0.15034  0.58844  0.01286  1.0000 0.1203164231
H   H302      1.0  0.06534  0.49537  0.94371  1.0000 0.1203164231
H   H303      1.0  0.08772  0.41179  0.08312  1.0000 0.110782294
H   H304      1.0  0.17275  0.50486  0.15173  1.0000 0.110782294
H   H305      1.0  0.01286  0.15034  0.58844  1.0000 0.1203164231
H   H306      1.0  0.94371  0.06534  0.49537  1.0000 0.1203164231
H   H307      1.0  0.08312  0.08772  0.41179  1.0000 0.110782294
H   H308      1.0  0.15173  0.17275  0.50486  1.0000 0.110782294
H   H309      1.0  0.58844  0.01286  0.15034  1.0000 0.1203164231
H   H310      1.0  0.49537  0.94371  0.06534  1.0000 0.1203164231
H   H311      1.0  0.41179  0.08312  0.08772  1.0000 0.110782294
H   H312      1.0  0.50486  0.15173  0.17275  1.0000 0.110782294
C   C1        1.0  0.99147  0.62997  0.74607  1.0000 0.0493914757
C   C2        1.0  0.02160  0.69385  0.75277  1.0000 -0.1491794317
C   C3        1.0  0.98448  0.73241  0.73534  1.0000 0.110782294
C   C4        1.0  0.91697  0.70334  0.71078  1.0000 -0.1607216457
C   C5        1.0  0.88949  0.63901  0.70470  1.0000 0.00953342
C   C6        1.0  0.00899  0.90738  0.74364  1.0000 0.0493914757
C   C7        1.0  0.97921  0.84239  0.73137  1.0000 -0.1491794317
C   C8        1.0  0.01635  0.80261  0.74514  1.0000 0.110782294
C   C9        1.0  0.08378  0.83176  0.76997  1.0000 -0.1607216457
C   C10       1.0  0.11156  0.89751  0.78216  1.0000 0.0377758366
C   C11       1.0  0.78903  0.37052  0.44089  1.0000 0.555522431
C   C12       1.0  0.81747  0.41321  0.51211  1.0000 -0.0297430769
C   C13       1.0  0.88323  0.42941  0.54646  1.0000 -0.1092014183
C   C14       1.0  0.90846  0.46839  0.61173  1.0000 -0.1786903335
C   C15       1.0  0.86835  0.49110  0.64329  1.0000 0.0925220968
C   C16       1.0  0.80238  0.47428  0.60869  1.0000 -0.1786903335
C   C17       1.0  0.77763  0.43583  0.54358  1.0000 -0.1187091753
C   C18       1.0  0.89503  0.53312  0.71466  1.0000 -0.2071092983
C   C19       1.0  0.21675  0.13568  0.06712  1.0000 0.555522431
C   C20       1.0  0.18711  0.10079  0.99416  1.0000 -0.0402368168
C   C21       1.0  0.22645  0.08467  0.95774  1.0000 -0.1011265356
C   C22       1.0  0.20006  0.05492  0.89085  1.0000 -0.1607216457
C   C23       1.0  0.13406  0.03991  0.85897  1.0000 0.0925220968
C   C24       1.0  0.09431  0.05526  0.89516  1.0000 -0.1680849259
C   C25       1.0  0.12082  0.08619  0.96252  1.0000 -0.1092014183
C   C26       1.0  0.10563  0.00677  0.78569  1.0000 -0.1899775053
C   C27       1.0  0.21465  0.39978  0.63260  1.0000 0.0493914757
C   C28       1.0  0.22484  0.42952  0.69713  1.0000 -0.1491794317
C   C29       1.0  0.24813  0.49789  0.72406  1.0000 0.110782294
C   C30       1.0  0.26018  0.53245  0.68180  1.0000 -0.1607216457
C   C31       1.0  0.24911  0.50003  0.61714  1.0000 0.0298548707
C   C32       1.0  0.25317  0.52779  0.89840  1.0000 0.0377758366
C   C33       1.0  0.23973  0.49726  0.83353  1.0000 -0.1491794317
C   C34       1.0  0.26018  0.53126  0.79408  1.0000 0.110782294
C   C35       1.0  0.29394  0.59783  0.82389  1.0000 -0.1680849259
C   C36       1.0  0.30678  0.62636  0.88944  1.0000 0.0298548707
C   C37       1.0  0.93523  0.27093  0.38336  1.0000 0.548918281
C   C38       1.0  0.00778  0.30406  0.42018  1.0000 -0.0402368168
C   C39       1.0  0.04621  0.26995  0.44403  1.0000 -0.1011265356
C   C40       1.0  0.11280  0.30040  0.47599  1.0000 -0.1680849259
C   C41       1.0  0.14141  0.36626  0.48616  1.0000 0.0993601851
C   C42       1.0  0.10306  0.40101  0.46222  1.0000 -0.1786903335
C   C43       1.0  0.03666  0.36994  0.42940  1.0000 -0.1092014183
C   C44       1.0  0.21383  0.39987  0.52242  1.0000 -0.1975848697
C   C45       1.0  0.58367  0.71408  0.13032  1.0000 0.548918281
C   C46       1.0  0.51040  0.69097  0.09572  1.0000 -0.0402368168
C   C47       1.0  0.47322  0.62593  0.08085  1.0000 -0.1092014183
C   C48       1.0  0.40651  0.60465  0.04953  1.0000 -0.1680849259
C   C49       1.0  0.37580  0.64816  0.03310  1.0000 0.0993601851
C   C50       1.0  0.41217  0.71276  0.04874  1.0000 -0.1680849259
C   C51       1.0  0.47950  0.73409  0.07939  1.0000 -0.1187091753
C   C52       1.0  0.30246  0.62415  0.99797  1.0000 -0.1975848697
C   C53       1.0  0.62997  0.74607  0.99147  1.0000 0.0493914757
C   C54       1.0  0.69385  0.75277  0.02160  1.0000 -0.1491794317
C   C55       1.0  0.73241  0.73534  0.98448  1.0000 0.110782294
C   C56       1.0  0.70334  0.71078  0.91697  1.0000 -0.1607216457
C   C57       1.0  0.63901  0.70470  0.88949  1.0000 0.00953342
C   C58       1.0  0.90738  0.74364  0.00899  1.0000 0.0493914757
C   C59       1.0  0.84239  0.73137  0.97921  1.0000 -0.1491794317
C   C60       1.0  0.80261  0.74514  0.01635  1.0000 0.110782294
C   C61       1.0  0.83176  0.76997  0.08378  1.0000 -0.1607216457
C   C62       1.0  0.89751  0.78216  0.11156  1.0000 0.0377758366
C   C63       1.0  0.37052  0.44089  0.78903  1.0000 0.555522431
C   C64       1.0  0.41321  0.51211  0.81747  1.0000 -0.0297430769
C   C65       1.0  0.42941  0.54646  0.88323  1.0000 -0.1092014183
C   C66       1.0  0.46839  0.61173  0.90846  1.0000 -0.1786903335
C   C67       1.0  0.49110  0.64329  0.86835  1.0000 0.0925220968
C   C68       1.0  0.47428  0.60869  0.80238  1.0000 -0.1786903335
C   C69       1.0  0.43583  0.54358  0.77763  1.0000 -0.1187091753
C   C70       1.0  0.53312  0.71466  0.89503  1.0000 -0.2071092983
C   C71       1.0  0.13568  0.06712  0.21675  1.0000 0.555522431
C   C72       1.0  0.10079  0.99416  0.18711  1.0000 -0.0402368168
C   C73       1.0  0.08467  0.95774  0.22645  1.0000 -0.1011265356
C   C74       1.0  0.05492  0.89085  0.20006  1.0000 -0.1607216457
C   C75       1.0  0.03991  0.85897  0.13406  1.0000 0.0925220968
C   C76       1.0  0.05526  0.89516  0.09431  1.0000 -0.1680849259
C   C77       1.0  0.08619  0.96252  0.12082  1.0000 -0.1092014183
C   C78       1.0  0.00677  0.78569  0.10563  1.0000 -0.1899775053
C   C79       1.0  0.39978  0.63260  0.21465  1.0000 0.0493914757
C   C80       1.0  0.42952  0.69713  0.22484  1.0000 -0.1491794317
C   C81       1.0  0.49789  0.72406  0.24813  1.0000 0.110782294
C   C82       1.0  0.53245  0.68180  0.26018  1.0000 -0.1607216457
C   C83       1.0  0.50003  0.61714  0.24911  1.0000 0.0298548707
C   C84       1.0  0.52779  0.89840  0.25317  1.0000 0.0377758366
C   C85       1.0  0.49726  0.83353  0.23973  1.0000 -0.1491794317
C   C86       1.0  0.53126  0.79408  0.26018  1.0000 0.110782294
C   C87       1.0  0.59783  0.82389  0.29394  1.0000 -0.1680849259
C   C88       1.0  0.62636  0.88944  0.30678  1.0000 0.0298548707
C   C89       1.0  0.27093  0.38336  0.93523  1.0000 0.548918281
C   C90       1.0  0.30406  0.42018  0.00778  1.0000 -0.0402368168
C   C91       1.0  0.26995  0.44403  0.04621  1.0000 -0.1011265356
C   C92       1.0  0.30040  0.47599  0.11280  1.0000 -0.1680849259
C   C93       1.0  0.36626  0.48616  0.14141  1.0000 0.0993601851
C   C94       1.0  0.40101  0.46222  0.10306  1.0000 -0.1786903335
C   C95       1.0  0.36994  0.42940  0.03666  1.0000 -0.1092014183
C   C96       1.0  0.39987  0.52242  0.21383  1.0000 -0.1975848697
C   C97       1.0  0.71408  0.13032  0.58367  1.0000 0.548918281
C   C98       1.0  0.69097  0.09572  0.51040  1.0000 -0.0402368168
C   C99       1.0  0.62593  0.08085  0.47322  1.0000 -0.1092014183
C   C100      1.0  0.60465  0.04953  0.40651  1.0000 -0.1680849259
C   C101      1.0  0.64816  0.03310  0.37580  1.0000 0.0993601851
C   C102      1.0  0.71276  0.04874  0.41217  1.0000 -0.1680849259
C   C103      1.0  0.73409  0.07939  0.47950  1.0000 -0.1187091753
C   C104      1.0  0.62415  0.99797  0.30246  1.0000 -0.1975848697
C   C105      1.0  0.74607  0.99147  0.62997  1.0000 0.0493914757
C   C106      1.0  0.75277  0.02160  0.69385  1.0000 -0.1491794317
C   C107      1.0  0.73534  0.98448  0.73241  1.0000 0.110782294
C   C108      1.0  0.71078  0.91697  0.70334  1.0000 -0.1607216457
C   C109      1.0  0.70470  0.88949  0.63901  1.0000 0.00953342
C   C110      1.0  0.74364  0.00899  0.90738  1.0000 0.0493914757
C   C111      1.0  0.73137  0.97921  0.84239  1.0000 -0.1491794317
C   C112      1.0  0.74514  0.01635  0.80261  1.0000 0.110782294
C   C113      1.0  0.76997  0.08378  0.83176  1.0000 -0.1607216457
C   C114      1.0  0.78216  0.11156  0.89751  1.0000 0.0377758366
C   C115      1.0  0.44089  0.78903  0.37052  1.0000 0.555522431
C   C116      1.0  0.51211  0.81747  0.41321  1.0000 -0.0297430769
C   C117      1.0  0.54646  0.88323  0.42941  1.0000 -0.1092014183
C   C118      1.0  0.61173  0.90846  0.46839  1.0000 -0.1786903335
C   C119      1.0  0.64329  0.86835  0.49110  1.0000 0.0925220968
C   C120      1.0  0.60869  0.80238  0.47428  1.0000 -0.1786903335
C   C121      1.0  0.54358  0.77763  0.43583  1.0000 -0.1187091753
C   C122      1.0  0.71466  0.89503  0.53312  1.0000 -0.2071092983
C   C123      1.0  0.06712  0.21675  0.13568  1.0000 0.555522431
C   C124      1.0  0.99416  0.18711  0.10079  1.0000 -0.0402368168
C   C125      1.0  0.95774  0.22645  0.08467  1.0000 -0.1011265356
C   C126      1.0  0.89085  0.20006  0.05492  1.0000 -0.1607216457
C   C127      1.0  0.85897  0.13406  0.03991  1.0000 0.0925220968
C   C128      1.0  0.89516  0.09431  0.05526  1.0000 -0.1680849259
C   C129      1.0  0.96252  0.12082  0.08619  1.0000 -0.1092014183
C   C130      1.0  0.78569  0.10563  0.00677  1.0000 -0.1899775053
C   C131      1.0  0.63260  0.21465  0.39978  1.0000 0.0493914757
C   C132      1.0  0.69713  0.22484  0.42952  1.0000 -0.1491794317
C   C133      1.0  0.72406  0.24813  0.49789  1.0000 0.110782294
C   C134      1.0  0.68180  0.26018  0.53245  1.0000 -0.1607216457
C   C135      1.0  0.61714  0.24911  0.50003  1.0000 0.0298548707
C   C136      1.0  0.89840  0.25317  0.52779  1.0000 0.0377758366
C   C137      1.0  0.83353  0.23973  0.49726  1.0000 -0.1491794317
C   C138      1.0  0.79408  0.26018  0.53126  1.0000 0.110782294
C   C139      1.0  0.82389  0.29394  0.59783  1.0000 -0.1680849259
C   C140      1.0  0.88944  0.30678  0.62636  1.0000 0.0298548707
C   C141      1.0  0.38336  0.93523  0.27093  1.0000 0.548918281
C   C142      1.0  0.42018  0.00778  0.30406  1.0000 -0.0402368168
C   C143      1.0  0.44403  0.04621  0.26995  1.0000 -0.1011265356
C   C144      1.0  0.47599  0.11280  0.30040  1.0000 -0.1680849259
C   C145      1.0  0.48616  0.14141  0.36626  1.0000 0.0993601851
C   C146      1.0  0.46222  0.10306  0.40101  1.0000 -0.1786903335
C   C147      1.0  0.42940  0.03666  0.36994  1.0000 -0.1092014183
C   C148      1.0  0.52242  0.21383  0.39987  1.0000 -0.1975848697
C   C149      1.0  0.13032  0.58367  0.71408  1.0000 0.548918281
C   C150      1.0  0.09572  0.51040  0.69097  1.0000 -0.0402368168
C   C151      1.0  0.08085  0.47322  0.62593  1.0000 -0.1092014183
C   C152      1.0  0.04953  0.40651  0.60465  1.0000 -0.1680849259
C   C153      1.0  0.03310  0.37580  0.64816  1.0000 0.0993601851
C   C154      1.0  0.04874  0.41217  0.71276  1.0000 -0.1680849259
C   C155      1.0  0.07939  0.47950  0.73409  1.0000 -0.1187091753
C   C156      1.0  0.99797  0.30246  0.62415  1.0000 -0.1975848697
C   C157      1.0  0.00853  0.37003  0.25393  1.0000 0.0493914757
C   C158      1.0  0.97840  0.30615  0.24723  1.0000 -0.1491794317
C   C159      1.0  0.01552  0.26759  0.26466  1.0000 0.110782294
C   C160      1.0  0.08303  0.29666  0.28922  1.0000 -0.1607216457
C   C161      1.0  0.11051  0.36099  0.29530  1.0000 0.00953342
C   C162      1.0  0.99101  0.09262  0.25636  1.0000 0.0493914757
C   C163      1.0  0.02079  0.15761  0.26863  1.0000 -0.1491794317
C   C164      1.0  0.98365  0.19739  0.25486  1.0000 0.110782294
C   C165      1.0  0.91622  0.16824  0.23003  1.0000 -0.1607216457
C   C166      1.0  0.88844  0.10249  0.21784  1.0000 0.0377758366
C   C167      1.0  0.21097  0.62948  0.55911  1.0000 0.555522431
C   C168      1.0  0.18253  0.58679  0.48789  1.0000 -0.0297430769
C   C169      1.0  0.11677  0.57059  0.45354  1.0000 -0.1092014183
C   C170      1.0  0.09154  0.53161  0.38827  1.0000 -0.1786903335
C   C171      1.0  0.13165  0.50890  0.35671  1.0000 0.0925220968
C   C172      1.0  0.19762  0.52572  0.39131  1.0000 -0.1786903335
C   C173      1.0  0.22237  0.56417  0.45642  1.0000 -0.1187091753
C   C174      1.0  0.10497  0.46688  0.28534  1.0000 -0.2071092983
C   C175      1.0  0.78325  0.86432  0.93288  1.0000 0.555522431
C   C176      1.0  0.81289  0.89921  0.00584  1.0000 -0.0402368168
C   C177      1.0  0.77355  0.91533  0.04226  1.0000 -0.1011265356
C   C178      1.0  0.79994  0.94508  0.10915  1.0000 -0.1607216457
C   C179      1.0  0.86594  0.96009  0.14103  1.0000 0.0925220968
C   C180      1.0  0.90569  0.94474  0.10484  1.0000 -0.1680849259
C   C181      1.0  0.87918  0.91381  0.03748  1.0000 -0.1092014183
C   C182      1.0  0.89437  0.99323  0.21431  1.0000 -0.1899775053
C   C183      1.0  0.78535  0.60022  0.36740  1.0000 0.0493914757
C   C184      1.0  0.77516  0.57048  0.30287  1.0000 -0.1491794317
C   C185      1.0  0.75187  0.50211  0.27594  1.0000 0.110782294
C   C186      1.0  0.73982  0.46755  0.31820  1.0000 -0.1607216457
C   C187      1.0  0.75089  0.49997  0.38286  1.0000 0.0298548707
C   C188      1.0  0.74683  0.47221  0.10160  1.0000 0.0377758366
C   C189      1.0  0.76027  0.50274  0.16647  1.0000 -0.1491794317
C   C190      1.0  0.73982  0.46874  0.20592  1.0000 0.110782294
C   C191      1.0  0.70606  0.40217  0.17611  1.0000 -0.1680849259
C   C192      1.0  0.69322  0.37364  0.11056  1.0000 0.0298548707
C   C193      1.0  0.06477  0.72907  0.61664  1.0000 0.548918281
C   C194      1.0  0.99222  0.69594  0.57982  1.0000 -0.0402368168
C   C195      1.0  0.95379  0.73005  0.55597  1.0000 -0.1011265356
C   C196      1.0  0.88720  0.69960  0.52401  1.0000 -0.1680849259
C   C197      1.0  0.85859  0.63374  0.51384  1.0000 0.0993601851
C   C198      1.0  0.89694  0.59899  0.53778  1.0000 -0.1786903335
C   C199      1.0  0.96334  0.63006  0.57060  1.0000 -0.1092014183
C   C200      1.0  0.78617  0.60013  0.47758  1.0000 -0.1975848697
C   C201      1.0  0.41633  0.28592  0.86968  1.0000 0.548918281
C   C202      1.0  0.48960  0.30903  0.90428  1.0000 -0.0402368168
C   C203      1.0  0.52678  0.37407  0.91915  1.0000 -0.1092014183
C   C204      1.0  0.59349  0.39535  0.95047  1.0000 -0.1680849259
C   C205      1.0  0.62420  0.35184  0.96690  1.0000 0.0993601851
C   C206      1.0  0.58783  0.28724  0.95126  1.0000 -0.1680849259
C   C207      1.0  0.52050  0.26591  0.92061  1.0000 -0.1187091753
C   C208      1.0  0.69754  0.37585  0.00203  1.0000 -0.1975848697
C   C209      1.0  0.37003  0.25393  0.00853  1.0000 0.0493914757
C   C210      1.0  0.30615  0.24723  0.97840  1.0000 -0.1491794317
C   C211      1.0  0.26759  0.26466  0.01552  1.0000 0.110782294
C   C212      1.0  0.29666  0.28922  0.08303  1.0000 -0.1607216457
C   C213      1.0  0.36099  0.29530  0.11051  1.0000 0.00953342
C   C214      1.0  0.09262  0.25636  0.99101  1.0000 0.0493914757
C   C215      1.0  0.15761  0.26863  0.02079  1.0000 -0.1491794317
C   C216      1.0  0.19739  0.25486  0.98365  1.0000 0.110782294
C   C217      1.0  0.16824  0.23003  0.91622  1.0000 -0.1607216457
C   C218      1.0  0.10249  0.21784  0.88844  1.0000 0.0377758366
C   C219      1.0  0.62948  0.55911  0.21097  1.0000 0.555522431
C   C220      1.0  0.58679  0.48789  0.18253  1.0000 -0.0297430769
C   C221      1.0  0.57059  0.45354  0.11677  1.0000 -0.1092014183
C   C222      1.0  0.53161  0.38827  0.09154  1.0000 -0.1786903335
C   C223      1.0  0.50890  0.35671  0.13165  1.0000 0.0925220968
C   C224      1.0  0.52572  0.39131  0.19762  1.0000 -0.1786903335
C   C225      1.0  0.56417  0.45642  0.22237  1.0000 -0.1187091753
C   C226      1.0  0.46688  0.28534  0.10497  1.0000 -0.2071092983
C   C227      1.0  0.86432  0.93288  0.78325  1.0000 0.555522431
C   C228      1.0  0.89921  0.00584  0.81289  1.0000 -0.0402368168
C   C229      1.0  0.91533  0.04226  0.77355  1.0000 -0.1011265356
C   C230      1.0  0.94508  0.10915  0.79994  1.0000 -0.1607216457
C   C231      1.0  0.96009  0.14103  0.86594  1.0000 0.0925220968
C   C232      1.0  0.94474  0.10484  0.90569  1.0000 -0.1680849259
C   C233      1.0  0.91381  0.03748  0.87918  1.0000 -0.1092014183
C   C234      1.0  0.99323  0.21431  0.89437  1.0000 -0.1899775053
C   C235      1.0  0.60022  0.36740  0.78535  1.0000 0.0493914757
C   C236      1.0  0.57048  0.30287  0.77516  1.0000 -0.1491794317
C   C237      1.0  0.50211  0.27594  0.75187  1.0000 0.110782294
C   C238      1.0  0.46755  0.31820  0.73982  1.0000 -0.1607216457
C   C239      1.0  0.49997  0.38286  0.75089  1.0000 0.0298548707
C   C240      1.0  0.47221  0.10160  0.74683  1.0000 0.0377758366
C   C241      1.0  0.50274  0.16647  0.76027  1.0000 -0.1491794317
C   C242      1.0  0.46874  0.20592  0.73982  1.0000 0.110782294
C   C243      1.0  0.40217  0.17611  0.70606  1.0000 -0.1680849259
C   C244      1.0  0.37364  0.11056  0.69322  1.0000 0.0298548707
C   C245      1.0  0.72907  0.61664  0.06477  1.0000 0.548918281
C   C246      1.0  0.69594  0.57982  0.99222  1.0000 -0.0402368168
C   C247      1.0  0.73005  0.55597  0.95379  1.0000 -0.1011265356
C   C248      1.0  0.69960  0.52401  0.88720  1.0000 -0.1680849259
C   C249      1.0  0.63374  0.51384  0.85859  1.0000 0.0993601851
C   C250      1.0  0.59899  0.53778  0.89694  1.0000 -0.1786903335
C   C251      1.0  0.63006  0.57060  0.96334  1.0000 -0.1092014183
C   C252      1.0  0.60013  0.47758  0.78617  1.0000 -0.1975848697
C   C253      1.0  0.28592  0.86968  0.41633  1.0000 0.548918281
C   C254      1.0  0.30903  0.90428  0.48960  1.0000 -0.0402368168
C   C255      1.0  0.37407  0.91915  0.52678  1.0000 -0.1092014183
C   C256      1.0  0.39535  0.95047  0.59349  1.0000 -0.1680849259
C   C257      1.0  0.35184  0.96690  0.62420  1.0000 0.0993601851
C   C258      1.0  0.28724  0.95126  0.58783  1.0000 -0.1680849259
C   C259      1.0  0.26591  0.92061  0.52050  1.0000 -0.1187091753
C   C260      1.0  0.37585  0.00203  0.69754  1.0000 -0.1975848697
C   C261      1.0  0.25393  0.00853  0.37003  1.0000 0.0493914757
C   C262      1.0  0.24723  0.97840  0.30615  1.0000 -0.1491794317
C   C263      1.0  0.26466  0.01552  0.26759  1.0000 0.110782294
C   C264      1.0  0.28922  0.08303  0.29666  1.0000 -0.1607216457
C   C265      1.0  0.29530  0.11051  0.36099  1.0000 0.00953342
C   C266      1.0  0.25636  0.99101  0.09262  1.0000 0.0493914757
C   C267      1.0  0.26863  0.02079  0.15761  1.0000 -0.1491794317
C   C268      1.0  0.25486  0.98365  0.19739  1.0000 0.110782294
C   C269      1.0  0.23003  0.91622  0.16824  1.0000 -0.1607216457
C   C270      1.0  0.21784  0.88844  0.10249  1.0000 0.0377758366
C   C271      1.0  0.55911  0.21097  0.62948  1.0000 0.555522431
C   C272      1.0  0.48789  0.18253  0.58679  1.0000 -0.0297430769
C   C273      1.0  0.45354  0.11677  0.57059  1.0000 -0.1092014183
C   C274      1.0  0.38827  0.09154  0.53161  1.0000 -0.1786903335
C   C275      1.0  0.35671  0.13165  0.50890  1.0000 0.0925220968
C   C276      1.0  0.39131  0.19762  0.52572  1.0000 -0.1786903335
C   C277      1.0  0.45642  0.22237  0.56417  1.0000 -0.1187091753
C   C278      1.0  0.28534  0.10497  0.46688  1.0000 -0.2071092983
C   C279      1.0  0.93288  0.78325  0.86432  1.0000 0.555522431
C   C280      1.0  0.00584  0.81289  0.89921  1.0000 -0.0402368168
C   C281      1.0  0.04226  0.77355  0.91533  1.0000 -0.1011265356
C   C282      1.0  0.10915  0.79994  0.94508  1.0000 -0.1607216457
C   C283      1.0  0.14103  0.86594  0.96009  1.0000 0.0925220968
C   C284      1.0  0.10484  0.90569  0.94474  1.0000 -0.1680849259
C   C285      1.0  0.03748  0.87918  0.91381  1.0000 -0.1092014183
C   C286      1.0  0.21431  0.89437  0.99323  1.0000 -0.1899775053
C   C287      1.0  0.36740  0.78535  0.60022  1.0000 0.0493914757
C   C288      1.0  0.30287  0.77516  0.57048  1.0000 -0.1491794317
C   C289      1.0  0.27594  0.75187  0.50211  1.0000 0.110782294
C   C290      1.0  0.31820  0.73982  0.46755  1.0000 -0.1607216457
C   C291      1.0  0.38286  0.75089  0.49997  1.0000 0.0298548707
C   C292      1.0  0.10160  0.74683  0.47221  1.0000 0.0377758366
C   C293      1.0  0.16647  0.76027  0.50274  1.0000 -0.1491794317
C   C294      1.0  0.20592  0.73982  0.46874  1.0000 0.110782294
C   C295      1.0  0.17611  0.70606  0.40217  1.0000 -0.1680849259
C   C296      1.0  0.11056  0.69322  0.37364  1.0000 0.0298548707
C   C297      1.0  0.61664  0.06477  0.72907  1.0000 0.548918281
C   C298      1.0  0.57982  0.99222  0.69594  1.0000 -0.0402368168
C   C299      1.0  0.55597  0.95379  0.73005  1.0000 -0.1011265356
C   C300      1.0  0.52401  0.88720  0.69960  1.0000 -0.1680849259
C   C301      1.0  0.51384  0.85859  0.63374  1.0000 0.0993601851
C   C302      1.0  0.53778  0.89694  0.59899  1.0000 -0.1786903335
C   C303      1.0  0.57060  0.96334  0.63006  1.0000 -0.1092014183
C   C304      1.0  0.47758  0.78617  0.60013  1.0000 -0.1975848697
C   C305      1.0  0.86968  0.41633  0.28592  1.0000 0.548918281
C   C306      1.0  0.90428  0.48960  0.30903  1.0000 -0.0402368168
C   C307      1.0  0.91915  0.52678  0.37407  1.0000 -0.1092014183
C   C308      1.0  0.95047  0.59349  0.39535  1.0000 -0.1680849259
C   C309      1.0  0.96690  0.62420  0.35184  1.0000 0.0993601851
C   C310      1.0  0.95126  0.58783  0.28724  1.0000 -0.1680849259
C   C311      1.0  0.92061  0.52050  0.26591  1.0000 -0.1187091753
C   C312      1.0  0.00203  0.69754  0.37585  1.0000 -0.1975848697
C   C313      1.0  0.77660  0.38119  0.86325  1.0000 0.548918281
C   C314      1.0  0.99303  0.61416  0.03662  1.0000 0.548918281
C   C315      1.0  0.83084  0.44304  0.90991  1.0000 -0.0297430769
C   C316      1.0  0.86255  0.44671  0.97245  1.0000 -0.1011265356
C   C317      1.0  0.91374  0.50256  0.01385  1.0000 -0.0939543431
C   C318      1.0  0.93401  0.55483  0.99324  1.0000 -0.0049990243
C   C319      1.0  0.90050  0.55244  0.93101  1.0000 -0.1187091753
C   C320      1.0  0.84949  0.49662  0.89009  1.0000 -0.1268296227
C   C321      1.0  0.86325  0.77660  0.38119  1.0000 0.548918281
C   C322      1.0  0.03662  0.99303  0.61416  1.0000 0.548918281
C   C323      1.0  0.90991  0.83084  0.44304  1.0000 -0.0297430769
C   C324      1.0  0.97245  0.86255  0.44671  1.0000 -0.1011265356
C   C325      1.0  0.01385  0.91374  0.50256  1.0000 -0.0939543431
C   C326      1.0  0.99324  0.93401  0.55483  1.0000 -0.0049990243
C   C327      1.0  0.93101  0.90050  0.55244  1.0000 -0.1187091753
C   C328      1.0  0.89009  0.84949  0.49662  1.0000 -0.1268296227
C   C329      1.0  0.38119  0.86325  0.77660  1.0000 0.548918281
C   C330      1.0  0.61416  0.03662  0.99303  1.0000 0.548918281
C   C331      1.0  0.44304  0.90991  0.83084  1.0000 -0.0297430769
C   C332      1.0  0.44671  0.97245  0.86255  1.0000 -0.1011265356
C   C333      1.0  0.50256  0.01385  0.91374  1.0000 -0.0939543431
C   C334      1.0  0.55483  0.99324  0.93401  1.0000 -0.0049990243
C   C335      1.0  0.55244  0.93101  0.90050  1.0000 -0.1187091753
C   C336      1.0  0.49662  0.89009  0.84949  1.0000 -0.1268296227
C   C337      1.0  0.22340  0.61881  0.13675  1.0000 0.548918281
C   C338      1.0  0.00697  0.38584  0.96338  1.0000 0.548918281
C   C339      1.0  0.16916  0.55696  0.09009  1.0000 -0.0297430769
C   C340      1.0  0.13745  0.55329  0.02755  1.0000 -0.1011265356
C   C341      1.0  0.08626  0.49744  0.98615  1.0000 -0.0939543431
C   C342      1.0  0.06599  0.44517  0.00676  1.0000 -0.0049990243
C   C343      1.0  0.09950  0.44756  0.06899  1.0000 -0.1187091753
C   C344      1.0  0.15051  0.50338  0.10991  1.0000 -0.1268296227
C   C345      1.0  0.13675  0.22340  0.61881  1.0000 0.548918281
C   C346      1.0  0.96338  0.00697  0.38584  1.0000 0.548918281
C   C347      1.0  0.09009  0.16916  0.55696  1.0000 -0.0297430769
C   C348      1.0  0.02755  0.13745  0.55329  1.0000 -0.1011265356
C   C349      1.0  0.98615  0.08626  0.49744  1.0000 -0.0939543431
C   C350      1.0  0.00676  0.06599  0.44517  1.0000 -0.0049990243
C   C351      1.0  0.06899  0.09950  0.44756  1.0000 -0.1187091753
C   C352      1.0  0.10991  0.15051  0.50338  1.0000 -0.1268296227
C   C353      1.0  0.61881  0.13675  0.22340  1.0000 0.548918281
C   C354      1.0  0.38584  0.96338  0.00697  1.0000 0.548918281
C   C355      1.0  0.55696  0.09009  0.16916  1.0000 -0.0297430769
C   C356      1.0  0.55329  0.02755  0.13745  1.0000 -0.1011265356
C   C357      1.0  0.49744  0.98615  0.08626  1.0000 -0.0939543431
C   C358      1.0  0.44517  0.00676  0.06599  1.0000 -0.0049990243
C   C359      1.0  0.44756  0.06899  0.09950  1.0000 -0.1187091753
C   C360      1.0  0.50338  0.10991  0.15051  1.0000 -0.1268296227
N   N1        1.0  0.92682  0.60329  0.72214  1.0000 0.0993601851
N   N2        1.0  0.07421  0.93455  0.76936  1.0000 0.110782294
N   N3        1.0  0.22647  0.43469  0.59328  1.0000 0.0993601851
N   N4        1.0  0.28709  0.59160  0.92607  1.0000 0.0993601851
N   N5        1.0  0.60329  0.72214  0.92682  1.0000 0.0993601851
N   N6        1.0  0.93455  0.76936  0.07421  1.0000 0.110782294
N   N7        1.0  0.43469  0.59328  0.22647  1.0000 0.0993601851
N   N8        1.0  0.59160  0.92607  0.28709  1.0000 0.0993601851
N   N9        1.0  0.72214  0.92682  0.60329  1.0000 0.0993601851
N   N10       1.0  0.76936  0.07421  0.93455  1.0000 0.110782294
N   N11       1.0  0.59328  0.22647  0.43469  1.0000 0.0993601851
N   N12       1.0  0.92607  0.28709  0.59160  1.0000 0.0993601851
N   N13       1.0  0.07318  0.39671  0.27786  1.0000 0.0993601851
N   N14       1.0  0.92579  0.06545  0.23064  1.0000 0.110782294
N   N15       1.0  0.77353  0.56531  0.40672  1.0000 0.0993601851
N   N16       1.0  0.71291  0.40840  0.07393  1.0000 0.0993601851
N   N17       1.0  0.39671  0.27786  0.07318  1.0000 0.0993601851
N   N18       1.0  0.06545  0.23064  0.92579  1.0000 0.110782294
N   N19       1.0  0.56531  0.40672  0.77353  1.0000 0.0993601851
N   N20       1.0  0.40840  0.07393  0.71291  1.0000 0.0993601851
N   N21       1.0  0.27786  0.07318  0.39671  1.0000 0.0993601851
N   N22       1.0  0.23064  0.92579  0.06545  1.0000 0.110782294
N   N23       1.0  0.40672  0.77353  0.56531  1.0000 0.0993601851
N   N24       1.0  0.07393  0.71291  0.40840  1.0000 0.0993601851
O   O1        1.0  0.82237  0.33882  0.41936  1.0000 -0.5297358244
O   O2        1.0  0.73407  0.37031  0.40888  1.0000 -0.5681395806
O   O3        1.0  0.18224  0.16228  0.09390  1.0000 -0.5608394851
O   O4        1.0  0.27301  0.13628  0.09501  1.0000 -0.5608394851
O   O5        1.0  0.90831  0.30270  0.35334  1.0000 -0.5437310944
O   O6        1.0  0.90797  0.21582  0.38542  1.0000 -0.5608394851
O   O7        1.0  0.60586  0.67498  0.15188  1.0000 -0.5297358244
O   O8        1.0  0.61636  0.77007  0.13437  1.0000 -0.5681395806
O   O9        1.0  0.77947  0.20514  0.32624  1.0000 -0.699686722
O   O10       1.0  0.81344  0.26197  0.22572  1.0000 -0.6713170022
O   O11       1.0  0.71983  0.30165  0.28982  1.0000 -0.699686722
O   O12       1.0  0.28851  0.19353  0.21786  1.0000 -0.6792863418
O   O13       1.0  0.33882  0.41936  0.82237  1.0000 -0.5297358244
O   O14       1.0  0.37031  0.40888  0.73407  1.0000 -0.5681395806
O   O15       1.0  0.16228  0.09390  0.18224  1.0000 -0.5608394851
O   O16       1.0  0.13628  0.09501  0.27301  1.0000 -0.5608394851
O   O17       1.0  0.30270  0.35334  0.90831  1.0000 -0.5437310944
O   O18       1.0  0.21582  0.38542  0.90797  1.0000 -0.5608394851
O   O19       1.0  0.67498  0.15188  0.60586  1.0000 -0.5297358244
O   O20       1.0  0.77007  0.13437  0.61636  1.0000 -0.5681395806
O   O21       1.0  0.20514  0.32624  0.77947  1.0000 -0.699686722
O   O22       1.0  0.26197  0.22572  0.81344  1.0000 -0.6713170022
O   O23       1.0  0.30165  0.28982  0.71983  1.0000 -0.699686722
O   O24       1.0  0.19353  0.21786  0.28851  1.0000 -0.6792863418
O   O25       1.0  0.41936  0.82237  0.33882  1.0000 -0.5297358244
O   O26       1.0  0.40888  0.73407  0.37031  1.0000 -0.5681395806
O   O27       1.0  0.09390  0.18224  0.16228  1.0000 -0.5608394851
O   O28       1.0  0.09501  0.27301  0.13628  1.0000 -0.5608394851
O   O29       1.0  0.35334  0.90831  0.30270  1.0000 -0.5437310944
O   O30       1.0  0.38542  0.90797  0.21582  1.0000 -0.5608394851
O   O31       1.0  0.15188  0.60586  0.67498  1.0000 -0.5297358244
O   O32       1.0  0.13437  0.61636  0.77007  1.0000 -0.5681395806
O   O33       1.0  0.32624  0.77947  0.20514  1.0000 -0.699686722
O   O34       1.0  0.22572  0.81344  0.26197  1.0000 -0.6713170022
O   O35       1.0  0.28982  0.71983  0.30165  1.0000 -0.699686722
O   O36       1.0  0.21786  0.28851  0.19353  1.0000 -0.6792863418
O   O37       1.0  0.17763  0.66118  0.58064  1.0000 -0.5297358244
O   O38       1.0  0.26593  0.62969  0.59112  1.0000 -0.5681395806
O   O39       1.0  0.81776  0.83772  0.90610  1.0000 -0.5608394851
O   O40       1.0  0.72699  0.86372  0.90499  1.0000 -0.5608394851
O   O41       1.0  0.09169  0.69730  0.64666  1.0000 -0.5437310944
O   O42       1.0  0.09203  0.78418  0.61458  1.0000 -0.5608394851
O   O43       1.0  0.39414  0.32502  0.84812  1.0000 -0.5297358244
O   O44       1.0  0.38364  0.22993  0.86563  1.0000 -0.5681395806
O   O45       1.0  0.22053  0.79486  0.67376  1.0000 -0.699686722
O   O46       1.0  0.18656  0.73803  0.77428  1.0000 -0.6713170022
O   O47       1.0  0.28017  0.69835  0.71018  1.0000 -0.699686722
O   O48       1.0  0.71149  0.80647  0.78214  1.0000 -0.6792863418
O   O49       1.0  0.66118  0.58064  0.17763  1.0000 -0.5297358244
O   O50       1.0  0.62969  0.59112  0.26593  1.0000 -0.5681395806
O   O51       1.0  0.83772  0.90610  0.81776  1.0000 -0.5608394851
O   O52       1.0  0.86372  0.90499  0.72699  1.0000 -0.5608394851
O   O53       1.0  0.69730  0.64666  0.09169  1.0000 -0.5437310944
O   O54       1.0  0.78418  0.61458  0.09203  1.0000 -0.5608394851
O   O55       1.0  0.32502  0.84812  0.39414  1.0000 -0.5297358244
O   O56       1.0  0.22993  0.86563  0.38364  1.0000 -0.5681395806
O   O57       1.0  0.79486  0.67376  0.22053  1.0000 -0.699686722
O   O58       1.0  0.73803  0.77428  0.18656  1.0000 -0.6713170022
O   O59       1.0  0.69835  0.71018  0.28017  1.0000 -0.699686722
O   O60       1.0  0.80647  0.78214  0.71149  1.0000 -0.6792863418
O   O61       1.0  0.58064  0.17763  0.66118  1.0000 -0.5297358244
O   O62       1.0  0.59112  0.26593  0.62969  1.0000 -0.5681395806
O   O63       1.0  0.90610  0.81776  0.83772  1.0000 -0.5608394851
O   O64       1.0  0.90499  0.72699  0.86372  1.0000 -0.5608394851
O   O65       1.0  0.64666  0.09169  0.69730  1.0000 -0.5437310944
O   O66       1.0  0.61458  0.09203  0.78418  1.0000 -0.5608394851
O   O67       1.0  0.84812  0.39414  0.32502  1.0000 -0.5297358244
O   O68       1.0  0.86563  0.38364  0.22993  1.0000 -0.5681395806
O   O69       1.0  0.67376  0.22053  0.79486  1.0000 -0.699686722
O   O70       1.0  0.77428  0.18656  0.73803  1.0000 -0.6713170022
O   O71       1.0  0.71018  0.28017  0.69835  1.0000 -0.699686722
O   O72       1.0  0.78214  0.71149  0.80647  1.0000 -0.6792863418
O   O73       1.0  0.76191  0.33333  0.88252  1.0000 -0.5681395806
O   O74       1.0  0.74999  0.38240  0.80720  1.0000 -0.5906785239
O   O75       1.0  0.01196  0.62145  0.09692  1.0000 -0.6052273025
O   O76       1.0  0.01911  0.65200  0.01026  1.0000 -0.6052273025
O   O77       1.0  0.88252  0.76191  0.33333  1.0000 -0.5681395806
O   O78       1.0  0.80720  0.74999  0.38240  1.0000 -0.5906785239
O   O79       1.0  0.09692  0.01196  0.62145  1.0000 -0.6052273025
O   O80       1.0  0.01026  0.01911  0.65200  1.0000 -0.604007404
O   O81       1.0  0.33333  0.88252  0.76191  1.0000 -0.5681395806
O   O82       1.0  0.38240  0.80720  0.74999  1.0000 -0.5906785239
O   O83       1.0  0.62145  0.09692  0.01196  1.0000 -0.6052273025
O   O84       1.0  0.65200  0.01026  0.01911  1.0000 -0.604007404
O   O85       1.0  0.23809  0.66667  0.11748  1.0000 -0.5681395806
O   O86       1.0  0.25001  0.61760  0.19280  1.0000 -0.5906785239
O   O87       1.0  0.98804  0.37855  0.90308  1.0000 -0.6052273025
O   O88       1.0  0.98089  0.34800  0.98974  1.0000 -0.604007404
O   O89       1.0  0.11748  0.23809  0.66667  1.0000 -0.5681395806
O   O90       1.0  0.19280  0.25001  0.61760  1.0000 -0.5906785239
O   O91       1.0  0.90308  0.98804  0.37855  1.0000 -0.6052273025
O   O92       1.0  0.98974  0.98089  0.34800  1.0000 -0.604007404
O   O93       1.0  0.66667  0.11748  0.23809  1.0000 -0.5681395806
O   O94       1.0  0.61760  0.19280  0.25001  1.0000 -0.5906785239
O   O95       1.0  0.37855  0.90308  0.98804  1.0000 -0.6052273025
O   O96       1.0  0.34800  0.98974  0.98089  1.0000 -0.6052273025
