# DDEC6 charges by PACMAN v1.1 (https://github.com/mtap-research/PACMAN-charge/)
data_2020[Co][hcb]2[ION]1
_chemical_formula_sum              "Co8 H312 C360 N24 O96"
_cell_length_a       22.3071
_cell_length_b       22.3071
_cell_length_c       22.3071
_cell_angle_alpha    104.18
_cell_angle_beta     104.18
_cell_angle_gamma    104.18

_symmetry_space_group_name_H-M    "P 1"
_symmetry_Int_Tables_number       1

loop_
  _symmetry_equiv_pos_as_xyz
  'x, y, z'

loop_
  _atom_site_type_symbol
  _atom_site_label
  _atom_site_symmetry_multiplicity
  _atom_site_fract_x
  _atom_site_fract_y
  _atom_site_fract_z
  _atom_site_occupancy
  _atom_site_charge
Co  Co1       1.0  0.81449  0.29853  0.32215  1.0000 1.0464720004
Co  Co2       1.0  0.29853  0.32215  0.81449  1.0000 1.0464720004
Co  Co3       1.0  0.32215  0.81449  0.29853  1.0000 1.0464720004
Co  Co4       1.0  0.18551  0.70147  0.67785  1.0000 1.0464720004
Co  Co5       1.0  0.70147  0.67785  0.18551  1.0000 1.0464720004
Co  Co6       1.0  0.67785  0.18551  0.70147  1.0000 1.0464720004
Co  Co7       1.0  0.19052  0.19052  0.19052  1.0000 1.0621100141
Co  Co8       1.0  0.80948  0.80948  0.80948  1.0000 1.0621100141
H   H1        1.0  0.74653  0.17725  0.29089  1.0000 0.339787184
H   H2        1.0  0.80849  0.18487  0.33064  1.0000 0.3589042448
H   H3        1.0  0.77507  0.23733  0.19930  1.0000 0.3300577823
H   H4        1.0  0.82382  0.29385  0.20890  1.0000 0.3478104825
H   H5        1.0  0.69233  0.26214  0.27184  1.0000 0.339787184
H   H6        1.0  0.70833  0.31799  0.32395  1.0000 0.3478104825
H   H7        1.0  0.29606  0.17581  0.18111  1.0000 0.3300577823
H   H8        1.0  0.31738  0.23206  0.23254  1.0000 0.2913229836
H   H9        1.0  0.01696  0.60531  0.75916  1.0000 0.1296048843
H   H10       1.0  0.06693  0.71182  0.76999  1.0000 0.140252637
H   H11       1.0  0.89085  0.72755  0.69763  1.0000 0.140252637
H   H12       1.0  0.84458  0.62036  0.68745  1.0000 0.1189775704
H   H13       1.0  0.98392  0.93352  0.73361  1.0000 0.1296048843
H   H14       1.0  0.93395  0.82486  0.71387  1.0000 0.140252637
H   H15       1.0  0.11041  0.80657  0.77862  1.0000 0.140252637
H   H16       1.0  0.15674  0.91614  0.79933  1.0000 0.1296048843
H   H17       1.0  0.91035  0.41449  0.52654  1.0000 0.1189775704
H   H18       1.0  0.95270  0.47952  0.63476  1.0000 0.1189775704
H   H19       1.0  0.77535  0.49018  0.63053  1.0000 0.1189775704
H   H20       1.0  0.73357  0.42660  0.52197  1.0000 0.1106660522
H   H21       1.0  0.92717  0.51798  0.73880  1.0000 0.140252637
H   H22       1.0  0.86015  0.53053  0.73366  1.0000 0.140252637
H   H23       1.0  0.27129  0.09316  0.97684  1.0000 0.1189775704
H   H24       1.0  0.22696  0.04376  0.86531  1.0000 0.1296048843
H   H25       1.0  0.05042  0.04524  0.87433  1.0000 0.1189775704
H   H26       1.0  0.09489  0.09658  0.98558  1.0000 0.1189775704
H   H27       1.0  0.13993  0.01371  0.76554  1.0000 0.140252637
H   H28       1.0  0.07338  0.02487  0.76686  1.0000 0.140252637
H   H29       1.0  0.19900  0.35480  0.61561  1.0000 0.1296048843
H   H30       1.0  0.21554  0.40461  0.72340  1.0000 0.14627894
H   H31       1.0  0.27535  0.57804  0.69749  1.0000 0.14627894
H   H32       1.0  0.25763  0.52431  0.58998  1.0000 0.1296048843
H   H33       1.0  0.23726  0.50388  0.92346  1.0000 0.1296048843
H   H34       1.0  0.21555  0.45268  0.81513  1.0000 0.14627894
H   H35       1.0  0.30841  0.62259  0.79912  1.0000 0.140252637
H   H36       1.0  0.33022  0.67030  0.90882  1.0000 0.1296048843
H   H37       1.0  0.02925  0.22546  0.43953  1.0000 0.1189775704
H   H38       1.0  0.13997  0.27761  0.49238  1.0000 0.1189775704
H   H39       1.0  0.12079  0.44455  0.46818  1.0000 0.1106660522
H   H40       1.0  0.01080  0.39188  0.41297  1.0000 0.1189775704
H   H41       1.0  0.23090  0.43217  0.50285  1.0000 0.1189775704
H   H42       1.0  0.23676  0.36890  0.51925  1.0000 0.1296048843
H   H43       1.0  0.49348  0.59707  0.09145  1.0000 0.1189775704
H   H44       1.0  0.38225  0.56106  0.03887  1.0000 0.1189775704
H   H45       1.0  0.39053  0.74179  0.03768  1.0000 0.1296048843
H   H46       1.0  0.50225  0.77737  0.08774  1.0000 0.1189775704
H   H47       1.0  0.28552  0.66011  0.00416  1.0000 0.140252637
H   H48       1.0  0.28073  0.59274  0.01586  1.0000 0.140252637
H   H49       1.0  0.17725  0.29089  0.74653  1.0000 0.3478104825
H   H50       1.0  0.18487  0.33064  0.80849  1.0000 0.3589042448
H   H51       1.0  0.23733  0.19930  0.77507  1.0000 0.3300577823
H   H52       1.0  0.29385  0.20890  0.82382  1.0000 0.3478104825
H   H53       1.0  0.26214  0.27184  0.69233  1.0000 0.339787184
H   H54       1.0  0.31799  0.32395  0.70833  1.0000 0.3478104825
H   H55       1.0  0.17581  0.18111  0.29606  1.0000 0.3300577823
H   H56       1.0  0.23206  0.23254  0.31738  1.0000 0.2913229836
H   H57       1.0  0.60531  0.75916  0.01696  1.0000 0.1296048843
H   H58       1.0  0.71182  0.76999  0.06693  1.0000 0.140252637
H   H59       1.0  0.72755  0.69763  0.89085  1.0000 0.140252637
H   H60       1.0  0.62036  0.68745  0.84458  1.0000 0.1189775704
H   H61       1.0  0.93352  0.73361  0.98392  1.0000 0.1296048843
H   H62       1.0  0.82486  0.71387  0.93395  1.0000 0.140252637
H   H63       1.0  0.80657  0.77862  0.11041  1.0000 0.140252637
H   H64       1.0  0.91614  0.79933  0.15674  1.0000 0.1296048843
H   H65       1.0  0.41449  0.52654  0.91035  1.0000 0.1189775704
H   H66       1.0  0.47952  0.63476  0.95270  1.0000 0.1189775704
H   H67       1.0  0.49018  0.63053  0.77535  1.0000 0.1189775704
H   H68       1.0  0.42660  0.52197  0.73357  1.0000 0.1106660522
H   H69       1.0  0.51798  0.73880  0.92717  1.0000 0.140252637
H   H70       1.0  0.53053  0.73366  0.86015  1.0000 0.140252637
H   H71       1.0  0.09316  0.97684  0.27129  1.0000 0.1189775704
H   H72       1.0  0.04376  0.86531  0.22696  1.0000 0.1296048843
H   H73       1.0  0.04524  0.87433  0.05042  1.0000 0.1189775704
H   H74       1.0  0.09658  0.98558  0.09489  1.0000 0.1189775704
H   H75       1.0  0.01371  0.76554  0.13993  1.0000 0.140252637
H   H76       1.0  0.02487  0.76686  0.07338  1.0000 0.140252637
H   H77       1.0  0.35480  0.61561  0.19900  1.0000 0.1296048843
H   H78       1.0  0.40461  0.72340  0.21554  1.0000 0.14627894
H   H79       1.0  0.57804  0.69749  0.27535  1.0000 0.14627894
H   H80       1.0  0.52431  0.58998  0.25763  1.0000 0.1296048843
H   H81       1.0  0.50388  0.92346  0.23726  1.0000 0.1296048843
H   H82       1.0  0.45268  0.81513  0.21555  1.0000 0.14627894
H   H83       1.0  0.62259  0.79912  0.30841  1.0000 0.140252637
H   H84       1.0  0.67030  0.90882  0.33022  1.0000 0.1296048843
H   H85       1.0  0.22546  0.43953  0.02925  1.0000 0.1189775704
H   H86       1.0  0.27761  0.49238  0.13997  1.0000 0.1189775704
H   H87       1.0  0.44455  0.46818  0.12079  1.0000 0.1106660522
H   H88       1.0  0.39188  0.41297  0.01080  1.0000 0.1189775704
H   H89       1.0  0.43217  0.50285  0.23090  1.0000 0.1189775704
H   H90       1.0  0.36890  0.51925  0.23676  1.0000 0.1296048843
H   H91       1.0  0.59707  0.09145  0.49348  1.0000 0.1189775704
H   H92       1.0  0.56106  0.03887  0.38225  1.0000 0.1189775704
H   H93       1.0  0.74179  0.03768  0.39053  1.0000 0.1296048843
H   H94       1.0  0.77737  0.08774  0.50225  1.0000 0.1189775704
H   H95       1.0  0.66011  0.00416  0.28552  1.0000 0.140252637
H   H96       1.0  0.59274  0.01586  0.28073  1.0000 0.140252637
H   H97       1.0  0.29089  0.74653  0.17725  1.0000 0.3478104825
H   H98       1.0  0.33064  0.80849  0.18487  1.0000 0.3589042448
H   H99       1.0  0.19930  0.77507  0.23733  1.0000 0.3300577823
H   H100      1.0  0.20890  0.82382  0.29385  1.0000 0.3478104825
H   H101      1.0  0.27184  0.69233  0.26214  1.0000 0.339787184
H   H102      1.0  0.32395  0.70833  0.31799  1.0000 0.3478104825
H   H103      1.0  0.18111  0.29606  0.17581  1.0000 0.3300577823
H   H104      1.0  0.23254  0.31738  0.23206  1.0000 0.2913229836
H   H105      1.0  0.75916  0.01696  0.60531  1.0000 0.1296048843
H   H106      1.0  0.76999  0.06693  0.71182  1.0000 0.140252637
H   H107      1.0  0.69763  0.89085  0.72755  1.0000 0.140252637
H   H108      1.0  0.68745  0.84458  0.62036  1.0000 0.1189775704
H   H109      1.0  0.73361  0.98392  0.93352  1.0000 0.1296048843
H   H110      1.0  0.71387  0.93395  0.82486  1.0000 0.140252637
H   H111      1.0  0.77862  0.11041  0.80657  1.0000 0.140252637
H   H112      1.0  0.79933  0.15674  0.91614  1.0000 0.1296048843
H   H113      1.0  0.52654  0.91035  0.41449  1.0000 0.1189775704
H   H114      1.0  0.63476  0.95270  0.47952  1.0000 0.1189775704
H   H115      1.0  0.63053  0.77535  0.49018  1.0000 0.1189775704
H   H116      1.0  0.52197  0.73357  0.42660  1.0000 0.1106660522
H   H117      1.0  0.73880  0.92717  0.51798  1.0000 0.140252637
H   H118      1.0  0.73366  0.86015  0.53053  1.0000 0.140252637
H   H119      1.0  0.97684  0.27129  0.09316  1.0000 0.1189775704
H   H120      1.0  0.86531  0.22696  0.04376  1.0000 0.1296048843
H   H121      1.0  0.87433  0.05042  0.04524  1.0000 0.1189775704
H   H122      1.0  0.98558  0.09489  0.09658  1.0000 0.1189775704
H   H123      1.0  0.76554  0.13993  0.01371  1.0000 0.140252637
H   H124      1.0  0.76686  0.07338  0.02487  1.0000 0.140252637
H   H125      1.0  0.61561  0.19900  0.35480  1.0000 0.1296048843
H   H126      1.0  0.72340  0.21554  0.40461  1.0000 0.14627894
H   H127      1.0  0.69749  0.27535  0.57804  1.0000 0.14627894
H   H128      1.0  0.58998  0.25763  0.52431  1.0000 0.1296048843
H   H129      1.0  0.92346  0.23726  0.50388  1.0000 0.1296048843
H   H130      1.0  0.81513  0.21555  0.45268  1.0000 0.14627894
H   H131      1.0  0.79912  0.30841  0.62259  1.0000 0.140252637
H   H132      1.0  0.90882  0.33022  0.67030  1.0000 0.1296048843
H   H133      1.0  0.43953  0.02925  0.22546  1.0000 0.1189775704
H   H134      1.0  0.49238  0.13997  0.27761  1.0000 0.1189775704
H   H135      1.0  0.46818  0.12079  0.44455  1.0000 0.1106660522
H   H136      1.0  0.41297  0.01080  0.39188  1.0000 0.1189775704
H   H137      1.0  0.50285  0.23090  0.43217  1.0000 0.1189775704
H   H138      1.0  0.51925  0.23676  0.36890  1.0000 0.1296048843
H   H139      1.0  0.09145  0.49348  0.59707  1.0000 0.1189775704
H   H140      1.0  0.03887  0.38225  0.56106  1.0000 0.1189775704
H   H141      1.0  0.03768  0.39053  0.74179  1.0000 0.1296048843
H   H142      1.0  0.08774  0.50225  0.77737  1.0000 0.1189775704
H   H143      1.0  0.00416  0.28552  0.66011  1.0000 0.140252637
H   H144      1.0  0.01586  0.28073  0.59274  1.0000 0.140252637
H   H145      1.0  0.25347  0.82275  0.70911  1.0000 0.3478104825
H   H146      1.0  0.19151  0.81513  0.66936  1.0000 0.3589042448
H   H147      1.0  0.22493  0.76267  0.80070  1.0000 0.3300577823
H   H148      1.0  0.17618  0.70615  0.79110  1.0000 0.3478104825
H   H149      1.0  0.30767  0.73786  0.72816  1.0000 0.339787184
H   H150      1.0  0.29167  0.68201  0.67605  1.0000 0.3478104825
H   H151      1.0  0.70394  0.82419  0.81889  1.0000 0.3300577823
H   H152      1.0  0.68262  0.76794  0.76746  1.0000 0.2913229836
H   H153      1.0  0.98304  0.39469  0.24084  1.0000 0.1296048843
H   H154      1.0  0.93307  0.28818  0.23001  1.0000 0.140252637
H   H155      1.0  0.10915  0.27245  0.30237  1.0000 0.140252637
H   H156      1.0  0.15542  0.37964  0.31255  1.0000 0.1189775704
H   H157      1.0  0.01608  0.06648  0.26639  1.0000 0.1296048843
H   H158      1.0  0.06605  0.17514  0.28613  1.0000 0.140252637
H   H159      1.0  0.88959  0.19343  0.22138  1.0000 0.140252637
H   H160      1.0  0.84326  0.08386  0.20067  1.0000 0.1296048843
H   H161      1.0  0.08965  0.58551  0.47346  1.0000 0.1189775704
H   H162      1.0  0.04730  0.52048  0.36524  1.0000 0.1189775704
H   H163      1.0  0.22465  0.50982  0.36947  1.0000 0.1189775704
H   H164      1.0  0.26643  0.57340  0.47803  1.0000 0.1106660522
H   H165      1.0  0.07283  0.48202  0.26120  1.0000 0.140252637
H   H166      1.0  0.13985  0.46947  0.26634  1.0000 0.140252637
H   H167      1.0  0.72871  0.90684  0.02316  1.0000 0.1189775704
H   H168      1.0  0.77304  0.95624  0.13469  1.0000 0.1296048843
H   H169      1.0  0.94958  0.95476  0.12567  1.0000 0.1189775704
H   H170      1.0  0.90511  0.90342  0.01442  1.0000 0.1189775704
H   H171      1.0  0.86007  0.98629  0.23446  1.0000 0.140252637
H   H172      1.0  0.92662  0.97513  0.23314  1.0000 0.140252637
H   H173      1.0  0.80100  0.64520  0.38439  1.0000 0.1296048843
H   H174      1.0  0.78446  0.59539  0.27660  1.0000 0.14627894
H   H175      1.0  0.72465  0.42196  0.30251  1.0000 0.14627894
H   H176      1.0  0.74237  0.47569  0.41002  1.0000 0.1296048843
H   H177      1.0  0.76274  0.49612  0.07654  1.0000 0.1296048843
H   H178      1.0  0.78445  0.54732  0.18487  1.0000 0.14627894
H   H179      1.0  0.69159  0.37741  0.20088  1.0000 0.140252637
H   H180      1.0  0.66978  0.32970  0.09118  1.0000 0.1296048843
H   H181      1.0  0.97075  0.77454  0.56047  1.0000 0.1189775704
H   H182      1.0  0.86003  0.72239  0.50762  1.0000 0.1189775704
H   H183      1.0  0.87921  0.55545  0.53182  1.0000 0.1106660522
H   H184      1.0  0.98920  0.60812  0.58703  1.0000 0.1189775704
H   H185      1.0  0.76910  0.56783  0.49715  1.0000 0.1189775704
H   H186      1.0  0.76324  0.63110  0.48075  1.0000 0.1296048843
H   H187      1.0  0.50652  0.40293  0.90855  1.0000 0.1189775704
H   H188      1.0  0.61775  0.43894  0.96113  1.0000 0.1189775704
H   H189      1.0  0.60947  0.25821  0.96232  1.0000 0.1296048843
H   H190      1.0  0.49775  0.22263  0.91226  1.0000 0.1189775704
H   H191      1.0  0.71448  0.33989  0.99584  1.0000 0.140252637
H   H192      1.0  0.71927  0.40726  0.98414  1.0000 0.140252637
H   H193      1.0  0.82275  0.70911  0.25347  1.0000 0.3478104825
H   H194      1.0  0.81513  0.66936  0.19151  1.0000 0.3589042448
H   H195      1.0  0.76267  0.80070  0.22493  1.0000 0.3300577823
H   H196      1.0  0.70615  0.79110  0.17618  1.0000 0.3478104825
H   H197      1.0  0.73786  0.72816  0.30767  1.0000 0.339787184
H   H198      1.0  0.68201  0.67605  0.29167  1.0000 0.3478104825
H   H199      1.0  0.82419  0.81889  0.70394  1.0000 0.3300577823
H   H200      1.0  0.76794  0.76746  0.68262  1.0000 0.2913229836
H   H201      1.0  0.39469  0.24084  0.98304  1.0000 0.1296048843
H   H202      1.0  0.28818  0.23001  0.93307  1.0000 0.140252637
H   H203      1.0  0.27245  0.30237  0.10915  1.0000 0.140252637
H   H204      1.0  0.37964  0.31255  0.15542  1.0000 0.1189775704
H   H205      1.0  0.06648  0.26639  0.01608  1.0000 0.1296048843
H   H206      1.0  0.17514  0.28613  0.06605  1.0000 0.140252637
H   H207      1.0  0.19343  0.22138  0.88959  1.0000 0.140252637
H   H208      1.0  0.08386  0.20067  0.84326  1.0000 0.1296048843
H   H209      1.0  0.58551  0.47346  0.08965  1.0000 0.1189775704
H   H210      1.0  0.52048  0.36524  0.04730  1.0000 0.1189775704
H   H211      1.0  0.50982  0.36947  0.22465  1.0000 0.1189775704
H   H212      1.0  0.57340  0.47803  0.26643  1.0000 0.1106660522
H   H213      1.0  0.48202  0.26120  0.07283  1.0000 0.140252637
H   H214      1.0  0.46947  0.26634  0.13985  1.0000 0.140252637
H   H215      1.0  0.90684  0.02316  0.72871  1.0000 0.1189775704
H   H216      1.0  0.95624  0.13469  0.77304  1.0000 0.1296048843
H   H217      1.0  0.95476  0.12567  0.94958  1.0000 0.1189775704
H   H218      1.0  0.90342  0.01442  0.90511  1.0000 0.1189775704
H   H219      1.0  0.98629  0.23446  0.86007  1.0000 0.140252637
H   H220      1.0  0.97513  0.23314  0.92662  1.0000 0.140252637
H   H221      1.0  0.64520  0.38439  0.80100  1.0000 0.1296048843
H   H222      1.0  0.59539  0.27660  0.78446  1.0000 0.14627894
H   H223      1.0  0.42196  0.30251  0.72465  1.0000 0.14627894
H   H224      1.0  0.47569  0.41002  0.74237  1.0000 0.1296048843
H   H225      1.0  0.49612  0.07654  0.76274  1.0000 0.1296048843
H   H226      1.0  0.54732  0.18487  0.78445  1.0000 0.14627894
H   H227      1.0  0.37741  0.20088  0.69159  1.0000 0.140252637
H   H228      1.0  0.32970  0.09118  0.66978  1.0000 0.1296048843
H   H229      1.0  0.77454  0.56047  0.97075  1.0000 0.1189775704
H   H230      1.0  0.72239  0.50762  0.86003  1.0000 0.1189775704
H   H231      1.0  0.55545  0.53182  0.87921  1.0000 0.1106660522
H   H232      1.0  0.60812  0.58703  0.98920  1.0000 0.1189775704
H   H233      1.0  0.56783  0.49715  0.76910  1.0000 0.1189775704
H   H234      1.0  0.63110  0.48075  0.76324  1.0000 0.1296048843
H   H235      1.0  0.40293  0.90855  0.50652  1.0000 0.1189775704
H   H236      1.0  0.43894  0.96113  0.61775  1.0000 0.1189775704
H   H237      1.0  0.25821  0.96232  0.60947  1.0000 0.1296048843
H   H238      1.0  0.22263  0.91226  0.49775  1.0000 0.1189775704
H   H239      1.0  0.33989  0.99584  0.71448  1.0000 0.140252637
H   H240      1.0  0.40726  0.98414  0.71927  1.0000 0.140252637
H   H241      1.0  0.70911  0.25347  0.82275  1.0000 0.3478104825
H   H242      1.0  0.66936  0.19151  0.81513  1.0000 0.3589042448
H   H243      1.0  0.80070  0.22493  0.76267  1.0000 0.3300577823
H   H244      1.0  0.79110  0.17618  0.70615  1.0000 0.3478104825
H   H245      1.0  0.72816  0.30767  0.73786  1.0000 0.339787184
H   H246      1.0  0.67605  0.29167  0.68201  1.0000 0.3478104825
H   H247      1.0  0.81889  0.70394  0.82419  1.0000 0.3300577823
H   H248      1.0  0.76746  0.68262  0.76794  1.0000 0.2913229836
H   H249      1.0  0.24084  0.98304  0.39469  1.0000 0.1296048843
H   H250      1.0  0.23001  0.93307  0.28818  1.0000 0.140252637
H   H251      1.0  0.30237  0.10915  0.27245  1.0000 0.140252637
H   H252      1.0  0.31255  0.15542  0.37964  1.0000 0.1189775704
H   H253      1.0  0.26639  0.01608  0.06648  1.0000 0.1296048843
H   H254      1.0  0.28613  0.06605  0.17514  1.0000 0.140252637
H   H255      1.0  0.22138  0.88959  0.19343  1.0000 0.140252637
H   H256      1.0  0.20067  0.84326  0.08386  1.0000 0.1296048843
H   H257      1.0  0.47346  0.08965  0.58551  1.0000 0.1189775704
H   H258      1.0  0.36524  0.04730  0.52048  1.0000 0.1189775704
H   H259      1.0  0.36947  0.22465  0.50982  1.0000 0.1189775704
H   H260      1.0  0.47803  0.26643  0.57340  1.0000 0.1106660522
H   H261      1.0  0.26120  0.07283  0.48202  1.0000 0.140252637
H   H262      1.0  0.26634  0.13985  0.46947  1.0000 0.140252637
H   H263      1.0  0.02316  0.72871  0.90684  1.0000 0.1189775704
H   H264      1.0  0.13469  0.77304  0.95624  1.0000 0.1296048843
H   H265      1.0  0.12567  0.94958  0.95476  1.0000 0.1189775704
H   H266      1.0  0.01442  0.90511  0.90342  1.0000 0.1189775704
H   H267      1.0  0.23446  0.86007  0.98629  1.0000 0.140252637
H   H268      1.0  0.23314  0.92662  0.97513  1.0000 0.140252637
H   H269      1.0  0.38439  0.80100  0.64520  1.0000 0.1296048843
H   H270      1.0  0.27660  0.78446  0.59539  1.0000 0.14627894
H   H271      1.0  0.30251  0.72465  0.42196  1.0000 0.14627894
H   H272      1.0  0.41002  0.74237  0.47569  1.0000 0.1296048843
H   H273      1.0  0.07654  0.76274  0.49612  1.0000 0.1296048843
H   H274      1.0  0.18487  0.78445  0.54732  1.0000 0.14627894
H   H275      1.0  0.20088  0.69159  0.37741  1.0000 0.140252637
H   H276      1.0  0.09118  0.66978  0.32970  1.0000 0.1296048843
H   H277      1.0  0.56047  0.97075  0.77454  1.0000 0.1189775704
H   H278      1.0  0.50762  0.86003  0.72239  1.0000 0.1189775704
H   H279      1.0  0.53182  0.87921  0.55545  1.0000 0.1106660522
H   H280      1.0  0.58703  0.98920  0.60812  1.0000 0.1189775704
H   H281      1.0  0.49715  0.76910  0.56783  1.0000 0.1189775704
H   H282      1.0  0.48075  0.76324  0.63110  1.0000 0.1296048843
H   H283      1.0  0.90855  0.50652  0.40293  1.0000 0.1189775704
H   H284      1.0  0.96113  0.61775  0.43894  1.0000 0.1189775704
H   H285      1.0  0.96232  0.60947  0.25821  1.0000 0.1296048843
H   H286      1.0  0.91226  0.49775  0.22263  1.0000 0.1189775704
H   H287      1.0  0.99584  0.71448  0.33989  1.0000 0.140252637
H   H288      1.0  0.98414  0.71927  0.40726  1.0000 0.140252637
H   H289      1.0  0.84946  0.41240  0.98702  1.0000 0.1189775704
H   H290      1.0  0.93446  0.50467  0.05568  1.0000 0.1189775704
H   H291      1.0  0.91323  0.58888  0.91675  1.0000 0.1106660522
H   H292      1.0  0.82796  0.49642  0.84822  1.0000 0.1106660522
H   H293      1.0  0.98702  0.84946  0.41240  1.0000 0.1189775704
H   H294      1.0  0.05568  0.93446  0.50467  1.0000 0.1296048843
H   H295      1.0  0.91675  0.91323  0.58888  1.0000 0.1106660522
H   H296      1.0  0.84822  0.82796  0.49642  1.0000 0.1106660522
H   H297      1.0  0.41240  0.98702  0.84946  1.0000 0.1189775704
H   H298      1.0  0.50467  0.05568  0.93446  1.0000 0.1189775704
H   H299      1.0  0.58888  0.91675  0.91323  1.0000 0.1106660522
H   H300      1.0  0.49642  0.84822  0.82796  1.0000 0.1106660522
H   H301      1.0  0.15054  0.58760  0.01298  1.0000 0.1189775704
H   H302      1.0  0.06554  0.49533  0.94432  1.0000 0.1296048843
H   H303      1.0  0.08677  0.41112  0.08325  1.0000 0.1106660522
H   H304      1.0  0.17204  0.50358  0.15178  1.0000 0.1106660522
H   H305      1.0  0.01298  0.15054  0.58760  1.0000 0.1189775704
H   H306      1.0  0.94432  0.06554  0.49533  1.0000 0.1189775704
H   H307      1.0  0.08325  0.08677  0.41112  1.0000 0.1106660522
H   H308      1.0  0.15178  0.17204  0.50358  1.0000 0.1106660522
H   H309      1.0  0.58760  0.01298  0.15054  1.0000 0.1189775704
H   H310      1.0  0.49533  0.94432  0.06554  1.0000 0.1189775704
H   H311      1.0  0.41112  0.08325  0.08677  1.0000 0.1106660522
H   H312      1.0  0.50358  0.15178  0.17204  1.0000 0.1106660522
C   C1        1.0  0.99166  0.63043  0.74665  1.0000 0.0501952406
C   C2        1.0  0.02160  0.69422  0.75336  1.0000 -0.1481050553
C   C3        1.0  0.98486  0.73283  0.73556  1.0000 0.1189775704
C   C4        1.0  0.91734  0.70353  0.71040  1.0000 -0.1603948421
C   C5        1.0  0.88978  0.63947  0.70437  1.0000 0.0149039053
C   C6        1.0  0.00921  0.90749  0.74340  1.0000 0.0586693937
C   C7        1.0  0.97924  0.84254  0.73134  1.0000 -0.1481050553
C   C8        1.0  0.01644  0.80271  0.74516  1.0000 0.1189775704
C   C9        1.0  0.08386  0.83180  0.77003  1.0000 -0.1603948421
C   C10       1.0  0.11154  0.89718  0.78200  1.0000 0.0386984044
C   C11       1.0  0.78912  0.37103  0.44230  1.0000 0.5550826861
C   C12       1.0  0.81745  0.41382  0.51305  1.0000 -0.0381780371
C   C13       1.0  0.88312  0.42993  0.54734  1.0000 -0.1078963632
C   C14       1.0  0.90848  0.46879  0.61227  1.0000 -0.178645236
C   C15       1.0  0.86845  0.49186  0.64408  1.0000 0.092714382
C   C16       1.0  0.80281  0.47532  0.60968  1.0000 -0.178645236
C   C17       1.0  0.77767  0.43693  0.54463  1.0000 -0.117708731
C   C18       1.0  0.89533  0.53382  0.71501  1.0000 -0.2063254467
C   C19       1.0  0.21769  0.13498  0.06580  1.0000 0.5550826861
C   C20       1.0  0.18774  0.10009  0.99312  1.0000 -0.0381780371
C   C21       1.0  0.22687  0.08388  0.95634  1.0000 -0.1011958459
C   C22       1.0  0.20020  0.05406  0.88953  1.0000 -0.1603948421
C   C23       1.0  0.13412  0.03930  0.85814  1.0000 0.092714382
C   C24       1.0  0.09496  0.05517  0.89481  1.0000 -0.1680923745
C   C25       1.0  0.12157  0.08564  0.96154  1.0000 -0.1078963632
C   C26       1.0  0.10559  0.00619  0.78505  1.0000 -0.1888317244
C   C27       1.0  0.21433  0.40020  0.63265  1.0000 0.0501952406
C   C28       1.0  0.22437  0.42987  0.69710  1.0000 -0.1481050553
C   C29       1.0  0.24789  0.49809  0.72395  1.0000 0.1106660522
C   C30       1.0  0.25983  0.53259  0.68186  1.0000 -0.1603948421
C   C31       1.0  0.24896  0.50039  0.61744  1.0000 0.0386984044
C   C32       1.0  0.25236  0.52756  0.89812  1.0000 0.0386984044
C   C33       1.0  0.23906  0.49708  0.83330  1.0000 -0.1481050553
C   C34       1.0  0.25996  0.53112  0.79387  1.0000 0.1106660522
C   C35       1.0  0.29418  0.59746  0.82372  1.0000 -0.1603948421
C   C36       1.0  0.30702  0.62591  0.88932  1.0000 0.0282732632
C   C37       1.0  0.93626  0.26927  0.38390  1.0000 0.5486836109
C   C38       1.0  0.00852  0.30319  0.42049  1.0000 -0.0381780371
C   C39       1.0  0.04752  0.26939  0.44478  1.0000 -0.1011958459
C   C40       1.0  0.11389  0.30093  0.47698  1.0000 -0.1680923745
C   C41       1.0  0.14179  0.36643  0.48651  1.0000 0.092714382
C   C42       1.0  0.10263  0.40043  0.46227  1.0000 -0.178645236
C   C43       1.0  0.03665  0.36884  0.42937  1.0000 -0.1078963632
C   C44       1.0  0.21382  0.40069  0.52278  1.0000 -0.1968628989
C   C45       1.0  0.58267  0.71457  0.12957  1.0000 0.5486836109
C   C46       1.0  0.50945  0.69108  0.09506  1.0000 -0.0381780371
C   C47       1.0  0.47295  0.62624  0.08024  1.0000 -0.1078963632
C   C48       1.0  0.40633  0.60471  0.04893  1.0000 -0.1680923745
C   C49       1.0  0.37519  0.64776  0.03243  1.0000 0.0995319568
C   C50       1.0  0.41128  0.71243  0.04786  1.0000 -0.1680923745
C   C51       1.0  0.47816  0.73386  0.07838  1.0000 -0.1078963632
C   C52       1.0  0.30219  0.62356  0.99754  1.0000 -0.1968628989
C   C53       1.0  0.63043  0.74665  0.99166  1.0000 0.0501952406
C   C54       1.0  0.69422  0.75336  0.02160  1.0000 -0.1481050553
C   C55       1.0  0.73283  0.73556  0.98486  1.0000 0.1189775704
C   C56       1.0  0.70353  0.71040  0.91734  1.0000 -0.1603948421
C   C57       1.0  0.63947  0.70437  0.88978  1.0000 0.0149039053
C   C58       1.0  0.90749  0.74340  0.00921  1.0000 0.0586693937
C   C59       1.0  0.84254  0.73134  0.97924  1.0000 -0.1481050553
C   C60       1.0  0.80271  0.74516  0.01644  1.0000 0.1189775704
C   C61       1.0  0.83180  0.77003  0.08386  1.0000 -0.1603948421
C   C62       1.0  0.89718  0.78200  0.11154  1.0000 0.0386984044
C   C63       1.0  0.37103  0.44230  0.78912  1.0000 0.5550826861
C   C64       1.0  0.41382  0.51305  0.81745  1.0000 -0.0381780371
C   C65       1.0  0.42993  0.54734  0.88312  1.0000 -0.1078963632
C   C66       1.0  0.46879  0.61227  0.90848  1.0000 -0.178645236
C   C67       1.0  0.49186  0.64408  0.86845  1.0000 0.092714382
C   C68       1.0  0.47532  0.60968  0.80281  1.0000 -0.178645236
C   C69       1.0  0.43693  0.54463  0.77767  1.0000 -0.117708731
C   C70       1.0  0.53382  0.71501  0.89533  1.0000 -0.2063254467
C   C71       1.0  0.13498  0.06580  0.21769  1.0000 0.5550826861
C   C72       1.0  0.10009  0.99312  0.18774  1.0000 -0.0381780371
C   C73       1.0  0.08388  0.95634  0.22687  1.0000 -0.1011958459
C   C74       1.0  0.05406  0.88953  0.20020  1.0000 -0.1603948421
C   C75       1.0  0.03930  0.85814  0.13412  1.0000 0.092714382
C   C76       1.0  0.05517  0.89481  0.09496  1.0000 -0.1680923745
C   C77       1.0  0.08564  0.96154  0.12157  1.0000 -0.1078963632
C   C78       1.0  0.00619  0.78505  0.10559  1.0000 -0.1888317244
C   C79       1.0  0.40020  0.63265  0.21433  1.0000 0.0501952406
C   C80       1.0  0.42987  0.69710  0.22437  1.0000 -0.1481050553
C   C81       1.0  0.49809  0.72395  0.24789  1.0000 0.1106660522
C   C82       1.0  0.53259  0.68186  0.25983  1.0000 -0.1603948421
C   C83       1.0  0.50039  0.61744  0.24896  1.0000 0.0386984044
C   C84       1.0  0.52756  0.89812  0.25236  1.0000 0.0386984044
C   C85       1.0  0.49708  0.83330  0.23906  1.0000 -0.1481050553
C   C86       1.0  0.53112  0.79387  0.25996  1.0000 0.1106660522
C   C87       1.0  0.59746  0.82372  0.29418  1.0000 -0.1603948421
C   C88       1.0  0.62591  0.88932  0.30702  1.0000 0.0282732632
C   C89       1.0  0.26927  0.38390  0.93626  1.0000 0.5486836109
C   C90       1.0  0.30319  0.42049  0.00852  1.0000 -0.0381780371
C   C91       1.0  0.26939  0.44478  0.04752  1.0000 -0.1011958459
C   C92       1.0  0.30093  0.47698  0.11389  1.0000 -0.1680923745
C   C93       1.0  0.36643  0.48651  0.14179  1.0000 0.092714382
C   C94       1.0  0.40043  0.46227  0.10263  1.0000 -0.178645236
C   C95       1.0  0.36884  0.42937  0.03665  1.0000 -0.1078963632
C   C96       1.0  0.40069  0.52278  0.21382  1.0000 -0.1968628989
C   C97       1.0  0.71457  0.12957  0.58267  1.0000 0.5486836109
C   C98       1.0  0.69108  0.09506  0.50945  1.0000 -0.0381780371
C   C99       1.0  0.62624  0.08024  0.47295  1.0000 -0.1078963632
C   C100      1.0  0.60471  0.04893  0.40633  1.0000 -0.1680923745
C   C101      1.0  0.64776  0.03243  0.37519  1.0000 0.0995319568
C   C102      1.0  0.71243  0.04786  0.41128  1.0000 -0.1680923745
C   C103      1.0  0.73386  0.07838  0.47816  1.0000 -0.1078963632
C   C104      1.0  0.62356  0.99754  0.30219  1.0000 -0.1968628989
C   C105      1.0  0.74665  0.99166  0.63043  1.0000 0.0501952406
C   C106      1.0  0.75336  0.02160  0.69422  1.0000 -0.1481050553
C   C107      1.0  0.73556  0.98486  0.73283  1.0000 0.1189775704
C   C108      1.0  0.71040  0.91734  0.70353  1.0000 -0.1603948421
C   C109      1.0  0.70437  0.88978  0.63947  1.0000 0.0149039053
C   C110      1.0  0.74340  0.00921  0.90749  1.0000 0.0586693937
C   C111      1.0  0.73134  0.97924  0.84254  1.0000 -0.1481050553
C   C112      1.0  0.74516  0.01644  0.80271  1.0000 0.1189775704
C   C113      1.0  0.77003  0.08386  0.83180  1.0000 -0.1603948421
C   C114      1.0  0.78200  0.11154  0.89718  1.0000 0.0386984044
C   C115      1.0  0.44230  0.78912  0.37103  1.0000 0.5550826861
C   C116      1.0  0.51305  0.81745  0.41382  1.0000 -0.0381780371
C   C117      1.0  0.54734  0.88312  0.42993  1.0000 -0.1078963632
C   C118      1.0  0.61227  0.90848  0.46879  1.0000 -0.178645236
C   C119      1.0  0.64408  0.86845  0.49186  1.0000 0.092714382
C   C120      1.0  0.60968  0.80281  0.47532  1.0000 -0.178645236
C   C121      1.0  0.54463  0.77767  0.43693  1.0000 -0.117708731
C   C122      1.0  0.71501  0.89533  0.53382  1.0000 -0.2063254467
C   C123      1.0  0.06580  0.21769  0.13498  1.0000 0.5550826861
C   C124      1.0  0.99312  0.18774  0.10009  1.0000 -0.0381780371
C   C125      1.0  0.95634  0.22687  0.08388  1.0000 -0.1011958459
C   C126      1.0  0.88953  0.20020  0.05406  1.0000 -0.1603948421
C   C127      1.0  0.85814  0.13412  0.03930  1.0000 0.092714382
C   C128      1.0  0.89481  0.09496  0.05517  1.0000 -0.1680923745
C   C129      1.0  0.96154  0.12157  0.08564  1.0000 -0.1078963632
C   C130      1.0  0.78505  0.10559  0.00619  1.0000 -0.1888317244
C   C131      1.0  0.63265  0.21433  0.40020  1.0000 0.0501952406
C   C132      1.0  0.69710  0.22437  0.42987  1.0000 -0.1481050553
C   C133      1.0  0.72395  0.24789  0.49809  1.0000 0.1106660522
C   C134      1.0  0.68186  0.25983  0.53259  1.0000 -0.1603948421
C   C135      1.0  0.61744  0.24896  0.50039  1.0000 0.0386984044
C   C136      1.0  0.89812  0.25236  0.52756  1.0000 0.0386984044
C   C137      1.0  0.83330  0.23906  0.49708  1.0000 -0.1481050553
C   C138      1.0  0.79387  0.25996  0.53112  1.0000 0.1106660522
C   C139      1.0  0.82372  0.29418  0.59746  1.0000 -0.1603948421
C   C140      1.0  0.88932  0.30702  0.62591  1.0000 0.0282732632
C   C141      1.0  0.38390  0.93626  0.26927  1.0000 0.5486836109
C   C142      1.0  0.42049  0.00852  0.30319  1.0000 -0.0381780371
C   C143      1.0  0.44478  0.04752  0.26939  1.0000 -0.1011958459
C   C144      1.0  0.47698  0.11389  0.30093  1.0000 -0.1680923745
C   C145      1.0  0.48651  0.14179  0.36643  1.0000 0.092714382
C   C146      1.0  0.46227  0.10263  0.40043  1.0000 -0.178645236
C   C147      1.0  0.42937  0.03665  0.36884  1.0000 -0.1078963632
C   C148      1.0  0.52278  0.21382  0.40069  1.0000 -0.1968628989
C   C149      1.0  0.12957  0.58267  0.71457  1.0000 0.5486836109
C   C150      1.0  0.09506  0.50945  0.69108  1.0000 -0.0381780371
C   C151      1.0  0.08024  0.47295  0.62624  1.0000 -0.1078963632
C   C152      1.0  0.04893  0.40633  0.60471  1.0000 -0.1680923745
C   C153      1.0  0.03243  0.37519  0.64776  1.0000 0.0995319568
C   C154      1.0  0.04786  0.41128  0.71243  1.0000 -0.1680923745
C   C155      1.0  0.07838  0.47816  0.73386  1.0000 -0.1078963632
C   C156      1.0  0.99754  0.30219  0.62356  1.0000 -0.1968628989
C   C157      1.0  0.00834  0.36957  0.25335  1.0000 0.0501952406
C   C158      1.0  0.97840  0.30578  0.24664  1.0000 -0.1481050553
C   C159      1.0  0.01514  0.26717  0.26444  1.0000 0.1189775704
C   C160      1.0  0.08266  0.29647  0.28960  1.0000 -0.1603948421
C   C161      1.0  0.11022  0.36053  0.29563  1.0000 0.0149039053
C   C162      1.0  0.99079  0.09251  0.25660  1.0000 0.0586693937
C   C163      1.0  0.02076  0.15746  0.26866  1.0000 -0.1481050553
C   C164      1.0  0.98356  0.19729  0.25484  1.0000 0.1189775704
C   C165      1.0  0.91614  0.16820  0.22997  1.0000 -0.1603948421
C   C166      1.0  0.88846  0.10282  0.21800  1.0000 0.0386984044
C   C167      1.0  0.21088  0.62897  0.55770  1.0000 0.5550826861
C   C168      1.0  0.18255  0.58618  0.48695  1.0000 -0.0381780371
C   C169      1.0  0.11688  0.57007  0.45266  1.0000 -0.1078963632
C   C170      1.0  0.09152  0.53121  0.38773  1.0000 -0.178645236
C   C171      1.0  0.13155  0.50814  0.35592  1.0000 0.092714382
C   C172      1.0  0.19719  0.52468  0.39032  1.0000 -0.178645236
C   C173      1.0  0.22233  0.56307  0.45537  1.0000 -0.117708731
C   C174      1.0  0.10467  0.46618  0.28499  1.0000 -0.2063254467
C   C175      1.0  0.78231  0.86502  0.93420  1.0000 0.5550826861
C   C176      1.0  0.81226  0.89991  0.00688  1.0000 -0.0381780371
C   C177      1.0  0.77313  0.91612  0.04366  1.0000 -0.1011958459
C   C178      1.0  0.79980  0.94594  0.11047  1.0000 -0.1603948421
C   C179      1.0  0.86588  0.96070  0.14186  1.0000 0.092714382
C   C180      1.0  0.90504  0.94483  0.10519  1.0000 -0.1680923745
C   C181      1.0  0.87843  0.91436  0.03846  1.0000 -0.1078963632
C   C182      1.0  0.89441  0.99381  0.21495  1.0000 -0.1888317244
C   C183      1.0  0.78567  0.59980  0.36735  1.0000 0.0501952406
C   C184      1.0  0.77563  0.57013  0.30290  1.0000 -0.1481050553
C   C185      1.0  0.75211  0.50191  0.27605  1.0000 0.1106660522
C   C186      1.0  0.74017  0.46741  0.31814  1.0000 -0.1603948421
C   C187      1.0  0.75104  0.49961  0.38256  1.0000 0.0386984044
C   C188      1.0  0.74764  0.47244  0.10188  1.0000 0.0386984044
C   C189      1.0  0.76094  0.50292  0.16670  1.0000 -0.1481050553
C   C190      1.0  0.74004  0.46888  0.20613  1.0000 0.1106660522
C   C191      1.0  0.70582  0.40254  0.17628  1.0000 -0.1603948421
C   C192      1.0  0.69298  0.37409  0.11068  1.0000 0.0282732632
C   C193      1.0  0.06374  0.73073  0.61610  1.0000 0.5486836109
C   C194      1.0  0.99148  0.69681  0.57951  1.0000 -0.0381780371
C   C195      1.0  0.95248  0.73061  0.55522  1.0000 -0.1011958459
C   C196      1.0  0.88611  0.69907  0.52302  1.0000 -0.1680923745
C   C197      1.0  0.85821  0.63357  0.51349  1.0000 0.092714382
C   C198      1.0  0.89737  0.59957  0.53773  1.0000 -0.178645236
C   C199      1.0  0.96335  0.63116  0.57063  1.0000 -0.1078963632
C   C200      1.0  0.78618  0.59931  0.47722  1.0000 -0.1968628989
C   C201      1.0  0.41733  0.28543  0.87043  1.0000 0.5486836109
C   C202      1.0  0.49055  0.30892  0.90494  1.0000 -0.0381780371
C   C203      1.0  0.52705  0.37376  0.91976  1.0000 -0.1078963632
C   C204      1.0  0.59367  0.39529  0.95107  1.0000 -0.1680923745
C   C205      1.0  0.62481  0.35224  0.96757  1.0000 0.0995319568
C   C206      1.0  0.58872  0.28757  0.95214  1.0000 -0.1680923745
C   C207      1.0  0.52184  0.26614  0.92162  1.0000 -0.1078963632
C   C208      1.0  0.69781  0.37644  0.00246  1.0000 -0.1968628989
C   C209      1.0  0.36957  0.25335  0.00834  1.0000 0.0501952406
C   C210      1.0  0.30578  0.24664  0.97840  1.0000 -0.1481050553
C   C211      1.0  0.26717  0.26444  0.01514  1.0000 0.1189775704
C   C212      1.0  0.29647  0.28960  0.08266  1.0000 -0.1603948421
C   C213      1.0  0.36053  0.29563  0.11022  1.0000 0.0149039053
C   C214      1.0  0.09251  0.25660  0.99079  1.0000 0.0586693937
C   C215      1.0  0.15746  0.26866  0.02076  1.0000 -0.1481050553
C   C216      1.0  0.19729  0.25484  0.98356  1.0000 0.1189775704
C   C217      1.0  0.16820  0.22997  0.91614  1.0000 -0.1603948421
C   C218      1.0  0.10282  0.21800  0.88846  1.0000 0.0386984044
C   C219      1.0  0.62897  0.55770  0.21088  1.0000 0.5550826861
C   C220      1.0  0.58618  0.48695  0.18255  1.0000 -0.0381780371
C   C221      1.0  0.57007  0.45266  0.11688  1.0000 -0.1078963632
C   C222      1.0  0.53121  0.38773  0.09152  1.0000 -0.178645236
C   C223      1.0  0.50814  0.35592  0.13155  1.0000 0.092714382
C   C224      1.0  0.52468  0.39032  0.19719  1.0000 -0.178645236
C   C225      1.0  0.56307  0.45537  0.22233  1.0000 -0.117708731
C   C226      1.0  0.46618  0.28499  0.10467  1.0000 -0.2063254467
C   C227      1.0  0.86502  0.93420  0.78231  1.0000 0.5550826861
C   C228      1.0  0.89991  0.00688  0.81226  1.0000 -0.0381780371
C   C229      1.0  0.91612  0.04366  0.77313  1.0000 -0.1011958459
C   C230      1.0  0.94594  0.11047  0.79980  1.0000 -0.1603948421
C   C231      1.0  0.96070  0.14186  0.86588  1.0000 0.092714382
C   C232      1.0  0.94483  0.10519  0.90504  1.0000 -0.1680923745
C   C233      1.0  0.91436  0.03846  0.87843  1.0000 -0.1078963632
C   C234      1.0  0.99381  0.21495  0.89441  1.0000 -0.1888317244
C   C235      1.0  0.59980  0.36735  0.78567  1.0000 0.0501952406
C   C236      1.0  0.57013  0.30290  0.77563  1.0000 -0.1481050553
C   C237      1.0  0.50191  0.27605  0.75211  1.0000 0.1106660522
C   C238      1.0  0.46741  0.31814  0.74017  1.0000 -0.1603948421
C   C239      1.0  0.49961  0.38256  0.75104  1.0000 0.0386984044
C   C240      1.0  0.47244  0.10188  0.74764  1.0000 0.0386984044
C   C241      1.0  0.50292  0.16670  0.76094  1.0000 -0.1481050553
C   C242      1.0  0.46888  0.20613  0.74004  1.0000 0.1106660522
C   C243      1.0  0.40254  0.17628  0.70582  1.0000 -0.1603948421
C   C244      1.0  0.37409  0.11068  0.69298  1.0000 0.0282732632
C   C245      1.0  0.73073  0.61610  0.06374  1.0000 0.5486836109
C   C246      1.0  0.69681  0.57951  0.99148  1.0000 -0.0381780371
C   C247      1.0  0.73061  0.55522  0.95248  1.0000 -0.1011958459
C   C248      1.0  0.69907  0.52302  0.88611  1.0000 -0.1680923745
C   C249      1.0  0.63357  0.51349  0.85821  1.0000 0.092714382
C   C250      1.0  0.59957  0.53773  0.89737  1.0000 -0.178645236
C   C251      1.0  0.63116  0.57063  0.96335  1.0000 -0.1078963632
C   C252      1.0  0.59931  0.47722  0.78618  1.0000 -0.1968628989
C   C253      1.0  0.28543  0.87043  0.41733  1.0000 0.5486836109
C   C254      1.0  0.30892  0.90494  0.49055  1.0000 -0.0381780371
C   C255      1.0  0.37376  0.91976  0.52705  1.0000 -0.1078963632
C   C256      1.0  0.39529  0.95107  0.59367  1.0000 -0.1680923745
C   C257      1.0  0.35224  0.96757  0.62481  1.0000 0.0995319568
C   C258      1.0  0.28757  0.95214  0.58872  1.0000 -0.1680923745
C   C259      1.0  0.26614  0.92162  0.52184  1.0000 -0.1078963632
C   C260      1.0  0.37644  0.00246  0.69781  1.0000 -0.1968628989
C   C261      1.0  0.25335  0.00834  0.36957  1.0000 0.0501952406
C   C262      1.0  0.24664  0.97840  0.30578  1.0000 -0.1481050553
C   C263      1.0  0.26444  0.01514  0.26717  1.0000 0.1189775704
C   C264      1.0  0.28960  0.08266  0.29647  1.0000 -0.1603948421
C   C265      1.0  0.29563  0.11022  0.36053  1.0000 0.0149039053
C   C266      1.0  0.25660  0.99079  0.09251  1.0000 0.0586693937
C   C267      1.0  0.26866  0.02076  0.15746  1.0000 -0.1481050553
C   C268      1.0  0.25484  0.98356  0.19729  1.0000 0.1189775704
C   C269      1.0  0.22997  0.91614  0.16820  1.0000 -0.1603948421
C   C270      1.0  0.21800  0.88846  0.10282  1.0000 0.0386984044
C   C271      1.0  0.55770  0.21088  0.62897  1.0000 0.5550826861
C   C272      1.0  0.48695  0.18255  0.58618  1.0000 -0.0381780371
C   C273      1.0  0.45266  0.11688  0.57007  1.0000 -0.1078963632
C   C274      1.0  0.38773  0.09152  0.53121  1.0000 -0.178645236
C   C275      1.0  0.35592  0.13155  0.50814  1.0000 0.092714382
C   C276      1.0  0.39032  0.19719  0.52468  1.0000 -0.178645236
C   C277      1.0  0.45537  0.22233  0.56307  1.0000 -0.117708731
C   C278      1.0  0.28499  0.10467  0.46618  1.0000 -0.2063254467
C   C279      1.0  0.93420  0.78231  0.86502  1.0000 0.5550826861
C   C280      1.0  0.00688  0.81226  0.89991  1.0000 -0.0381780371
C   C281      1.0  0.04366  0.77313  0.91612  1.0000 -0.1011958459
C   C282      1.0  0.11047  0.79980  0.94594  1.0000 -0.1603948421
C   C283      1.0  0.14186  0.86588  0.96070  1.0000 0.092714382
C   C284      1.0  0.10519  0.90504  0.94483  1.0000 -0.1680923745
C   C285      1.0  0.03846  0.87843  0.91436  1.0000 -0.1078963632
C   C286      1.0  0.21495  0.89441  0.99381  1.0000 -0.1888317244
C   C287      1.0  0.36735  0.78567  0.59980  1.0000 0.0501952406
C   C288      1.0  0.30290  0.77563  0.57013  1.0000 -0.1481050553
C   C289      1.0  0.27605  0.75211  0.50191  1.0000 0.1106660522
C   C290      1.0  0.31814  0.74017  0.46741  1.0000 -0.1603948421
C   C291      1.0  0.38256  0.75104  0.49961  1.0000 0.0386984044
C   C292      1.0  0.10188  0.74764  0.47244  1.0000 0.0386984044
C   C293      1.0  0.16670  0.76094  0.50292  1.0000 -0.1481050553
C   C294      1.0  0.20613  0.74004  0.46888  1.0000 0.1106660522
C   C295      1.0  0.17628  0.70582  0.40254  1.0000 -0.1603948421
C   C296      1.0  0.11068  0.69298  0.37409  1.0000 0.0282732632
C   C297      1.0  0.61610  0.06374  0.73073  1.0000 0.5486836109
C   C298      1.0  0.57951  0.99148  0.69681  1.0000 -0.0381780371
C   C299      1.0  0.55522  0.95248  0.73061  1.0000 -0.1011958459
C   C300      1.0  0.52302  0.88611  0.69907  1.0000 -0.1680923745
C   C301      1.0  0.51349  0.85821  0.63357  1.0000 0.092714382
C   C302      1.0  0.53773  0.89737  0.59957  1.0000 -0.178645236
C   C303      1.0  0.57063  0.96335  0.63116  1.0000 -0.1078963632
C   C304      1.0  0.47722  0.78618  0.59931  1.0000 -0.1968628989
C   C305      1.0  0.87043  0.41733  0.28543  1.0000 0.5486836109
C   C306      1.0  0.90494  0.49055  0.30892  1.0000 -0.0381780371
C   C307      1.0  0.91976  0.52705  0.37376  1.0000 -0.1078963632
C   C308      1.0  0.95107  0.59367  0.39529  1.0000 -0.1680923745
C   C309      1.0  0.96757  0.62481  0.35224  1.0000 0.0995319568
C   C310      1.0  0.95214  0.58872  0.28757  1.0000 -0.1680923745
C   C311      1.0  0.92162  0.52184  0.26614  1.0000 -0.1078963632
C   C312      1.0  0.00246  0.69781  0.37644  1.0000 -0.1968628989
C   C313      1.0  0.77651  0.38274  0.86326  1.0000 0.5443262829
C   C314      1.0  0.99332  0.61433  0.03631  1.0000 0.5486836109
C   C315      1.0  0.83080  0.44414  0.90975  1.0000 -0.025381785
C   C316      1.0  0.86248  0.44747  0.97233  1.0000 -0.1011958459
C   C317      1.0  0.91359  0.50286  0.01340  1.0000 -0.0917236968
C   C318      1.0  0.93421  0.55533  0.99296  1.0000 -0.0039845492
C   C319      1.0  0.90113  0.55320  0.93088  1.0000 -0.117708731
C   C320      1.0  0.84995  0.49770  0.88996  1.0000 -0.1260951834
C   C321      1.0  0.86326  0.77651  0.38274  1.0000 0.5443262829
C   C322      1.0  0.03631  0.99332  0.61433  1.0000 0.5486836109
C   C323      1.0  0.90975  0.83080  0.44414  1.0000 -0.025381785
C   C324      1.0  0.97233  0.86248  0.44747  1.0000 -0.1011958459
C   C325      1.0  0.01340  0.91359  0.50286  1.0000 -0.0917236968
C   C326      1.0  0.99296  0.93421  0.55533  1.0000 -0.0039845492
C   C327      1.0  0.93088  0.90113  0.55320  1.0000 -0.117708731
C   C328      1.0  0.88996  0.84995  0.49770  1.0000 -0.1260951834
C   C329      1.0  0.38274  0.86326  0.77651  1.0000 0.5443262829
C   C330      1.0  0.61433  0.03631  0.99332  1.0000 0.5486836109
C   C331      1.0  0.44414  0.90975  0.83080  1.0000 -0.025381785
C   C332      1.0  0.44747  0.97233  0.86248  1.0000 -0.1011958459
C   C333      1.0  0.50286  0.01340  0.91359  1.0000 -0.0917236968
C   C334      1.0  0.55533  0.99296  0.93421  1.0000 -0.0039845492
C   C335      1.0  0.55320  0.93088  0.90113  1.0000 -0.117708731
C   C336      1.0  0.49770  0.88996  0.84995  1.0000 -0.1260951834
C   C337      1.0  0.22349  0.61726  0.13674  1.0000 0.5443262829
C   C338      1.0  0.00668  0.38567  0.96369  1.0000 0.5486836109
C   C339      1.0  0.16920  0.55586  0.09025  1.0000 -0.025381785
C   C340      1.0  0.13752  0.55253  0.02767  1.0000 -0.1011958459
C   C341      1.0  0.08641  0.49714  0.98660  1.0000 -0.0917236968
C   C342      1.0  0.06579  0.44467  0.00704  1.0000 -0.0039845492
C   C343      1.0  0.09887  0.44680  0.06912  1.0000 -0.117708731
C   C344      1.0  0.15005  0.50230  0.11004  1.0000 -0.1260951834
C   C345      1.0  0.13674  0.22349  0.61726  1.0000 0.5443262829
C   C346      1.0  0.96369  0.00668  0.38567  1.0000 0.5486836109
C   C347      1.0  0.09025  0.16920  0.55586  1.0000 -0.025381785
C   C348      1.0  0.02767  0.13752  0.55253  1.0000 -0.1011958459
C   C349      1.0  0.98660  0.08641  0.49714  1.0000 -0.0917236968
C   C350      1.0  0.00704  0.06579  0.44467  1.0000 -0.0039845492
C   C351      1.0  0.06912  0.09887  0.44680  1.0000 -0.117708731
C   C352      1.0  0.11004  0.15005  0.50230  1.0000 -0.1260951834
C   C353      1.0  0.61726  0.13674  0.22349  1.0000 0.5443262829
C   C354      1.0  0.38567  0.96369  0.00668  1.0000 0.5486836109
C   C355      1.0  0.55586  0.09025  0.16920  1.0000 -0.025381785
C   C356      1.0  0.55253  0.02767  0.13752  1.0000 -0.1011958459
C   C357      1.0  0.49714  0.98660  0.08641  1.0000 -0.0917236968
C   C358      1.0  0.44467  0.00704  0.06579  1.0000 -0.0039845492
C   C359      1.0  0.44680  0.06912  0.09887  1.0000 -0.117708731
C   C360      1.0  0.50230  0.11004  0.15005  1.0000 -0.1260951834
N   N1        1.0  0.92697  0.60382  0.72251  1.0000 0.0995319568
N   N2        1.0  0.07417  0.93441  0.76903  1.0000 0.1106660522
N   N3        1.0  0.22608  0.43514  0.59352  1.0000 0.0995319568
N   N4        1.0  0.28684  0.59112  0.92587  1.0000 0.0995319568
N   N5        1.0  0.60382  0.72251  0.92697  1.0000 0.0995319568
N   N6        1.0  0.93441  0.76903  0.07417  1.0000 0.1106660522
N   N7        1.0  0.43514  0.59352  0.22608  1.0000 0.0995319568
N   N8        1.0  0.59112  0.92587  0.28684  1.0000 0.0995319568
N   N9        1.0  0.72251  0.92697  0.60382  1.0000 0.0995319568
N   N10       1.0  0.76903  0.07417  0.93441  1.0000 0.1106660522
N   N11       1.0  0.59352  0.22608  0.43514  1.0000 0.0995319568
N   N12       1.0  0.92587  0.28684  0.59112  1.0000 0.0995319568
N   N13       1.0  0.07303  0.39618  0.27749  1.0000 0.0995319568
N   N14       1.0  0.92583  0.06559  0.23097  1.0000 0.1106660522
N   N15       1.0  0.77392  0.56486  0.40648  1.0000 0.0995319568
N   N16       1.0  0.71316  0.40888  0.07413  1.0000 0.0995319568
N   N17       1.0  0.39618  0.27749  0.07303  1.0000 0.0995319568
N   N18       1.0  0.06559  0.23097  0.92583  1.0000 0.1106660522
N   N19       1.0  0.56486  0.40648  0.77392  1.0000 0.0995319568
N   N20       1.0  0.40888  0.07413  0.71316  1.0000 0.0995319568
N   N21       1.0  0.27749  0.07303  0.39618  1.0000 0.0995319568
N   N22       1.0  0.23097  0.92583  0.06559  1.0000 0.1106660522
N   N23       1.0  0.40648  0.77392  0.56486  1.0000 0.0995319568
N   N24       1.0  0.07413  0.71316  0.40888  1.0000 0.0995319568
O   O1        1.0  0.82219  0.33907  0.42064  1.0000 -0.5592014866
O   O2        1.0  0.73390  0.37048  0.41047  1.0000 -0.5701268541
O   O3        1.0  0.18338  0.16159  0.09276  1.0000 -0.5790016578
O   O4        1.0  0.27398  0.13593  0.09322  1.0000 -0.5701268541
O   O5        1.0  0.90891  0.30008  0.35302  1.0000 -0.5701268541
O   O6        1.0  0.90969  0.21459  0.38676  1.0000 -0.5592014866
O   O7        1.0  0.60519  0.67538  0.15077  1.0000 -0.5548271464
O   O8        1.0  0.61488  0.77064  0.13411  1.0000 -0.5701268541
O   O9        1.0  0.77838  0.20210  0.32503  1.0000 -0.7171835976
O   O10       1.0  0.81349  0.26226  0.22343  1.0000 -0.6907991694
O   O11       1.0  0.71869  0.30105  0.29108  1.0000 -0.7171835976
O   O12       1.0  0.28995  0.19350  0.21651  1.0000 -0.6974989103
O   O13       1.0  0.33907  0.42064  0.82219  1.0000 -0.5592014866
O   O14       1.0  0.37048  0.41047  0.73390  1.0000 -0.5701268541
O   O15       1.0  0.16159  0.09276  0.18338  1.0000 -0.5790016578
O   O16       1.0  0.13593  0.09322  0.27398  1.0000 -0.5701268541
O   O17       1.0  0.30008  0.35302  0.90891  1.0000 -0.5701268541
O   O18       1.0  0.21459  0.38676  0.90969  1.0000 -0.5592014866
O   O19       1.0  0.67538  0.15077  0.60519  1.0000 -0.5548271464
O   O20       1.0  0.77064  0.13411  0.61488  1.0000 -0.5701268541
O   O21       1.0  0.20210  0.32503  0.77838  1.0000 -0.7171835976
O   O22       1.0  0.26226  0.22343  0.81349  1.0000 -0.6907991694
O   O23       1.0  0.30105  0.29108  0.71869  1.0000 -0.7171835976
O   O24       1.0  0.19350  0.21651  0.28995  1.0000 -0.6974989103
O   O25       1.0  0.42064  0.82219  0.33907  1.0000 -0.5592014866
O   O26       1.0  0.41047  0.73390  0.37048  1.0000 -0.5701268541
O   O27       1.0  0.09276  0.18338  0.16159  1.0000 -0.5790016578
O   O28       1.0  0.09322  0.27398  0.13593  1.0000 -0.5701268541
O   O29       1.0  0.35302  0.90891  0.30008  1.0000 -0.5701268541
O   O30       1.0  0.38676  0.90969  0.21459  1.0000 -0.5592014866
O   O31       1.0  0.15077  0.60519  0.67538  1.0000 -0.5548271464
O   O32       1.0  0.13411  0.61488  0.77064  1.0000 -0.5701268541
O   O33       1.0  0.32503  0.77838  0.20210  1.0000 -0.7171835976
O   O34       1.0  0.22343  0.81349  0.26226  1.0000 -0.6907991694
O   O35       1.0  0.29108  0.71869  0.30105  1.0000 -0.7171835976
O   O36       1.0  0.21651  0.28995  0.19350  1.0000 -0.6974989103
O   O37       1.0  0.17781  0.66093  0.57936  1.0000 -0.5592014866
O   O38       1.0  0.26610  0.62952  0.58953  1.0000 -0.5701268541
O   O39       1.0  0.81662  0.83841  0.90724  1.0000 -0.5790016578
O   O40       1.0  0.72602  0.86407  0.90678  1.0000 -0.5701268541
O   O41       1.0  0.09109  0.69992  0.64698  1.0000 -0.5701268541
O   O42       1.0  0.09031  0.78541  0.61324  1.0000 -0.5592014866
O   O43       1.0  0.39481  0.32462  0.84923  1.0000 -0.5548271464
O   O44       1.0  0.38512  0.22936  0.86589  1.0000 -0.5701268541
O   O45       1.0  0.22162  0.79790  0.67497  1.0000 -0.7171835976
O   O46       1.0  0.18651  0.73774  0.77657  1.0000 -0.6907991694
O   O47       1.0  0.28131  0.69895  0.70892  1.0000 -0.7171835976
O   O48       1.0  0.71005  0.80650  0.78349  1.0000 -0.6974989103
O   O49       1.0  0.66093  0.57936  0.17781  1.0000 -0.5592014866
O   O50       1.0  0.62952  0.58953  0.26610  1.0000 -0.5701268541
O   O51       1.0  0.83841  0.90724  0.81662  1.0000 -0.5790016578
O   O52       1.0  0.86407  0.90678  0.72602  1.0000 -0.5701268541
O   O53       1.0  0.69992  0.64698  0.09109  1.0000 -0.5701268541
O   O54       1.0  0.78541  0.61324  0.09031  1.0000 -0.5592014866
O   O55       1.0  0.32462  0.84923  0.39481  1.0000 -0.5548271464
O   O56       1.0  0.22936  0.86589  0.38512  1.0000 -0.5701268541
O   O57       1.0  0.79790  0.67497  0.22162  1.0000 -0.7171835976
O   O58       1.0  0.73774  0.77657  0.18651  1.0000 -0.6907991694
O   O59       1.0  0.69895  0.70892  0.28131  1.0000 -0.7171835976
O   O60       1.0  0.80650  0.78349  0.71005  1.0000 -0.6974989103
O   O61       1.0  0.57936  0.17781  0.66093  1.0000 -0.5592014866
O   O62       1.0  0.58953  0.26610  0.62952  1.0000 -0.5701268541
O   O63       1.0  0.90724  0.81662  0.83841  1.0000 -0.5790016578
O   O64       1.0  0.90678  0.72602  0.86407  1.0000 -0.5701268541
O   O65       1.0  0.64698  0.09109  0.69992  1.0000 -0.5701268541
O   O66       1.0  0.61324  0.09031  0.78541  1.0000 -0.5592014866
O   O67       1.0  0.84923  0.39481  0.32462  1.0000 -0.5548271464
O   O68       1.0  0.86589  0.38512  0.22936  1.0000 -0.5701268541
O   O69       1.0  0.67497  0.22162  0.79790  1.0000 -0.7171835976
O   O70       1.0  0.77657  0.18651  0.73774  1.0000 -0.6907991694
O   O71       1.0  0.70892  0.28131  0.69895  1.0000 -0.7171835976
O   O72       1.0  0.78349  0.71005  0.80650  1.0000 -0.6974989103
O   O73       1.0  0.76128  0.33538  0.88310  1.0000 -0.5701268541
O   O74       1.0  0.75025  0.38379  0.80717  1.0000 -0.5913848506
O   O75       1.0  0.01182  0.62151  0.09661  1.0000 -0.5992306895
O   O76       1.0  0.01951  0.65194  0.01013  1.0000 -0.5992306895
O   O77       1.0  0.88310  0.76128  0.33538  1.0000 -0.5701268541
O   O78       1.0  0.80717  0.75025  0.38379  1.0000 -0.5913848506
O   O79       1.0  0.09661  0.01182  0.62151  1.0000 -0.5992306895
O   O80       1.0  0.01013  0.01951  0.65194  1.0000 -0.5992306895
O   O81       1.0  0.33538  0.88310  0.76128  1.0000 -0.5701268541
O   O82       1.0  0.38379  0.80717  0.75025  1.0000 -0.5913848506
O   O83       1.0  0.62151  0.09661  0.01182  1.0000 -0.5992306895
O   O84       1.0  0.65194  0.01013  0.01951  1.0000 -0.5992306895
O   O85       1.0  0.23872  0.66462  0.11690  1.0000 -0.5701268541
O   O86       1.0  0.24975  0.61621  0.19283  1.0000 -0.5913848506
O   O87       1.0  0.98818  0.37849  0.90339  1.0000 -0.5992306895
O   O88       1.0  0.98049  0.34806  0.98987  1.0000 -0.5992306895
O   O89       1.0  0.11690  0.23872  0.66462  1.0000 -0.5701268541
O   O90       1.0  0.19283  0.24975  0.61621  1.0000 -0.5913848506
O   O91       1.0  0.90339  0.98818  0.37849  1.0000 -0.5992306895
O   O92       1.0  0.98987  0.98049  0.34806  1.0000 -0.5992306895
O   O93       1.0  0.66462  0.11690  0.23872  1.0000 -0.5701268541
O   O94       1.0  0.61621  0.19283  0.24975  1.0000 -0.5913848506
O   O95       1.0  0.37849  0.90339  0.98818  1.0000 -0.5992306895
O   O96       1.0  0.34806  0.98987  0.98049  1.0000 -0.5992306895
