# DDEC6 charges by PACMAN v1.1 (https://github.com/mtap-research/PACMAN-charge/)
data_2021[MnCu][tfz]3[ION]1
_chemical_formula_sum              "Mn12 Cu4 B4 H296 C328 N48 O48 F16"
_cell_length_a       12.367
_cell_length_b       34.582
_cell_length_c       25.915
_cell_angle_alpha    90
_cell_angle_beta     97.89
_cell_angle_gamma    90

_symmetry_space_group_name_H-M    "P 1"
_symmetry_Int_Tables_number       1

loop_
  _symmetry_equiv_pos_as_xyz
  'x, y, z'

loop_
  _atom_site_type_symbol
  _atom_site_label
  _atom_site_symmetry_multiplicity
  _atom_site_fract_x
  _atom_site_fract_y
  _atom_site_fract_z
  _atom_site_occupancy
  _atom_site_charge
Mn  Mn1       1.0  0.46328  0.50517  0.24824  1.0000 1.0752840701
Mn  Mn2       1.0  0.23837  0.44582  0.19292  1.0000 0.8834875735
Mn  Mn3       1.0  0.67531  0.56818  0.30336  1.0000 0.8834875735
Mn  Mn4       1.0  0.53672  0.00517  0.25176  1.0000 1.0752840701
Mn  Mn5       1.0  0.76163  0.94582  0.30708  1.0000 0.8834875735
Mn  Mn6       1.0  0.32469  0.06818  0.19664  1.0000 0.8834875735
Mn  Mn7       1.0  0.53672  0.49483  0.75176  1.0000 1.0752840701
Mn  Mn8       1.0  0.76163  0.55418  0.80708  1.0000 0.8834875735
Mn  Mn9       1.0  0.32469  0.43182  0.69664  1.0000 0.8834875735
Mn  Mn10      1.0  0.46328  0.99483  0.74824  1.0000 1.0752840701
Mn  Mn11      1.0  0.23837  0.05418  0.69292  1.0000 0.8834875735
Mn  Mn12      1.0  0.67531  0.93182  0.80336  1.0000 0.8834875735
Cu  Cu1       1.0  0.78741  0.76615  0.17123  1.0000 0.1697071168
Cu  Cu2       1.0  0.21259  0.26615  0.32877  1.0000 0.1697071168
Cu  Cu3       1.0  0.21259  0.23385  0.82877  1.0000 0.1781433372
Cu  Cu4       1.0  0.78741  0.73385  0.67123  1.0000 0.1697071168
B   B1        1.0  0.87560  0.76013  0.43275  1.0000 1.0484786692
B   B2        1.0  0.12440  0.26013  0.06725  1.0000 1.0484786692
B   B3        1.0  0.12440  0.23987  0.56725  1.0000 1.0484786692
B   B4        1.0  0.87560  0.73987  0.93275  1.0000 1.0484786692
H   H1        1.0  0.88111  0.64861  0.90746  1.0000 0.1423186241
H   H2        1.0  0.79492  0.63386  0.85975  1.0000 0.151172898
H   H3        1.0  0.29511  0.34712  0.66318  1.0000 0.151172898
H   H4        1.0  0.21235  0.32648  0.61861  1.0000 0.1423186241
H   H5        1.0  0.93429  0.76357  0.04247  1.0000 0.1423186241
H   H6        1.0  0.81902  0.76495  0.06403  1.0000 0.1423186241
H   H7        1.0  0.69901  0.49224  0.90110  1.0000 0.1598729812
H   H8        1.0  0.65607  0.49629  0.95636  1.0000 0.1423186241
H   H9        1.0  0.58911  0.51566  0.90567  1.0000 0.1598729812
H   H10       1.0  0.47414  0.46443  0.56923  1.0000 0.151172898
H   H11       1.0  0.36284  0.48244  0.54029  1.0000 0.1423186241
H   H12       1.0  0.38349  0.48011  0.60254  1.0000 0.1598729812
H   H13       1.0  0.80635  0.65497  0.20004  1.0000 0.1697071168
H   H14       1.0  0.92854  0.65348  0.22979  1.0000 0.151172898
H   H15       1.0  0.85385  0.69061  0.23552  1.0000 0.151172898
H   H16       1.0  0.85331  0.65287  0.99036  1.0000 0.1598729812
H   H17       1.0  0.84466  0.62597  0.03987  1.0000 0.151172898
H   H18       1.0  0.94996  0.62347  0.01036  1.0000 0.151172898
H   H19       1.0  0.14565  0.33455  0.51381  1.0000 0.151172898
H   H20       1.0  0.24739  0.33422  0.48174  1.0000 0.151172898
H   H21       1.0  0.25617  0.31298  0.53702  1.0000 0.1598729812
H   H22       1.0  0.13141  0.72466  0.06645  1.0000 0.151172898
H   H23       1.0  0.11725  0.67896  0.05851  1.0000 0.151172898
H   H24       1.0  0.03468  0.70801  0.02506  1.0000 0.151172898
H   H25       1.0  0.56060  0.55455  0.00971  1.0000 0.1290143497
H   H26       1.0  0.46740  0.43777  0.47738  1.0000 0.1206814093
H   H27       1.0  0.21216  0.66291  0.16652  1.0000 0.1290143497
H   H28       1.0  0.50726  0.54847  0.09251  1.0000 0.1290143497
H   H29       1.0  0.46436  0.45810  0.39199  1.0000 0.1423186241
H   H30       1.0  0.30364  0.60511  0.18819  1.0000 0.1290143497
H   H31       1.0  0.82494  0.54850  0.15619  1.0000 0.1206814093
H   H32       1.0  0.16173  0.41337  0.35475  1.0000 0.1206814093
H   H33       1.0  0.01899  0.54633  0.15678  1.0000 0.1206814093
H   H34       1.0  0.87722  0.55155  0.07330  1.0000 0.1206814093
H   H35       1.0  0.16251  0.39423  0.44083  1.0000 0.1206814093
H   H36       1.0  0.92659  0.60462  0.13824  1.0000 0.1206814093
H   H37       1.0  0.95737  0.54667  0.74129  1.0000 0.1697071168
H   H38       1.0  0.08730  0.55134  0.74822  1.0000 0.151172898
H   H39       1.0  0.03262  0.52005  0.78208  1.0000 0.1598729812
H   H40       1.0  0.04687  0.47236  0.70023  1.0000 0.1598729812
H   H41       1.0  0.99255  0.44877  0.74318  1.0000 0.151172898
H   H42       1.0  0.12219  0.45424  0.74944  1.0000 0.1598729812
H   H43       1.0  0.87082  0.83270  0.23747  1.0000 0.151172898
H   H44       1.0  0.98502  0.85517  0.24572  1.0000 0.151172898
H   H45       1.0  0.87810  0.87613  0.21687  1.0000 0.1598729812
H   H46       1.0  0.07294  0.64228  0.94339  1.0000 0.151172898
H   H47       1.0  0.18127  0.64508  0.91617  1.0000 0.151172898
H   H48       1.0  0.08239  0.67440  0.89978  1.0000 0.1598729812
H   H49       1.0  0.00606  0.30356  0.63235  1.0000 0.1598729812
H   H50       1.0  0.91060  0.33091  0.60501  1.0000 0.1598729812
H   H51       1.0  0.02297  0.32749  0.58121  1.0000 0.151172898
H   H52       1.0  0.02961  0.82289  0.02096  1.0000 0.151172898
H   H53       1.0  0.12396  0.84712  0.05504  1.0000 0.1598729812
H   H54       1.0  0.12578  0.80087  0.05698  1.0000 0.1598729812
H   H55       1.0  0.22640  0.53471  0.83940  1.0000 0.1206814093
H   H56       1.0  0.85580  0.45041  0.65886  1.0000 0.1206814093
H   H57       1.0  0.01466  0.91971  0.09769  1.0000 0.1206814093
H   H58       1.0  0.40952  0.52738  0.83271  1.0000 0.1121359269
H   H59       1.0  0.67503  0.45917  0.67074  1.0000 0.1290143497
H   H60       1.0  0.12631  0.97316  0.11820  1.0000 0.1290143497
H   H61       1.0  0.43922  0.64376  0.81857  1.0000 0.1206814093
H   H62       1.0  0.65192  0.34511  0.70409  1.0000 0.1206814093
H   H63       1.0  0.31783  0.90914  0.22524  1.0000 0.1206814093
H   H64       1.0  0.25590  0.65126  0.82639  1.0000 0.1206814093
H   H65       1.0  0.83469  0.33700  0.69430  1.0000 0.1206814093
H   H66       1.0  0.20186  0.85642  0.20723  1.0000 0.1206814093
H   H67       1.0  0.60081  0.78155  0.14786  1.0000 0.1290143497
H   H68       1.0  0.65136  0.72244  0.18662  1.0000 0.1206814093
H   H69       1.0  0.71822  0.71982  0.27769  1.0000 0.1206814093
H   H70       1.0  0.73217  0.77700  0.32511  1.0000 0.1290143497
H   H71       1.0  0.66398  0.83394  0.28794  1.0000 0.1290143497
H   H72       1.0  0.62365  0.87364  0.21101  1.0000 0.151172898
H   H73       1.0  0.60325  0.85320  0.15512  1.0000 0.1423186241
H   H74       1.0  0.50800  0.85420  0.19113  1.0000 0.1423186241
H   H75       1.0  0.11889  0.14861  0.59254  1.0000 0.1423186241
H   H76       1.0  0.20508  0.13386  0.64025  1.0000 0.151172898
H   H77       1.0  0.70489  0.84712  0.83682  1.0000 0.151172898
H   H78       1.0  0.78765  0.82648  0.88139  1.0000 0.1423186241
H   H79       1.0  0.06571  0.26357  0.45753  1.0000 0.151172898
H   H80       1.0  0.18098  0.26495  0.43597  1.0000 0.1423186241
H   H81       1.0  0.30099  0.99224  0.59890  1.0000 0.1598729812
H   H82       1.0  0.34393  0.99629  0.54364  1.0000 0.1423186241
H   H83       1.0  0.41089  0.01566  0.59433  1.0000 0.1598729812
H   H84       1.0  0.52586  0.96443  0.93077  1.0000 0.151172898
H   H85       1.0  0.63716  0.98244  0.95971  1.0000 0.1423186241
H   H86       1.0  0.61651  0.98011  0.89746  1.0000 0.1598729812
H   H87       1.0  0.19365  0.15497  0.29996  1.0000 0.1697071168
H   H88       1.0  0.07146  0.15348  0.27021  1.0000 0.151172898
H   H89       1.0  0.14615  0.19061  0.26448  1.0000 0.151172898
H   H90       1.0  0.14669  0.15287  0.50964  1.0000 0.1598729812
H   H91       1.0  0.15534  0.12597  0.46013  1.0000 0.151172898
H   H92       1.0  0.05004  0.12347  0.48964  1.0000 0.151172898
H   H93       1.0  0.85435  0.83455  0.98619  1.0000 0.151172898
H   H94       1.0  0.75261  0.83422  0.01826  1.0000 0.151172898
H   H95       1.0  0.74383  0.81298  0.96298  1.0000 0.1598729812
H   H96       1.0  0.86859  0.22466  0.43355  1.0000 0.151172898
H   H97       1.0  0.88275  0.17896  0.44149  1.0000 0.151172898
H   H98       1.0  0.96532  0.20801  0.47494  1.0000 0.151172898
H   H99       1.0  0.43940  0.05455  0.49029  1.0000 0.1290143497
H   H100      1.0  0.53260  0.93777  0.02262  1.0000 0.1206814093
H   H101      1.0  0.78784  0.16291  0.33348  1.0000 0.1206814093
H   H102      1.0  0.49274  0.04847  0.40749  1.0000 0.1290143497
H   H103      1.0  0.53564  0.95810  0.10801  1.0000 0.1423186241
H   H104      1.0  0.69636  0.10511  0.31181  1.0000 0.1290143497
H   H105      1.0  0.17506  0.04850  0.34381  1.0000 0.1206814093
H   H106      1.0  0.83827  0.91337  0.14525  1.0000 0.1206814093
H   H107      1.0  0.98101  0.04633  0.34322  1.0000 0.1206814093
H   H108      1.0  0.12278  0.05155  0.42670  1.0000 0.1206814093
H   H109      1.0  0.83749  0.89423  0.05917  1.0000 0.1206814093
H   H110      1.0  0.07341  0.10462  0.36176  1.0000 0.1206814093
H   H111      1.0  0.04263  0.04667  0.75871  1.0000 0.1697071168
H   H112      1.0  0.91270  0.05134  0.75178  1.0000 0.151172898
H   H113      1.0  0.96738  0.02005  0.71792  1.0000 0.1598729812
H   H114      1.0  0.95313  0.97236  0.79977  1.0000 0.1598729812
H   H115      1.0  0.00745  0.94877  0.75682  1.0000 0.151172898
H   H116      1.0  0.87781  0.95424  0.75056  1.0000 0.1598729812
H   H117      1.0  0.12918  0.33270  0.26253  1.0000 0.151172898
H   H118      1.0  0.01498  0.35517  0.25428  1.0000 0.1598729812
H   H119      1.0  0.12190  0.37613  0.28313  1.0000 0.1598729812
H   H120      1.0  0.92706  0.14228  0.55661  1.0000 0.151172898
H   H121      1.0  0.81873  0.14508  0.58383  1.0000 0.151172898
H   H122      1.0  0.91761  0.17440  0.60022  1.0000 0.1598729812
H   H123      1.0  0.99394  0.80356  0.86765  1.0000 0.1598729812
H   H124      1.0  0.08940  0.83091  0.89499  1.0000 0.1598729812
H   H125      1.0  0.97703  0.82749  0.91879  1.0000 0.151172898
H   H126      1.0  0.97039  0.32289  0.47904  1.0000 0.151172898
H   H127      1.0  0.87604  0.34712  0.44496  1.0000 0.1598729812
H   H128      1.0  0.87422  0.30087  0.44302  1.0000 0.1598729812
H   H129      1.0  0.77360  0.03471  0.66060  1.0000 0.1206814093
H   H130      1.0  0.14420  0.95041  0.84114  1.0000 0.1206814093
H   H131      1.0  0.98534  0.41971  0.40231  1.0000 0.1206814093
H   H132      1.0  0.59048  0.02738  0.66729  1.0000 0.1121359269
H   H133      1.0  0.32497  0.95917  0.82926  1.0000 0.1290143497
H   H134      1.0  0.87369  0.47316  0.38180  1.0000 0.1290143497
H   H135      1.0  0.56078  0.14376  0.68143  1.0000 0.1206814093
H   H136      1.0  0.34808  0.84511  0.79591  1.0000 0.1206814093
H   H137      1.0  0.68217  0.40914  0.27476  1.0000 0.1206814093
H   H138      1.0  0.74410  0.15126  0.67361  1.0000 0.1206814093
H   H139      1.0  0.16531  0.83700  0.80570  1.0000 0.1206814093
H   H140      1.0  0.79814  0.35642  0.29277  1.0000 0.1206814093
H   H141      1.0  0.39919  0.28155  0.35214  1.0000 0.1290143497
H   H142      1.0  0.34864  0.22244  0.31338  1.0000 0.1206814093
H   H143      1.0  0.28178  0.21982  0.22231  1.0000 0.1206814093
H   H144      1.0  0.26783  0.27700  0.17489  1.0000 0.1290143497
H   H145      1.0  0.33602  0.33394  0.21206  1.0000 0.1290143497
H   H146      1.0  0.37635  0.37364  0.28899  1.0000 0.151172898
H   H147      1.0  0.39675  0.35320  0.34488  1.0000 0.1423186241
H   H148      1.0  0.49200  0.35420  0.30887  1.0000 0.1423186241
H   H149      1.0  0.11889  0.35139  0.09254  1.0000 0.1423186241
H   H150      1.0  0.20508  0.36614  0.14025  1.0000 0.151172898
H   H151      1.0  0.70489  0.65288  0.33682  1.0000 0.151172898
H   H152      1.0  0.78765  0.67352  0.38139  1.0000 0.1423186241
H   H153      1.0  0.06571  0.23643  0.95753  1.0000 0.1423186241
H   H154      1.0  0.18098  0.23505  0.93597  1.0000 0.1423186241
H   H155      1.0  0.30099  0.50776  0.09890  1.0000 0.1598729812
H   H156      1.0  0.34393  0.50371  0.04364  1.0000 0.1423186241
H   H157      1.0  0.41089  0.48434  0.09433  1.0000 0.1598729812
H   H158      1.0  0.52586  0.53557  0.43077  1.0000 0.151172898
H   H159      1.0  0.63716  0.51756  0.45971  1.0000 0.1423186241
H   H160      1.0  0.61651  0.51989  0.39746  1.0000 0.1598729812
H   H161      1.0  0.19365  0.34503  0.79996  1.0000 0.1697071168
H   H162      1.0  0.07146  0.34652  0.77021  1.0000 0.151172898
H   H163      1.0  0.14615  0.30939  0.76448  1.0000 0.151172898
H   H164      1.0  0.14669  0.34713  0.00964  1.0000 0.1598729812
H   H165      1.0  0.15534  0.37403  0.96013  1.0000 0.151172898
H   H166      1.0  0.05004  0.37653  0.98964  1.0000 0.151172898
H   H167      1.0  0.85435  0.66545  0.48619  1.0000 0.151172898
H   H168      1.0  0.75261  0.66578  0.51826  1.0000 0.151172898
H   H169      1.0  0.74383  0.68702  0.46298  1.0000 0.1598729812
H   H170      1.0  0.86859  0.27534  0.93355  1.0000 0.151172898
H   H171      1.0  0.88275  0.32104  0.94149  1.0000 0.151172898
H   H172      1.0  0.96532  0.29199  0.97494  1.0000 0.151172898
H   H173      1.0  0.43940  0.44545  0.99029  1.0000 0.1290143497
H   H174      1.0  0.53260  0.56223  0.52262  1.0000 0.1206814093
H   H175      1.0  0.78784  0.33709  0.83348  1.0000 0.1206814093
H   H176      1.0  0.49274  0.45153  0.90749  1.0000 0.1290143497
H   H177      1.0  0.53564  0.54190  0.60801  1.0000 0.1423186241
H   H178      1.0  0.69636  0.39489  0.81181  1.0000 0.1290143497
H   H179      1.0  0.17506  0.45150  0.84381  1.0000 0.1206814093
H   H180      1.0  0.83827  0.58663  0.64525  1.0000 0.1206814093
H   H181      1.0  0.98101  0.45367  0.84322  1.0000 0.1206814093
H   H182      1.0  0.12278  0.44845  0.92670  1.0000 0.1206814093
H   H183      1.0  0.83749  0.60577  0.55917  1.0000 0.1206814093
H   H184      1.0  0.07341  0.39538  0.86176  1.0000 0.1206814093
H   H185      1.0  0.04263  0.45333  0.25871  1.0000 0.1697071168
H   H186      1.0  0.91270  0.44866  0.25178  1.0000 0.151172898
H   H187      1.0  0.96738  0.47995  0.21792  1.0000 0.1598729812
H   H188      1.0  0.95313  0.52764  0.29977  1.0000 0.1598729812
H   H189      1.0  0.00745  0.55123  0.25682  1.0000 0.151172898
H   H190      1.0  0.87781  0.54576  0.25056  1.0000 0.1598729812
H   H191      1.0  0.12918  0.16730  0.76253  1.0000 0.151172898
H   H192      1.0  0.01498  0.14483  0.75428  1.0000 0.1598729812
H   H193      1.0  0.12190  0.12387  0.78313  1.0000 0.1598729812
H   H194      1.0  0.92706  0.35772  0.05661  1.0000 0.151172898
H   H195      1.0  0.81873  0.35492  0.08383  1.0000 0.151172898
H   H196      1.0  0.91761  0.32560  0.10022  1.0000 0.1598729812
H   H197      1.0  0.99394  0.69644  0.36765  1.0000 0.1598729812
H   H198      1.0  0.08940  0.66909  0.39499  1.0000 0.1598729812
H   H199      1.0  0.97703  0.67251  0.41879  1.0000 0.151172898
H   H200      1.0  0.97039  0.17711  0.97904  1.0000 0.151172898
H   H201      1.0  0.87604  0.15288  0.94496  1.0000 0.1598729812
H   H202      1.0  0.87422  0.19913  0.94302  1.0000 0.1598729812
H   H203      1.0  0.77360  0.46529  0.16060  1.0000 0.1206814093
H   H204      1.0  0.14420  0.54959  0.34114  1.0000 0.1206814093
H   H205      1.0  0.98534  0.08029  0.90231  1.0000 0.1206814093
H   H206      1.0  0.59048  0.47262  0.16729  1.0000 0.1121359269
H   H207      1.0  0.32497  0.54083  0.32926  1.0000 0.1290143497
H   H208      1.0  0.87369  0.02684  0.88180  1.0000 0.1290143497
H   H209      1.0  0.56078  0.35624  0.18143  1.0000 0.1206814093
H   H210      1.0  0.34808  0.65489  0.29591  1.0000 0.1206814093
H   H211      1.0  0.68217  0.09086  0.77476  1.0000 0.1206814093
H   H212      1.0  0.74410  0.34874  0.17361  1.0000 0.1206814093
H   H213      1.0  0.16531  0.66300  0.30570  1.0000 0.1206814093
H   H214      1.0  0.79814  0.14358  0.79277  1.0000 0.1206814093
H   H215      1.0  0.39919  0.21845  0.85214  1.0000 0.1290143497
H   H216      1.0  0.34864  0.27756  0.81338  1.0000 0.1206814093
H   H217      1.0  0.28178  0.28018  0.72231  1.0000 0.1206814093
H   H218      1.0  0.26783  0.22300  0.67489  1.0000 0.1290143497
H   H219      1.0  0.33602  0.16606  0.71206  1.0000 0.1290143497
H   H220      1.0  0.37635  0.12636  0.78899  1.0000 0.151172898
H   H221      1.0  0.39675  0.14680  0.84488  1.0000 0.1423186241
H   H222      1.0  0.49200  0.14580  0.80887  1.0000 0.1423186241
H   H223      1.0  0.88111  0.85139  0.40746  1.0000 0.1423186241
H   H224      1.0  0.79492  0.86614  0.35975  1.0000 0.151172898
H   H225      1.0  0.29511  0.15288  0.16318  1.0000 0.151172898
H   H226      1.0  0.21235  0.17352  0.11861  1.0000 0.1423186241
H   H227      1.0  0.93429  0.73643  0.54247  1.0000 0.1423186241
H   H228      1.0  0.81902  0.73505  0.56403  1.0000 0.1423186241
H   H229      1.0  0.69901  0.00776  0.40110  1.0000 0.1598729812
H   H230      1.0  0.65607  0.00371  0.45636  1.0000 0.1423186241
H   H231      1.0  0.58911  0.98434  0.40567  1.0000 0.1598729812
H   H232      1.0  0.47414  0.03557  0.06923  1.0000 0.151172898
H   H233      1.0  0.36284  0.01756  0.04029  1.0000 0.1423186241
H   H234      1.0  0.38349  0.01989  0.10254  1.0000 0.1598729812
H   H235      1.0  0.80635  0.84503  0.70004  1.0000 0.1697071168
H   H236      1.0  0.92854  0.84652  0.72979  1.0000 0.151172898
H   H237      1.0  0.85385  0.80939  0.73552  1.0000 0.151172898
H   H238      1.0  0.85331  0.84713  0.49036  1.0000 0.1598729812
H   H239      1.0  0.84466  0.87403  0.53987  1.0000 0.151172898
H   H240      1.0  0.94996  0.87653  0.51036  1.0000 0.151172898
H   H241      1.0  0.14565  0.16545  0.01381  1.0000 0.151172898
H   H242      1.0  0.24739  0.16578  0.98174  1.0000 0.151172898
H   H243      1.0  0.25617  0.18702  0.03702  1.0000 0.1598729812
H   H244      1.0  0.13141  0.77534  0.56645  1.0000 0.151172898
H   H245      1.0  0.11725  0.82104  0.55851  1.0000 0.151172898
H   H246      1.0  0.03468  0.79199  0.52506  1.0000 0.151172898
H   H247      1.0  0.56060  0.94545  0.50971  1.0000 0.1290143497
H   H248      1.0  0.46740  0.06223  0.97738  1.0000 0.1206814093
H   H249      1.0  0.21216  0.83709  0.66652  1.0000 0.1206814093
H   H250      1.0  0.50726  0.95153  0.59251  1.0000 0.1290143497
H   H251      1.0  0.46436  0.04190  0.89199  1.0000 0.1423186241
H   H252      1.0  0.30364  0.89489  0.68819  1.0000 0.1290143497
H   H253      1.0  0.82494  0.95150  0.65619  1.0000 0.1206814093
H   H254      1.0  0.16173  0.08663  0.85475  1.0000 0.1206814093
H   H255      1.0  0.01899  0.95367  0.65678  1.0000 0.1206814093
H   H256      1.0  0.87722  0.94845  0.57330  1.0000 0.1206814093
H   H257      1.0  0.16251  0.10577  0.94083  1.0000 0.1206814093
H   H258      1.0  0.92659  0.89538  0.63824  1.0000 0.1206814093
H   H259      1.0  0.95737  0.95333  0.24129  1.0000 0.1697071168
H   H260      1.0  0.08730  0.94866  0.24822  1.0000 0.151172898
H   H261      1.0  0.03262  0.97995  0.28208  1.0000 0.1598729812
H   H262      1.0  0.04687  0.02764  0.20023  1.0000 0.1598729812
H   H263      1.0  0.99255  0.05123  0.24318  1.0000 0.151172898
H   H264      1.0  0.12219  0.04576  0.24944  1.0000 0.1598729812
H   H265      1.0  0.87082  0.66730  0.73747  1.0000 0.151172898
H   H266      1.0  0.98502  0.64483  0.74572  1.0000 0.151172898
H   H267      1.0  0.87810  0.62387  0.71687  1.0000 0.1598729812
H   H268      1.0  0.07294  0.85772  0.44339  1.0000 0.151172898
H   H269      1.0  0.18127  0.85492  0.41617  1.0000 0.151172898
H   H270      1.0  0.08239  0.82560  0.39978  1.0000 0.1598729812
H   H271      1.0  0.00606  0.19644  0.13235  1.0000 0.1598729812
H   H272      1.0  0.91060  0.16909  0.10501  1.0000 0.1598729812
H   H273      1.0  0.02297  0.17251  0.08121  1.0000 0.151172898
H   H274      1.0  0.02961  0.67711  0.52096  1.0000 0.151172898
H   H275      1.0  0.12396  0.65288  0.55504  1.0000 0.151172898
H   H276      1.0  0.12578  0.69913  0.55698  1.0000 0.1598729812
H   H277      1.0  0.22640  0.96529  0.33940  1.0000 0.1206814093
H   H278      1.0  0.85580  0.04959  0.15886  1.0000 0.1206814093
H   H279      1.0  0.01466  0.58029  0.59769  1.0000 0.1206814093
H   H280      1.0  0.40952  0.97262  0.33271  1.0000 0.1121359269
H   H281      1.0  0.67503  0.04083  0.17074  1.0000 0.1290143497
H   H282      1.0  0.12631  0.52684  0.61820  1.0000 0.1290143497
H   H283      1.0  0.43922  0.85624  0.31857  1.0000 0.1206814093
H   H284      1.0  0.65192  0.15489  0.20409  1.0000 0.1206814093
H   H285      1.0  0.31783  0.59086  0.72524  1.0000 0.1206814093
H   H286      1.0  0.25590  0.84874  0.32639  1.0000 0.1206814093
H   H287      1.0  0.83469  0.16300  0.19430  1.0000 0.1206814093
H   H288      1.0  0.20186  0.64358  0.70723  1.0000 0.1206814093
H   H289      1.0  0.60081  0.71845  0.64786  1.0000 0.1290143497
H   H290      1.0  0.65136  0.77756  0.68662  1.0000 0.1206814093
H   H291      1.0  0.71822  0.78018  0.77769  1.0000 0.1206814093
H   H292      1.0  0.73217  0.72300  0.82511  1.0000 0.1290143497
H   H293      1.0  0.66398  0.66606  0.78794  1.0000 0.1290143497
H   H294      1.0  0.62365  0.62636  0.71101  1.0000 0.151172898
H   H295      1.0  0.60325  0.64680  0.65512  1.0000 0.1423186241
H   H296      1.0  0.50800  0.64580  0.69113  1.0000 0.1423186241
C   C1        1.0  0.85680  0.62579  0.88587  1.0000 -0.0703016848
C   C2        1.0  0.23490  0.35176  0.63449  1.0000 -0.0799247169
C   C3        1.0  0.89900  0.76418  0.07452  1.0000 -0.0799247169
C   C4        1.0  0.72670  0.54561  0.93370  1.0000 0.2410800693
C   C5        1.0  0.34420  0.42813  0.56809  1.0000 0.2477367061
C   C6        1.0  0.91250  0.68844  0.16545  1.0000 0.2229634585
C   C7        1.0  0.75630  0.56485  0.98197  1.0000 -0.1692047206
C   C8        1.0  0.31100  0.40448  0.52391  1.0000 -0.1792562467
C   C9        1.0  0.99720  0.67556  0.13886  1.0000 -0.1792562467
C   C10       1.0  0.81620  0.59666  0.97081  1.0000 0.1781433372
C   C11       1.0  0.26700  0.37182  0.54318  1.0000 0.1781433372
C   C12       1.0  0.00540  0.70251  0.10022  1.0000 0.1781433372
C   C13       1.0  0.66220  0.50934  0.92332  1.0000 -0.4806995495
C   C14       1.0  0.39560  0.46710  0.57022  1.0000 -0.4806995495
C   C15       1.0  0.87180  0.67030  0.21171  1.0000 -0.4906159388
C   C16       1.0  0.87070  0.62740  0.00588  1.0000 -0.4999077966
C   C17       1.0  0.22550  0.33523  0.51665  1.0000 -0.5101553735
C   C18       1.0  0.07840  0.70363  0.05903  1.0000 -0.4906159388
C   C19       1.0  0.72300  0.55581  0.03335  1.0000 0.1121359269
C   C20       1.0  0.31500  0.41443  0.46884  1.0000 0.1121359269
C   C21       1.0  0.06000  0.63961  0.15029  1.0000 0.1121359269
C   C22       1.0  0.61460  0.55373  0.03954  1.0000 -0.1490067718
C   C23       1.0  0.40430  0.43311  0.45283  1.0000 -0.1490067718
C   C24       1.0  0.17250  0.63933  0.16512  1.0000 -0.1490067718
C   C25       1.0  0.58250  0.55042  0.08885  1.0000 -0.1104492422
C   C26       1.0  0.40290  0.44498  0.40189  1.0000 -0.1104492422
C   C27       1.0  0.22690  0.60493  0.17787  1.0000 -0.0911377159
C   C28       1.0  0.66190  0.55000  0.13299  1.0000 -0.0232495594
C   C29       1.0  0.31230  0.43794  0.36483  1.0000 -0.0301994557
C   C30       1.0  0.17010  0.57000  0.17567  1.0000 -0.0301994557
C   C31       1.0  0.77070  0.55005  0.12651  1.0000 -0.1104492422
C   C32       1.0  0.22350  0.41872  0.37977  1.0000 -0.1010359209
C   C33       1.0  0.05820  0.57003  0.15970  1.0000 -0.1010359209
C   C34       1.0  0.80200  0.55234  0.07727  1.0000 -0.1430614951
C   C35       1.0  0.22430  0.40721  0.43104  1.0000 -0.1490067718
C   C36       1.0  0.00350  0.60473  0.14796  1.0000 -0.1490067718
C   C37       1.0  0.62630  0.54929  0.18638  1.0000 0.5785115386
C   C38       1.0  0.31260  0.45176  0.30981  1.0000 0.5785115386
C   C39       1.0  0.22830  0.53296  0.19152  1.0000 0.5785115386
C   C40       1.0  0.01820  0.57532  0.80776  1.0000 0.2410800693
C   C41       1.0  0.06590  0.41411  0.69483  1.0000 0.2410800693
C   C42       1.0  0.94180  0.83648  0.17096  1.0000 0.2229634585
C   C43       1.0  0.10370  0.59686  0.83647  1.0000 -0.1792562467
C   C44       1.0  0.98250  0.38902  0.67227  1.0000 -0.1792562467
C   C45       1.0  0.01930  0.84944  0.14031  1.0000 -0.1873290178
C   C46       1.0  0.05330  0.62019  0.86949  1.0000 0.1781433372
C   C47       1.0  0.03520  0.36081  0.64659  1.0000 0.1781433372
C   C48       1.0  0.01340  0.82453  0.09795  1.0000 0.1697071168
C   C49       1.0  0.02440  0.54581  0.76628  1.0000 -0.4906159388
C   C50       1.0  0.05600  0.45047  0.72444  1.0000 -0.4999077966
C   C51       1.0  0.91680  0.85141  0.22216  1.0000 -0.4906159388
C   C52       1.0  0.10170  0.64788  0.91077  1.0000 -0.4806995495
C   C53       1.0  0.98980  0.32788  0.61346  1.0000 -0.5101553735
C   C54       1.0  0.07870  0.82379  0.05400  1.0000 -0.4906159388
C   C55       1.0  0.22090  0.59389  0.83307  1.0000 0.1206814093
C   C56       1.0  0.86530  0.39273  0.67604  1.0000 0.1121359269
C   C57       1.0  0.09440  0.88290  0.15094  1.0000 0.1206814093
C   C58       1.0  0.26950  0.55689  0.83500  1.0000 -0.1430614951
C   C59       1.0  0.81500  0.42903  0.66876  1.0000 -0.1490067718
C   C60       1.0  0.07510  0.91769  0.12443  1.0000 -0.1607889446
C   C61       1.0  0.37800  0.55249  0.83061  1.0000 -0.0911377159
C   C62       1.0  0.70730  0.43428  0.67570  1.0000 -0.0911377159
C   C63       1.0  0.14210  0.94944  0.13615  1.0000 -0.1010359209
C   C64       1.0  0.44340  0.58482  0.82303  1.0000 -0.0416695916
C   C65       1.0  0.64540  0.40323  0.68998  1.0000 -0.0232495594
C   C66       1.0  0.23320  0.94656  0.17449  1.0000 -0.0301994557
C   C67       1.0  0.39580  0.62156  0.82237  1.0000 -0.1010359209
C   C68       1.0  0.69370  0.36673  0.69577  1.0000 -0.1010359209
C   C69       1.0  0.25500  0.91155  0.19991  1.0000 -0.1010359209
C   C70       1.0  0.28660  0.62605  0.82714  1.0000 -0.1607889446
C   C71       1.0  0.80240  0.36190  0.68941  1.0000 -0.1490067718
C   C72       1.0  0.18650  0.88003  0.18895  1.0000 -0.1430614951
C   C73       1.0  0.55740  0.57861  0.81334  1.0000 0.5659777957
C   C74       1.0  0.53030  0.40999  0.69891  1.0000 0.5659777957
C   C75       1.0  0.30270  0.98149  0.18983  1.0000 0.5785115386
C   C76       1.0  0.62670  0.81489  0.21521  1.0000 0.1991704206
C   C77       1.0  0.62440  0.78029  0.18429  1.0000 -0.1968685512
C   C78       1.0  0.65610  0.74535  0.20702  1.0000 -0.1245193468
C   C79       1.0  0.69610  0.74369  0.26141  1.0000 -0.1104492422
C   C80       1.0  0.70170  0.77730  0.28941  1.0000 -0.0799247169
C   C81       1.0  0.66390  0.81160  0.26661  1.0000 -0.1607889446
C   C82       1.0  0.58700  0.85216  0.19106  1.0000 -0.4596308259
C   C83       1.0  0.14320  0.12579  0.61413  1.0000 -0.0703016848
C   C84       1.0  0.76510  0.85176  0.86551  1.0000 -0.0799247169
C   C85       1.0  0.10100  0.26418  0.42548  1.0000 -0.0799247169
C   C86       1.0  0.27330  0.04561  0.56630  1.0000 0.2410800693
C   C87       1.0  0.65580  0.92813  0.93191  1.0000 0.2477367061
C   C88       1.0  0.08750  0.18844  0.33455  1.0000 0.2229634585
C   C89       1.0  0.24370  0.06485  0.51803  1.0000 -0.1692047206
C   C90       1.0  0.68900  0.90448  0.97609  1.0000 -0.1792562467
C   C91       1.0  0.00280  0.17556  0.36114  1.0000 -0.1792562467
C   C92       1.0  0.18380  0.09666  0.52919  1.0000 0.1781433372
C   C93       1.0  0.73300  0.87182  0.95682  1.0000 0.1781433372
C   C94       1.0  0.99460  0.20251  0.39978  1.0000 0.1781433372
C   C95       1.0  0.33780  0.00934  0.57668  1.0000 -0.4806995495
C   C96       1.0  0.60440  0.96710  0.92978  1.0000 -0.4806995495
C   C97       1.0  0.12820  0.17030  0.28829  1.0000 -0.4906159388
C   C98       1.0  0.12930  0.12740  0.49412  1.0000 -0.4999077966
C   C99       1.0  0.77450  0.83523  0.98335  1.0000 -0.5101553735
C   C100      1.0  0.92160  0.20363  0.44097  1.0000 -0.4906159388
C   C101      1.0  0.27700  0.05581  0.46665  1.0000 0.1121359269
C   C102      1.0  0.68500  0.91443  0.03116  1.0000 0.1121359269
C   C103      1.0  0.94000  0.13961  0.34971  1.0000 0.1121359269
C   C104      1.0  0.38540  0.05373  0.46046  1.0000 -0.1490067718
C   C105      1.0  0.59570  0.93311  0.04717  1.0000 -0.1490067718
C   C106      1.0  0.82750  0.13933  0.33488  1.0000 -0.1490067718
C   C107      1.0  0.41750  0.05042  0.41115  1.0000 -0.1104492422
C   C108      1.0  0.59710  0.94498  0.09811  1.0000 -0.1104492422
C   C109      1.0  0.77310  0.10493  0.32213  1.0000 -0.0911377159
C   C110      1.0  0.33810  0.05000  0.36701  1.0000 -0.0232495594
C   C111      1.0  0.68770  0.93794  0.13517  1.0000 -0.0301994557
C   C112      1.0  0.82990  0.07000  0.32433  1.0000 -0.0301994557
C   C113      1.0  0.22930  0.05005  0.37349  1.0000 -0.1104492422
C   C114      1.0  0.77650  0.91872  0.12023  1.0000 -0.1010359209
C   C115      1.0  0.94180  0.07003  0.34030  1.0000 -0.1010359209
C   C116      1.0  0.19800  0.05234  0.42273  1.0000 -0.1430614951
C   C117      1.0  0.77570  0.90721  0.06896  1.0000 -0.1490067718
C   C118      1.0  0.99650  0.10473  0.35204  1.0000 -0.1490067718
C   C119      1.0  0.37370  0.04929  0.31362  1.0000 0.5785115386
C   C120      1.0  0.68740  0.95176  0.19019  1.0000 0.5785115386
C   C121      1.0  0.77170  0.03296  0.30848  1.0000 0.5785115386
C   C122      1.0  0.98180  0.07532  0.69224  1.0000 0.2410800693
C   C123      1.0  0.93410  0.91411  0.80517  1.0000 0.2410800693
C   C124      1.0  0.05820  0.33648  0.32904  1.0000 0.2229634585
C   C125      1.0  0.89630  0.09686  0.66353  1.0000 -0.1792562467
C   C126      1.0  0.01750  0.88902  0.82773  1.0000 -0.1792562467
C   C127      1.0  0.98070  0.34944  0.35969  1.0000 -0.1873290178
C   C128      1.0  0.94670  0.12019  0.63051  1.0000 0.1781433372
C   C129      1.0  0.96480  0.86081  0.85341  1.0000 0.1781433372
C   C130      1.0  0.98660  0.32453  0.40205  1.0000 0.1697071168
C   C131      1.0  0.97560  0.04581  0.73372  1.0000 -0.4906159388
C   C132      1.0  0.94400  0.95047  0.77556  1.0000 -0.4999077966
C   C133      1.0  0.08320  0.35141  0.27784  1.0000 -0.4906159388
C   C134      1.0  0.89830  0.14788  0.58923  1.0000 -0.4806995495
C   C135      1.0  0.01020  0.82788  0.88654  1.0000 -0.5101553735
C   C136      1.0  0.92130  0.32379  0.44600  1.0000 -0.4906159388
C   C137      1.0  0.77910  0.09389  0.66693  1.0000 0.1206814093
C   C138      1.0  0.13470  0.89273  0.82396  1.0000 0.1121359269
C   C139      1.0  0.90560  0.38290  0.34906  1.0000 0.1206814093
C   C140      1.0  0.73050  0.05689  0.66500  1.0000 -0.1430614951
C   C141      1.0  0.18500  0.92903  0.83124  1.0000 -0.1490067718
C   C142      1.0  0.92490  0.41769  0.37557  1.0000 -0.1607889446
C   C143      1.0  0.62200  0.05249  0.66939  1.0000 -0.0911377159
C   C144      1.0  0.29270  0.93428  0.82430  1.0000 -0.0911377159
C   C145      1.0  0.85790  0.44944  0.36385  1.0000 -0.1010359209
C   C146      1.0  0.55660  0.08482  0.67697  1.0000 -0.0416695916
C   C147      1.0  0.35460  0.90323  0.81002  1.0000 -0.0232495594
C   C148      1.0  0.76680  0.44656  0.32551  1.0000 -0.0301994557
C   C149      1.0  0.60420  0.12156  0.67763  1.0000 -0.1010359209
C   C150      1.0  0.30630  0.86673  0.80423  1.0000 -0.1010359209
C   C151      1.0  0.74500  0.41155  0.30009  1.0000 -0.1010359209
C   C152      1.0  0.71340  0.12605  0.67286  1.0000 -0.1607889446
C   C153      1.0  0.19760  0.86190  0.81059  1.0000 -0.1490067718
C   C154      1.0  0.81350  0.38003  0.31105  1.0000 -0.1430614951
C   C155      1.0  0.44260  0.07861  0.68666  1.0000 0.5659777957
C   C156      1.0  0.46970  0.90999  0.80109  1.0000 0.5659777957
C   C157      1.0  0.69730  0.48149  0.31017  1.0000 0.5785115386
C   C158      1.0  0.37330  0.31489  0.28479  1.0000 0.1991704206
C   C159      1.0  0.37560  0.28029  0.31571  1.0000 -0.1968685512
C   C160      1.0  0.34390  0.24535  0.29298  1.0000 -0.1245193468
C   C161      1.0  0.30390  0.24369  0.23859  1.0000 -0.1104492422
C   C162      1.0  0.29830  0.27730  0.21059  1.0000 -0.0799247169
C   C163      1.0  0.33610  0.31160  0.23339  1.0000 -0.1607889446
C   C164      1.0  0.41300  0.35216  0.30894  1.0000 -0.4596308259
C   C165      1.0  0.14320  0.37421  0.11413  1.0000 -0.0703016848
C   C166      1.0  0.76510  0.64824  0.36551  1.0000 -0.0799247169
C   C167      1.0  0.10100  0.23582  0.92548  1.0000 -0.0799247169
C   C168      1.0  0.27330  0.45439  0.06630  1.0000 0.2410800693
C   C169      1.0  0.65580  0.57187  0.43191  1.0000 0.2477367061
C   C170      1.0  0.08750  0.31156  0.83455  1.0000 0.2229634585
C   C171      1.0  0.24370  0.43515  0.01803  1.0000 -0.1692047206
C   C172      1.0  0.68900  0.59552  0.47609  1.0000 -0.1792562467
C   C173      1.0  0.00280  0.32444  0.86114  1.0000 -0.1792562467
C   C174      1.0  0.18380  0.40334  0.02919  1.0000 0.1781433372
C   C175      1.0  0.73300  0.62818  0.45682  1.0000 0.1781433372
C   C176      1.0  0.99460  0.29749  0.89978  1.0000 0.1781433372
C   C177      1.0  0.33780  0.49066  0.07668  1.0000 -0.4806995495
C   C178      1.0  0.60440  0.53290  0.42978  1.0000 -0.4806995495
C   C179      1.0  0.12820  0.32970  0.78829  1.0000 -0.4906159388
C   C180      1.0  0.12930  0.37260  0.99412  1.0000 -0.4999077966
C   C181      1.0  0.77450  0.66477  0.48335  1.0000 -0.5101553735
C   C182      1.0  0.92160  0.29637  0.94097  1.0000 -0.4906159388
C   C183      1.0  0.27700  0.44419  0.96665  1.0000 0.1121359269
C   C184      1.0  0.68500  0.58557  0.53116  1.0000 0.1121359269
C   C185      1.0  0.94000  0.36039  0.84971  1.0000 0.1121359269
C   C186      1.0  0.38540  0.44627  0.96046  1.0000 -0.1490067718
C   C187      1.0  0.59570  0.56689  0.54717  1.0000 -0.1490067718
C   C188      1.0  0.82750  0.36067  0.83488  1.0000 -0.1490067718
C   C189      1.0  0.41750  0.44958  0.91115  1.0000 -0.1104492422
C   C190      1.0  0.59710  0.55502  0.59811  1.0000 -0.1104492422
C   C191      1.0  0.77310  0.39507  0.82213  1.0000 -0.0911377159
C   C192      1.0  0.33810  0.45000  0.86701  1.0000 -0.0232495594
C   C193      1.0  0.68770  0.56206  0.63517  1.0000 -0.0301994557
C   C194      1.0  0.82990  0.43000  0.82433  1.0000 -0.0301994557
C   C195      1.0  0.22930  0.44995  0.87349  1.0000 -0.1104492422
C   C196      1.0  0.77650  0.58128  0.62023  1.0000 -0.1010359209
C   C197      1.0  0.94180  0.42997  0.84030  1.0000 -0.1010359209
C   C198      1.0  0.19800  0.44766  0.92273  1.0000 -0.1430614951
C   C199      1.0  0.77570  0.59279  0.56896  1.0000 -0.1490067718
C   C200      1.0  0.99650  0.39527  0.85204  1.0000 -0.1490067718
C   C201      1.0  0.37370  0.45071  0.81362  1.0000 0.5785115386
C   C202      1.0  0.68740  0.54824  0.69019  1.0000 0.5785115386
C   C203      1.0  0.77170  0.46704  0.80848  1.0000 0.5785115386
C   C204      1.0  0.98180  0.42468  0.19224  1.0000 0.2410800693
C   C205      1.0  0.93410  0.58589  0.30517  1.0000 0.2410800693
C   C206      1.0  0.05820  0.16352  0.82904  1.0000 0.2229634585
C   C207      1.0  0.89630  0.40314  0.16353  1.0000 -0.1792562467
C   C208      1.0  0.01750  0.61098  0.32773  1.0000 -0.1792562467
C   C209      1.0  0.98070  0.15056  0.85969  1.0000 -0.1873290178
C   C210      1.0  0.94670  0.37981  0.13051  1.0000 0.1781433372
C   C211      1.0  0.96480  0.63919  0.35341  1.0000 0.1781433372
C   C212      1.0  0.98660  0.17547  0.90205  1.0000 0.1697071168
C   C213      1.0  0.97560  0.45419  0.23372  1.0000 -0.4906159388
C   C214      1.0  0.94400  0.54953  0.27556  1.0000 -0.4999077966
C   C215      1.0  0.08320  0.14859  0.77784  1.0000 -0.4906159388
C   C216      1.0  0.89830  0.35212  0.08923  1.0000 -0.4806995495
C   C217      1.0  0.01020  0.67212  0.38654  1.0000 -0.5101553735
C   C218      1.0  0.92130  0.17621  0.94600  1.0000 -0.4906159388
C   C219      1.0  0.77910  0.40611  0.16693  1.0000 0.1206814093
C   C220      1.0  0.13470  0.60727  0.32396  1.0000 0.1121359269
C   C221      1.0  0.90560  0.11710  0.84906  1.0000 0.1206814093
C   C222      1.0  0.73050  0.44311  0.16500  1.0000 -0.1430614951
C   C223      1.0  0.18500  0.57097  0.33124  1.0000 -0.1490067718
C   C224      1.0  0.92490  0.08231  0.87557  1.0000 -0.1607889446
C   C225      1.0  0.62200  0.44751  0.16939  1.0000 -0.0911377159
C   C226      1.0  0.29270  0.56572  0.32430  1.0000 -0.0911377159
C   C227      1.0  0.85790  0.05056  0.86385  1.0000 -0.1010359209
C   C228      1.0  0.55660  0.41518  0.17697  1.0000 -0.0416695916
C   C229      1.0  0.35460  0.59677  0.31002  1.0000 -0.0232495594
C   C230      1.0  0.76680  0.05344  0.82551  1.0000 -0.0301994557
C   C231      1.0  0.60420  0.37844  0.17763  1.0000 -0.1010359209
C   C232      1.0  0.30630  0.63327  0.30423  1.0000 -0.1010359209
C   C233      1.0  0.74500  0.08845  0.80009  1.0000 -0.1010359209
C   C234      1.0  0.71340  0.37395  0.17286  1.0000 -0.1607889446
C   C235      1.0  0.19760  0.63810  0.31059  1.0000 -0.1490067718
C   C236      1.0  0.81350  0.11997  0.81105  1.0000 -0.1430614951
C   C237      1.0  0.44260  0.42139  0.18666  1.0000 0.5659777957
C   C238      1.0  0.46970  0.59001  0.30109  1.0000 0.5659777957
C   C239      1.0  0.69730  0.01851  0.81017  1.0000 0.5785115386
C   C240      1.0  0.37330  0.18511  0.78479  1.0000 0.1991704206
C   C241      1.0  0.37560  0.21971  0.81571  1.0000 -0.1968685512
C   C242      1.0  0.34390  0.25465  0.79298  1.0000 -0.1257981447
C   C243      1.0  0.30390  0.25631  0.73859  1.0000 -0.1104492422
C   C244      1.0  0.29830  0.22270  0.71059  1.0000 -0.0799247169
C   C245      1.0  0.33610  0.18840  0.73339  1.0000 -0.1607889446
C   C246      1.0  0.41300  0.14784  0.80894  1.0000 -0.4596308259
C   C247      1.0  0.85680  0.87421  0.38587  1.0000 -0.0703016848
C   C248      1.0  0.23490  0.14824  0.13449  1.0000 -0.0799247169
C   C249      1.0  0.89900  0.73582  0.57452  1.0000 -0.0799247169
C   C250      1.0  0.72670  0.95439  0.43370  1.0000 0.2410800693
C   C251      1.0  0.34420  0.07187  0.06809  1.0000 0.2477367061
C   C252      1.0  0.91250  0.81156  0.66545  1.0000 0.2229634585
C   C253      1.0  0.75630  0.93515  0.48197  1.0000 -0.1692047206
C   C254      1.0  0.31100  0.09552  0.02391  1.0000 -0.1792562467
C   C255      1.0  0.99720  0.82444  0.63886  1.0000 -0.1792562467
C   C256      1.0  0.81620  0.90334  0.47081  1.0000 0.1781433372
C   C257      1.0  0.26700  0.12818  0.04318  1.0000 0.1781433372
C   C258      1.0  0.00540  0.79749  0.60022  1.0000 0.1781433372
C   C259      1.0  0.66220  0.99066  0.42332  1.0000 -0.4806995495
C   C260      1.0  0.39560  0.03290  0.07022  1.0000 -0.4806995495
C   C261      1.0  0.87180  0.82970  0.71171  1.0000 -0.4906159388
C   C262      1.0  0.87070  0.87260  0.50588  1.0000 -0.4999077966
C   C263      1.0  0.22550  0.16477  0.01665  1.0000 -0.5101553735
C   C264      1.0  0.07840  0.79637  0.55903  1.0000 -0.4906159388
C   C265      1.0  0.72300  0.94419  0.53335  1.0000 0.1121359269
C   C266      1.0  0.31500  0.08557  0.96884  1.0000 0.1121359269
C   C267      1.0  0.06000  0.86039  0.65029  1.0000 0.1121359269
C   C268      1.0  0.61460  0.94627  0.53954  1.0000 -0.1490067718
C   C269      1.0  0.40430  0.06689  0.95283  1.0000 -0.1490067718
C   C270      1.0  0.17250  0.86067  0.66512  1.0000 -0.1490067718
C   C271      1.0  0.58250  0.94958  0.58885  1.0000 -0.1104492422
C   C272      1.0  0.40290  0.05502  0.90189  1.0000 -0.1104492422
C   C273      1.0  0.22690  0.89507  0.67787  1.0000 -0.0911377159
C   C274      1.0  0.66190  0.95000  0.63299  1.0000 -0.0232495594
C   C275      1.0  0.31230  0.06206  0.86483  1.0000 -0.0301994557
C   C276      1.0  0.17010  0.93000  0.67567  1.0000 -0.0301994557
C   C277      1.0  0.77070  0.94995  0.62651  1.0000 -0.1104492422
C   C278      1.0  0.22350  0.08128  0.87977  1.0000 -0.1010359209
C   C279      1.0  0.05820  0.92997  0.65970  1.0000 -0.1010359209
C   C280      1.0  0.80200  0.94766  0.57727  1.0000 -0.1430614951
C   C281      1.0  0.22430  0.09279  0.93104  1.0000 -0.1490067718
C   C282      1.0  0.00350  0.89527  0.64796  1.0000 -0.1490067718
C   C283      1.0  0.62630  0.95071  0.68638  1.0000 0.5785115386
C   C284      1.0  0.31260  0.04824  0.80981  1.0000 0.5785115386
C   C285      1.0  0.22830  0.96704  0.69152  1.0000 0.5785115386
C   C286      1.0  0.01820  0.92468  0.30776  1.0000 0.2410800693
C   C287      1.0  0.06590  0.08589  0.19483  1.0000 0.2410800693
C   C288      1.0  0.94180  0.66352  0.67096  1.0000 0.2229634585
C   C289      1.0  0.10370  0.90314  0.33647  1.0000 -0.1792562467
C   C290      1.0  0.98250  0.11098  0.17227  1.0000 -0.1792562467
C   C291      1.0  0.01930  0.65056  0.64031  1.0000 -0.1873290178
C   C292      1.0  0.05330  0.87981  0.36949  1.0000 0.1781433372
C   C293      1.0  0.03520  0.13919  0.14659  1.0000 0.1781433372
C   C294      1.0  0.01340  0.67547  0.59795  1.0000 0.1697071168
C   C295      1.0  0.02440  0.95419  0.26628  1.0000 -0.4906159388
C   C296      1.0  0.05600  0.04953  0.22444  1.0000 -0.4999077966
C   C297      1.0  0.91680  0.64859  0.72216  1.0000 -0.4906159388
C   C298      1.0  0.10170  0.85212  0.41077  1.0000 -0.4806995495
C   C299      1.0  0.98980  0.17212  0.11346  1.0000 -0.5101553735
C   C300      1.0  0.07870  0.67621  0.55400  1.0000 -0.4906159388
C   C301      1.0  0.22090  0.90611  0.33307  1.0000 0.1206814093
C   C302      1.0  0.86530  0.10727  0.17604  1.0000 0.1121359269
C   C303      1.0  0.09440  0.61710  0.65094  1.0000 0.1206814093
C   C304      1.0  0.26950  0.94311  0.33500  1.0000 -0.1430614951
C   C305      1.0  0.81500  0.07097  0.16876  1.0000 -0.1490067718
C   C306      1.0  0.07510  0.58231  0.62443  1.0000 -0.1607889446
C   C307      1.0  0.37800  0.94751  0.33061  1.0000 -0.0911377159
C   C308      1.0  0.70730  0.06572  0.17570  1.0000 -0.0911377159
C   C309      1.0  0.14210  0.55056  0.63615  1.0000 -0.1010359209
C   C310      1.0  0.44340  0.91518  0.32303  1.0000 -0.0416695916
C   C311      1.0  0.64540  0.09677  0.18998  1.0000 -0.0232495594
C   C312      1.0  0.23320  0.55344  0.67449  1.0000 -0.0301994557
C   C313      1.0  0.39580  0.87844  0.32237  1.0000 -0.1010359209
C   C314      1.0  0.69370  0.13327  0.19577  1.0000 -0.1010359209
C   C315      1.0  0.25500  0.58845  0.69991  1.0000 -0.1010359209
C   C316      1.0  0.28660  0.87395  0.32714  1.0000 -0.1607889446
C   C317      1.0  0.80240  0.13810  0.18941  1.0000 -0.1490067718
C   C318      1.0  0.18650  0.61997  0.68895  1.0000 -0.1430614951
C   C319      1.0  0.55740  0.92139  0.31334  1.0000 0.5659777957
C   C320      1.0  0.53030  0.09001  0.19891  1.0000 0.5659777957
C   C321      1.0  0.30270  0.51851  0.68983  1.0000 0.5785115386
C   C322      1.0  0.62670  0.68511  0.71521  1.0000 0.1991704206
C   C323      1.0  0.62440  0.71971  0.68429  1.0000 -0.1968685512
C   C324      1.0  0.65610  0.75465  0.70702  1.0000 -0.1245193468
C   C325      1.0  0.69610  0.75631  0.76141  1.0000 -0.1104492422
C   C326      1.0  0.70170  0.72270  0.78941  1.0000 -0.0799247169
C   C327      1.0  0.66390  0.68840  0.76661  1.0000 -0.1607889446
C   C328      1.0  0.58700  0.64784  0.69106  1.0000 -0.4596308259
N   N1        1.0  0.82033  0.59589  0.91885  1.0000 0.087190646
N   N2        1.0  0.27358  0.37653  0.59551  1.0000 0.0794254579
N   N3        1.0  0.92770  0.72941  0.10467  1.0000 0.0794254579
N   N4        1.0  0.76626  0.56476  0.89550  1.0000 -0.3040781725
N   N5        1.0  0.32041  0.41115  0.61107  1.0000 -0.3040781725
N   N6        1.0  0.86980  0.72132  0.14476  1.0000 -0.2673924205
N   N7        1.0  0.94522  0.61263  0.85941  1.0000 0.0794254579
N   N8        1.0  0.14328  0.36925  0.65537  1.0000 0.0696359914
N   N9        1.0  0.93330  0.79874  0.10416  1.0000 0.0696359914
N   N10       1.0  0.92192  0.58516  0.82170  1.0000 -0.2941763487
N   N11       1.0  0.16369  0.40172  0.68510  1.0000 -0.2941763487
N   N12       1.0  0.88790  0.80567  0.14860  1.0000 -0.2673924205
N   N13       1.0  0.17967  0.09589  0.58115  1.0000 0.087190646
N   N14       1.0  0.72642  0.87653  0.90449  1.0000 0.087190646
N   N15       1.0  0.07230  0.22941  0.39533  1.0000 0.0794254579
N   N16       1.0  0.23374  0.06476  0.60450  1.0000 -0.3040781725
N   N17       1.0  0.67959  0.91115  0.88893  1.0000 -0.3040781725
N   N18       1.0  0.13020  0.22132  0.35524  1.0000 -0.2673924205
N   N19       1.0  0.05478  0.11263  0.64059  1.0000 0.0794254579
N   N20       1.0  0.85672  0.86925  0.84463  1.0000 0.0696359914
N   N21       1.0  0.06670  0.29874  0.39584  1.0000 0.0696359914
N   N22       1.0  0.07808  0.08516  0.67830  1.0000 -0.2941763487
N   N23       1.0  0.83631  0.90172  0.81490  1.0000 -0.2941763487
N   N24       1.0  0.11210  0.30567  0.35140  1.0000 -0.2673924205
N   N25       1.0  0.17967  0.40411  0.08115  1.0000 0.087190646
N   N26       1.0  0.72642  0.62347  0.40449  1.0000 0.087190646
N   N27       1.0  0.07230  0.27059  0.89533  1.0000 0.0794254579
N   N28       1.0  0.23374  0.43524  0.10450  1.0000 -0.3040781725
N   N29       1.0  0.67959  0.58885  0.38893  1.0000 -0.3055908618
N   N30       1.0  0.13020  0.27868  0.85524  1.0000 -0.2673924205
N   N31       1.0  0.05478  0.38737  0.14059  1.0000 0.0794254579
N   N32       1.0  0.85672  0.63075  0.34463  1.0000 0.0696359914
N   N33       1.0  0.06670  0.20126  0.89584  1.0000 0.0696359914
N   N34       1.0  0.07808  0.41484  0.17830  1.0000 -0.2941763487
N   N35       1.0  0.83631  0.59828  0.31490  1.0000 -0.2941763487
N   N36       1.0  0.11210  0.19433  0.85140  1.0000 -0.2673924205
N   N37       1.0  0.82033  0.90411  0.41885  1.0000 0.087190646
N   N38       1.0  0.27358  0.12347  0.09551  1.0000 0.087190646
N   N39       1.0  0.92770  0.77059  0.60467  1.0000 0.0794254579
N   N40       1.0  0.76626  0.93524  0.39550  1.0000 -0.3040781725
N   N41       1.0  0.32041  0.08885  0.11107  1.0000 -0.3040781725
N   N42       1.0  0.86980  0.77868  0.64476  1.0000 -0.2673924205
N   N43       1.0  0.94522  0.88737  0.35941  1.0000 0.0794254579
N   N44       1.0  0.14328  0.13075  0.15537  1.0000 0.0696359914
N   N45       1.0  0.93330  0.70126  0.60416  1.0000 0.064085907
N   N46       1.0  0.92192  0.91484  0.32170  1.0000 -0.2941763487
N   N47       1.0  0.16369  0.09828  0.18510  1.0000 -0.2941763487
N   N48       1.0  0.88790  0.69433  0.64860  1.0000 -0.2673924205
O   O1        1.0  0.69298  0.56341  0.22327  1.0000 -0.5508906555
O   O2        1.0  0.38087  0.47725  0.30342  1.0000 -0.5569129524
O   O3        1.0  0.32471  0.53567  0.21225  1.0000 -0.54064097
O   O4        1.0  0.53663  0.53481  0.19005  1.0000 -0.5343817112
O   O5        1.0  0.24451  0.43682  0.27449  1.0000 -0.5508906555
O   O6        1.0  0.17493  0.50170  0.18311  1.0000 -0.5508906555
O   O7        1.0  0.62345  0.60615  0.81353  1.0000 -0.54064097
O   O8        1.0  0.46777  0.38254  0.70579  1.0000 -0.54064097
O   O9        1.0  0.26523  0.01369  0.17288  1.0000 -0.54064097
O   O10       1.0  0.58800  0.54385  0.80572  1.0000 -0.5715231833
O   O11       1.0  0.49629  0.44507  0.69764  1.0000 -0.5776648459
O   O12       1.0  0.39074  0.97619  0.21870  1.0000 -0.5508906555
O   O13       1.0  0.30702  0.06341  0.27673  1.0000 -0.5508906555
O   O14       1.0  0.61913  0.97725  0.19658  1.0000 -0.5569129524
O   O15       1.0  0.67529  0.03567  0.28775  1.0000 -0.54064097
O   O16       1.0  0.46337  0.03481  0.30995  1.0000 -0.5343817112
O   O17       1.0  0.75549  0.93682  0.22551  1.0000 -0.5508906555
O   O18       1.0  0.82507  0.00170  0.31689  1.0000 -0.5508906555
O   O19       1.0  0.37655  0.10615  0.68647  1.0000 -0.54064097
O   O20       1.0  0.53223  0.88254  0.79421  1.0000 -0.54064097
O   O21       1.0  0.73477  0.51369  0.32712  1.0000 -0.54064097
O   O22       1.0  0.41200  0.04385  0.69428  1.0000 -0.5715231833
O   O23       1.0  0.50371  0.94507  0.80236  1.0000 -0.5776648459
O   O24       1.0  0.60926  0.47619  0.28130  1.0000 -0.5508906555
O   O25       1.0  0.30702  0.43659  0.77673  1.0000 -0.5508906555
O   O26       1.0  0.61913  0.52275  0.69658  1.0000 -0.5569129524
O   O27       1.0  0.67529  0.46433  0.78775  1.0000 -0.54064097
O   O28       1.0  0.46337  0.46519  0.80995  1.0000 -0.5343817112
O   O29       1.0  0.75549  0.56318  0.72551  1.0000 -0.5508906555
O   O30       1.0  0.82507  0.49830  0.81689  1.0000 -0.5508906555
O   O31       1.0  0.37655  0.39385  0.18647  1.0000 -0.54064097
O   O32       1.0  0.53223  0.61746  0.29421  1.0000 -0.54064097
O   O33       1.0  0.73477  0.98631  0.82712  1.0000 -0.54064097
O   O34       1.0  0.41200  0.45615  0.19428  1.0000 -0.5715231833
O   O35       1.0  0.50371  0.55493  0.30236  1.0000 -0.5776648459
O   O36       1.0  0.60926  0.02381  0.78130  1.0000 -0.5508906555
O   O37       1.0  0.69298  0.93659  0.72327  1.0000 -0.5508906555
O   O38       1.0  0.38087  0.02275  0.80342  1.0000 -0.5569129524
O   O39       1.0  0.32471  0.96433  0.71225  1.0000 -0.54064097
O   O40       1.0  0.53663  0.96519  0.69005  1.0000 -0.5343817112
O   O41       1.0  0.24451  0.06318  0.77449  1.0000 -0.5508906555
O   O42       1.0  0.17493  0.99830  0.68311  1.0000 -0.5508906555
O   O43       1.0  0.62345  0.89385  0.31353  1.0000 -0.54064097
O   O44       1.0  0.46777  0.11746  0.20579  1.0000 -0.54064097
O   O45       1.0  0.26523  0.48631  0.67288  1.0000 -0.54064097
O   O46       1.0  0.58800  0.95615  0.30572  1.0000 -0.5715231833
O   O47       1.0  0.49629  0.05493  0.19764  1.0000 -0.5776648459
O   O48       1.0  0.39074  0.52381  0.71870  1.0000 -0.5508906555
F   F1        1.0  0.91430  0.78673  0.40039  1.0000 -0.4806995495
F   F2        1.0  0.96117  0.73913  0.45959  1.0000 -0.4906159388
F   F3        1.0  0.82090  0.77854  0.46892  1.0000 -0.4906159388
F   F4        1.0  0.80563  0.73540  0.40273  1.0000 -0.4806995495
F   F5        1.0  0.08570  0.28673  0.09961  1.0000 -0.4906159388
F   F6        1.0  0.03883  0.23913  0.04041  1.0000 -0.4906159388
F   F7        1.0  0.17910  0.27854  0.03108  1.0000 -0.4906159388
F   F8        1.0  0.19437  0.23540  0.09727  1.0000 -0.4806995495
F   F9        1.0  0.08570  0.21327  0.59961  1.0000 -0.4806995495
F   F10       1.0  0.03883  0.26087  0.54041  1.0000 -0.4906159388
F   F11       1.0  0.17910  0.22146  0.53108  1.0000 -0.4906159388
F   F12       1.0  0.19437  0.26460  0.59727  1.0000 -0.4806995495
F   F13       1.0  0.91430  0.71327  0.90039  1.0000 -0.4906159388
F   F14       1.0  0.96117  0.76087  0.95959  1.0000 -0.4906159388
F   F15       1.0  0.82090  0.72146  0.96892  1.0000 -0.4906159388
F   F16       1.0  0.80563  0.76460  0.90273  1.0000 -0.4806995495
