# DDEC6 charges by PACMAN v1.1 (https://github.com/mtap-research/PACMAN-charge/)
data_2021[Ce][nan]3[ION]1
_chemical_formula_sum              "Ce6 H180 C174 Br12 N18 O54"
_cell_length_a       27.9548
_cell_length_b       27.9548
_cell_length_c       27.9548
_cell_angle_alpha    117.808
_cell_angle_beta     117.808
_cell_angle_gamma    117.808

_symmetry_space_group_name_H-M    "P 1"
_symmetry_Int_Tables_number       1

loop_
  _symmetry_equiv_pos_as_xyz
  'x, y, z'

loop_
  _atom_site_type_symbol
  _atom_site_label
  _atom_site_symmetry_multiplicity
  _atom_site_fract_x
  _atom_site_fract_y
  _atom_site_fract_z
  _atom_site_occupancy
  _atom_site_charge
Ce  Ce1       1.0  0.02433  0.09116  0.60481  1.0000 2.0078462849
Ce  Ce2       1.0  0.09116  0.60481  0.02433  1.0000 2.0078462849
Ce  Ce3       1.0  0.60481  0.02433  0.09116  1.0000 2.0078462849
Ce  Ce4       1.0  0.97567  0.90884  0.39519  1.0000 2.0078462849
Ce  Ce5       1.0  0.90884  0.39519  0.97567  1.0000 2.0078462849
Ce  Ce6       1.0  0.39519  0.97567  0.90884  1.0000 2.0078462849
H   H1        1.0  0.11576  0.33786  0.71225  1.0000 0.1216137484
H   H2        1.0  0.44135  0.58664  0.99806  1.0000 0.1290372501
H   H3        1.0  0.48550  0.70328  0.02795  1.0000 0.1387924393
H   H4        1.0  0.34730  0.63681  0.90361  1.0000 0.1216137484
H   H5        1.0  0.88844  0.07838  0.40389  1.0000 0.1216137484
H   H6        1.0  0.91309  0.95576  0.29173  1.0000 0.1387924393
H   H7        1.0  0.86274  0.95436  0.19655  1.0000 0.1387924393
H   H8        1.0  0.81827  0.00539  0.19869  1.0000 0.1119159976
H   H9        1.0  0.32660  0.66958  0.75529  1.0000 0.1290372501
H   H10       1.0  0.14536  0.63286  0.59571  1.0000 0.1387924393
H   H11       1.0  0.01240  0.45390  0.42624  1.0000 0.1387924393
H   H12       1.0  0.03840  0.38527  0.42300  1.0000 0.1119159976
H   H13       1.0  0.06733  0.38348  0.68273  1.0000 0.1216137484
H   H14       1.0  0.15895  0.50039  0.75417  1.0000 0.1387924393
H   H15       1.0  0.78781  0.06243  0.30930  1.0000 0.1290372501
H   H16       1.0  0.79467  0.07078  0.25901  1.0000 0.1387924393
H   H17       1.0  0.16558  0.42467  0.52261  1.0000 0.1119159976
H   H18       1.0  0.27018  0.53023  0.65422  1.0000 0.1216137484
H   H19       1.0  0.93954  0.22412  0.50143  1.0000 0.1216137484
H   H20       1.0  0.98744  0.24883  0.39318  1.0000 0.1290372501
H   H21       1.0  0.22968  0.52738  0.71812  1.0000 0.1290372501
H   H22       1.0  0.91356  0.02543  0.64696  1.0000 0.1007926457
H   H23       1.0  0.95805  0.00905  0.67995  1.0000 0.0928222154
H   H24       1.0  0.03025  0.13930  0.81143  1.0000 0.1290372501
H   H25       1.0  0.08081  0.20803  0.81875  1.0000 0.1216137484
H   H26       1.0  0.12619  0.19133  0.85239  1.0000 0.1290372501
H   H27       1.0  0.25616  0.29876  0.84807  1.0000 0.3326167752
H   H28       1.0  0.19488  0.22685  0.82431  1.0000 0.3047091653
H   H29       1.0  0.92324  0.11090  0.57314  1.0000 0.3502626905
H   H30       1.0  0.83096  0.99562  0.47316  1.0000 0.3604792644
H   H31       1.0  0.33786  0.71225  0.11576  1.0000 0.1216137484
H   H32       1.0  0.58664  0.99806  0.44135  1.0000 0.1290372501
H   H33       1.0  0.70328  0.02795  0.48550  1.0000 0.1387924393
H   H34       1.0  0.63681  0.90361  0.34730  1.0000 0.1216137484
H   H35       1.0  0.07838  0.40389  0.88844  1.0000 0.1216137484
H   H36       1.0  0.95576  0.29173  0.91309  1.0000 0.1387924393
H   H37       1.0  0.95436  0.19655  0.86274  1.0000 0.1387924393
H   H38       1.0  0.00539  0.19869  0.81827  1.0000 0.1119159976
H   H39       1.0  0.66958  0.75529  0.32660  1.0000 0.1290372501
H   H40       1.0  0.63286  0.59571  0.14536  1.0000 0.1387924393
H   H41       1.0  0.45390  0.42624  0.01240  1.0000 0.1387924393
H   H42       1.0  0.38527  0.42300  0.03840  1.0000 0.1119159976
H   H43       1.0  0.38348  0.68273  0.06733  1.0000 0.1216137484
H   H44       1.0  0.50039  0.75417  0.15895  1.0000 0.1387924393
H   H45       1.0  0.06243  0.30930  0.78781  1.0000 0.1290372501
H   H46       1.0  0.07078  0.25901  0.79467  1.0000 0.1387924393
H   H47       1.0  0.42467  0.52261  0.16558  1.0000 0.1119159976
H   H48       1.0  0.53023  0.65422  0.27018  1.0000 0.1216137484
H   H49       1.0  0.22412  0.50143  0.93954  1.0000 0.1216137484
H   H50       1.0  0.24883  0.39318  0.98744  1.0000 0.1290372501
H   H51       1.0  0.52738  0.71812  0.22968  1.0000 0.1290372501
H   H52       1.0  0.02543  0.64696  0.91356  1.0000 0.1007926457
H   H53       1.0  0.00905  0.67995  0.95805  1.0000 0.0928222154
H   H54       1.0  0.13930  0.81143  0.03025  1.0000 0.1290372501
H   H55       1.0  0.20803  0.81875  0.08081  1.0000 0.1216137484
H   H56       1.0  0.19133  0.85239  0.12619  1.0000 0.1290372501
H   H57       1.0  0.29876  0.84807  0.25616  1.0000 0.3326167752
H   H58       1.0  0.22685  0.82431  0.19488  1.0000 0.3052793731
H   H59       1.0  0.11090  0.57314  0.92324  1.0000 0.3502626905
H   H60       1.0  0.99562  0.47316  0.83096  1.0000 0.3604792644
H   H61       1.0  0.71225  0.11576  0.33786  1.0000 0.1216137484
H   H62       1.0  0.99806  0.44135  0.58664  1.0000 0.1290372501
H   H63       1.0  0.02795  0.48550  0.70328  1.0000 0.1387924393
H   H64       1.0  0.90361  0.34730  0.63681  1.0000 0.1216137484
H   H65       1.0  0.40389  0.88844  0.07838  1.0000 0.1216137484
H   H66       1.0  0.29173  0.91309  0.95576  1.0000 0.1387924393
H   H67       1.0  0.19655  0.86274  0.95436  1.0000 0.1387924393
H   H68       1.0  0.19869  0.81827  0.00539  1.0000 0.1119159976
H   H69       1.0  0.75529  0.32660  0.66958  1.0000 0.1290372501
H   H70       1.0  0.59571  0.14536  0.63286  1.0000 0.1387924393
H   H71       1.0  0.42624  0.01240  0.45390  1.0000 0.1387924393
H   H72       1.0  0.42300  0.03840  0.38527  1.0000 0.1119159976
H   H73       1.0  0.68273  0.06733  0.38348  1.0000 0.1216137484
H   H74       1.0  0.75417  0.15895  0.50039  1.0000 0.1387924393
H   H75       1.0  0.30930  0.78781  0.06243  1.0000 0.1290372501
H   H76       1.0  0.25901  0.79467  0.07078  1.0000 0.1387924393
H   H77       1.0  0.52261  0.16558  0.42467  1.0000 0.1119159976
H   H78       1.0  0.65422  0.27018  0.53023  1.0000 0.1216137484
H   H79       1.0  0.50143  0.93954  0.22412  1.0000 0.1216137484
H   H80       1.0  0.39318  0.98744  0.24883  1.0000 0.1290372501
H   H81       1.0  0.71812  0.22968  0.52738  1.0000 0.1290372501
H   H82       1.0  0.64696  0.91356  0.02543  1.0000 0.1007926457
H   H83       1.0  0.67995  0.95805  0.00905  1.0000 0.0928222154
H   H84       1.0  0.81143  0.03025  0.13930  1.0000 0.1290372501
H   H85       1.0  0.81875  0.08081  0.20803  1.0000 0.1216137484
H   H86       1.0  0.85239  0.12619  0.19133  1.0000 0.1290372501
H   H87       1.0  0.84807  0.25616  0.29876  1.0000 0.3326167752
H   H88       1.0  0.82431  0.19488  0.22685  1.0000 0.3047091653
H   H89       1.0  0.57314  0.92324  0.11090  1.0000 0.3502626905
H   H90       1.0  0.47316  0.83096  0.99562  1.0000 0.3604792644
H   H91       1.0  0.88424  0.66214  0.28775  1.0000 0.1216137484
H   H92       1.0  0.55865  0.41336  0.00194  1.0000 0.1290372501
H   H93       1.0  0.51450  0.29672  0.97205  1.0000 0.1387924393
H   H94       1.0  0.65270  0.36319  0.09639  1.0000 0.1216137484
H   H95       1.0  0.11156  0.92162  0.59611  1.0000 0.1216137484
H   H96       1.0  0.08691  0.04424  0.70827  1.0000 0.1387924393
H   H97       1.0  0.13726  0.04564  0.80345  1.0000 0.1387924393
H   H98       1.0  0.18173  0.99461  0.80131  1.0000 0.1119159976
H   H99       1.0  0.67340  0.33042  0.24471  1.0000 0.1290372501
H   H100      1.0  0.85464  0.36714  0.40429  1.0000 0.1387924393
H   H101      1.0  0.98760  0.54610  0.57376  1.0000 0.1387924393
H   H102      1.0  0.96160  0.61473  0.57700  1.0000 0.1119159976
H   H103      1.0  0.93267  0.61652  0.31727  1.0000 0.1216137484
H   H104      1.0  0.84105  0.49961  0.24583  1.0000 0.1387924393
H   H105      1.0  0.21219  0.93757  0.69070  1.0000 0.1290372501
H   H106      1.0  0.20533  0.92922  0.74099  1.0000 0.1387924393
H   H107      1.0  0.83442  0.57533  0.47739  1.0000 0.1119159976
H   H108      1.0  0.72982  0.46977  0.34578  1.0000 0.1216137484
H   H109      1.0  0.06046  0.77588  0.49857  1.0000 0.1216137484
H   H110      1.0  0.01256  0.75117  0.60682  1.0000 0.1290372501
H   H111      1.0  0.77032  0.47262  0.28188  1.0000 0.1290372501
H   H112      1.0  0.08644  0.97457  0.35304  1.0000 0.1007926457
H   H113      1.0  0.04195  0.99095  0.32005  1.0000 0.0928222154
H   H114      1.0  0.96975  0.86070  0.18857  1.0000 0.1290372501
H   H115      1.0  0.91919  0.79197  0.18125  1.0000 0.1216137484
H   H116      1.0  0.87381  0.80867  0.14761  1.0000 0.1290372501
H   H117      1.0  0.74384  0.70124  0.15193  1.0000 0.3326167752
H   H118      1.0  0.80512  0.77315  0.17569  1.0000 0.3052793731
H   H119      1.0  0.07676  0.88910  0.42686  1.0000 0.3502626905
H   H120      1.0  0.16904  0.00438  0.52684  1.0000 0.3604792644
H   H121      1.0  0.66214  0.28775  0.88424  1.0000 0.1216137484
H   H122      1.0  0.41336  0.00194  0.55865  1.0000 0.1290372501
H   H123      1.0  0.29672  0.97205  0.51450  1.0000 0.1387924393
H   H124      1.0  0.36319  0.09639  0.65270  1.0000 0.1216137484
H   H125      1.0  0.92162  0.59611  0.11156  1.0000 0.1216137484
H   H126      1.0  0.04424  0.70827  0.08691  1.0000 0.1387924393
H   H127      1.0  0.04564  0.80345  0.13726  1.0000 0.1387924393
H   H128      1.0  0.99461  0.80131  0.18173  1.0000 0.1119159976
H   H129      1.0  0.33042  0.24471  0.67340  1.0000 0.1290372501
H   H130      1.0  0.36714  0.40429  0.85464  1.0000 0.1387924393
H   H131      1.0  0.54610  0.57376  0.98760  1.0000 0.1387924393
H   H132      1.0  0.61473  0.57700  0.96160  1.0000 0.1119159976
H   H133      1.0  0.61652  0.31727  0.93267  1.0000 0.1216137484
H   H134      1.0  0.49961  0.24583  0.84105  1.0000 0.1387924393
H   H135      1.0  0.93757  0.69070  0.21219  1.0000 0.1290372501
H   H136      1.0  0.92922  0.74099  0.20533  1.0000 0.1387924393
H   H137      1.0  0.57533  0.47739  0.83442  1.0000 0.1119159976
H   H138      1.0  0.46977  0.34578  0.72982  1.0000 0.1216137484
H   H139      1.0  0.77588  0.49857  0.06046  1.0000 0.1216137484
H   H140      1.0  0.75117  0.60682  0.01256  1.0000 0.1290372501
H   H141      1.0  0.47262  0.28188  0.77032  1.0000 0.1290372501
H   H142      1.0  0.97457  0.35304  0.08644  1.0000 0.1007926457
H   H143      1.0  0.99095  0.32005  0.04195  1.0000 0.0928222154
H   H144      1.0  0.86070  0.18857  0.96975  1.0000 0.1290372501
H   H145      1.0  0.79197  0.18125  0.91919  1.0000 0.1216137484
H   H146      1.0  0.80867  0.14761  0.87381  1.0000 0.1290372501
H   H147      1.0  0.70124  0.15193  0.74384  1.0000 0.3326167752
H   H148      1.0  0.77315  0.17569  0.80512  1.0000 0.3047091653
H   H149      1.0  0.88910  0.42686  0.07676  1.0000 0.3502626905
H   H150      1.0  0.00438  0.52684  0.16904  1.0000 0.3604792644
H   H151      1.0  0.28775  0.88424  0.66214  1.0000 0.1216137484
H   H152      1.0  0.00194  0.55865  0.41336  1.0000 0.1290372501
H   H153      1.0  0.97205  0.51450  0.29672  1.0000 0.1387924393
H   H154      1.0  0.09639  0.65270  0.36319  1.0000 0.1216137484
H   H155      1.0  0.59611  0.11156  0.92162  1.0000 0.1216137484
H   H156      1.0  0.70827  0.08691  0.04424  1.0000 0.1387924393
H   H157      1.0  0.80345  0.13726  0.04564  1.0000 0.1387924393
H   H158      1.0  0.80131  0.18173  0.99461  1.0000 0.1119159976
H   H159      1.0  0.24471  0.67340  0.33042  1.0000 0.1290372501
H   H160      1.0  0.40429  0.85464  0.36714  1.0000 0.1387924393
H   H161      1.0  0.57376  0.98760  0.54610  1.0000 0.1387924393
H   H162      1.0  0.57700  0.96160  0.61473  1.0000 0.1119159976
H   H163      1.0  0.31727  0.93267  0.61652  1.0000 0.1216137484
H   H164      1.0  0.24583  0.84105  0.49961  1.0000 0.1387924393
H   H165      1.0  0.69070  0.21219  0.93757  1.0000 0.1290372501
H   H166      1.0  0.74099  0.20533  0.92922  1.0000 0.1387924393
H   H167      1.0  0.47739  0.83442  0.57533  1.0000 0.1119159976
H   H168      1.0  0.34578  0.72982  0.46977  1.0000 0.1216137484
H   H169      1.0  0.49857  0.06046  0.77588  1.0000 0.1216137484
H   H170      1.0  0.60682  0.01256  0.75117  1.0000 0.1290372501
H   H171      1.0  0.28188  0.77032  0.47262  1.0000 0.1290372501
H   H172      1.0  0.35304  0.08644  0.97457  1.0000 0.1007926457
H   H173      1.0  0.32005  0.04195  0.99095  1.0000 0.0928222154
H   H174      1.0  0.18857  0.96975  0.86070  1.0000 0.1290372501
H   H175      1.0  0.18125  0.91919  0.79197  1.0000 0.1216137484
H   H176      1.0  0.14761  0.87381  0.80867  1.0000 0.1290372501
H   H177      1.0  0.15193  0.74384  0.70124  1.0000 0.3326167752
H   H178      1.0  0.17569  0.80512  0.77315  1.0000 0.3052793731
H   H179      1.0  0.42686  0.07676  0.88910  1.0000 0.3502626905
H   H180      1.0  0.52684  0.16904  0.00438  1.0000 0.3604792644
C   C1        1.0  0.23865  0.37158  0.82917  1.0000 0.5712805082
C   C2        1.0  0.19229  0.41311  0.77820  1.0000 -0.0477186733
C   C3        1.0  0.27248  0.45000  0.85192  1.0000 -0.0477186733
C   C4        1.0  0.38402  0.55923  0.94645  1.0000 -0.0636357824
C   C5        1.0  0.40976  0.62816  0.96368  1.0000 -0.1324753921
C   C6        1.0  0.32852  0.58896  0.89032  1.0000 -0.0094821994
C   C7        1.0  0.94401  0.02887  0.42882  1.0000 0.6206578304
C   C8        1.0  0.88294  0.05184  0.36102  1.0000 -0.02083151
C   C9        1.0  0.90588  0.01864  0.35898  1.0000 -0.02083151
C   C10       1.0  0.89770  0.97990  0.29520  1.0000 -0.0439169377
C   C11       1.0  0.86690  0.97830  0.23850  1.0000 -0.1467086286
C   C12       1.0  0.84240  0.01010  0.24110  1.0000 0.007760385
C   C13       1.0  0.33971  0.78667  0.80382  1.0000 0.6370286633
C   C14       1.0  0.26252  0.62593  0.68835  1.0000 -0.0014114409
C   C15       1.0  0.24989  0.66899  0.69212  1.0000 -0.0477186733
C   C16       1.0  0.15536  0.60424  0.59370  1.0000 -0.0477186733
C   C17       1.0  0.07708  0.49890  0.49412  1.0000 -0.1074891771
C   C18       1.0  0.09206  0.45793  0.49221  1.0000 0.016081501
C   C19       1.0  0.13086  0.43837  0.71537  1.0000 -0.2078588714
C   C20       1.0  0.83365  0.09265  0.31670  1.0000 -0.2078588714
C   C21       1.0  0.19147  0.47054  0.58269  1.0000 -0.1865747879
C   C22       1.0  0.09059  0.38427  0.62404  1.0000 0.1290372501
C   C23       1.0  0.98542  0.26856  0.51612  1.0000 -0.2234191371
C   C24       1.0  0.94774  0.21866  0.43210  1.0000 0.1290372501
C   C25       1.0  0.01437  0.28333  0.45230  1.0000 -0.2234191371
C   C26       1.0  0.12028  0.39855  0.55997  1.0000 0.1387924393
C   C27       1.0  0.15782  0.44872  0.64506  1.0000 -0.2078588714
C   C28       1.0  0.97780  0.05660  0.68980  1.0000 0.1527417068
C   C29       1.0  0.06010  0.15660  0.80180  1.0000 -0.4739420126
C   C30       1.0  0.37158  0.82917  0.23865  1.0000 0.5712805082
C   C31       1.0  0.41311  0.77820  0.19229  1.0000 -0.0439169377
C   C32       1.0  0.45000  0.85192  0.27248  1.0000 -0.0477186733
C   C33       1.0  0.55923  0.94645  0.38402  1.0000 -0.0636357824
C   C34       1.0  0.62816  0.96368  0.40976  1.0000 -0.1324753921
C   C35       1.0  0.58896  0.89032  0.32852  1.0000 -0.0094821994
C   C36       1.0  0.02887  0.42882  0.94401  1.0000 0.6206578304
C   C37       1.0  0.05184  0.36102  0.88294  1.0000 -0.02083151
C   C38       1.0  0.01864  0.35898  0.90588  1.0000 -0.02083151
C   C39       1.0  0.97990  0.29520  0.89770  1.0000 -0.0439169377
C   C40       1.0  0.97830  0.23850  0.86690  1.0000 -0.1467086286
C   C41       1.0  0.01010  0.24110  0.84240  1.0000 0.007760385
C   C42       1.0  0.78667  0.80382  0.33971  1.0000 0.6370286633
C   C43       1.0  0.62593  0.68835  0.26252  1.0000 -0.0014114409
C   C44       1.0  0.66899  0.69212  0.24989  1.0000 -0.0477186733
C   C45       1.0  0.60424  0.59370  0.15536  1.0000 -0.0477186733
C   C46       1.0  0.49890  0.49412  0.07708  1.0000 -0.1074891771
C   C47       1.0  0.45793  0.49221  0.09206  1.0000 0.016081501
C   C48       1.0  0.43837  0.71537  0.13086  1.0000 -0.2078588714
C   C49       1.0  0.09265  0.31670  0.83365  1.0000 -0.2078588714
C   C50       1.0  0.47054  0.58269  0.19147  1.0000 -0.1865747879
C   C51       1.0  0.38427  0.62404  0.09059  1.0000 0.1290372501
C   C52       1.0  0.26856  0.51612  0.98542  1.0000 -0.2234191371
C   C53       1.0  0.21866  0.43210  0.94774  1.0000 0.1290372501
C   C54       1.0  0.28333  0.45230  0.01437  1.0000 -0.2234191371
C   C55       1.0  0.39855  0.55997  0.12028  1.0000 0.1387924393
C   C56       1.0  0.44872  0.64506  0.15782  1.0000 -0.2078588714
C   C57       1.0  0.05660  0.68980  0.97780  1.0000 0.1527417068
C   C58       1.0  0.15660  0.80180  0.06010  1.0000 -0.4739420126
C   C59       1.0  0.82917  0.23865  0.37158  1.0000 0.5712805082
C   C60       1.0  0.77820  0.19229  0.41311  1.0000 -0.0439169377
C   C61       1.0  0.85192  0.27248  0.45000  1.0000 -0.0477186733
C   C62       1.0  0.94645  0.38402  0.55923  1.0000 -0.0636357824
C   C63       1.0  0.96368  0.40976  0.62816  1.0000 -0.1324753921
C   C64       1.0  0.89032  0.32852  0.58896  1.0000 -0.0094821994
C   C65       1.0  0.42882  0.94401  0.02887  1.0000 0.6206578304
C   C66       1.0  0.36102  0.88294  0.05184  1.0000 -0.02083151
C   C67       1.0  0.35898  0.90588  0.01864  1.0000 -0.02083151
C   C68       1.0  0.29520  0.89770  0.97990  1.0000 -0.0439169377
C   C69       1.0  0.23850  0.86690  0.97830  1.0000 -0.1467086286
C   C70       1.0  0.24110  0.84240  0.01010  1.0000 0.007760385
C   C71       1.0  0.80382  0.33971  0.78667  1.0000 0.6370286633
C   C72       1.0  0.68835  0.26252  0.62593  1.0000 -0.0014114409
C   C73       1.0  0.69212  0.24989  0.66899  1.0000 -0.0439169377
C   C74       1.0  0.59370  0.15536  0.60424  1.0000 -0.0477186733
C   C75       1.0  0.49412  0.07708  0.49890  1.0000 -0.1074891771
C   C76       1.0  0.49221  0.09206  0.45793  1.0000 0.016081501
C   C77       1.0  0.71537  0.13086  0.43837  1.0000 -0.2078588714
C   C78       1.0  0.31670  0.83365  0.09265  1.0000 -0.2078588714
C   C79       1.0  0.58269  0.19147  0.47054  1.0000 -0.1865747879
C   C80       1.0  0.62404  0.09059  0.38427  1.0000 0.1290372501
C   C81       1.0  0.51612  0.98542  0.26856  1.0000 -0.2234191371
C   C82       1.0  0.43210  0.94774  0.21866  1.0000 0.1290372501
C   C83       1.0  0.45230  0.01437  0.28333  1.0000 -0.2234191371
C   C84       1.0  0.55997  0.12028  0.39855  1.0000 0.1387924393
C   C85       1.0  0.64506  0.15782  0.44872  1.0000 -0.2078588714
C   C86       1.0  0.68980  0.97780  0.05660  1.0000 0.1527417068
C   C87       1.0  0.80180  0.06010  0.15660  1.0000 -0.4739420126
C   C88       1.0  0.76135  0.62842  0.17083  1.0000 0.5712805082
C   C89       1.0  0.80771  0.58689  0.22180  1.0000 -0.0439169377
C   C90       1.0  0.72752  0.55000  0.14808  1.0000 -0.0477186733
C   C91       1.0  0.61598  0.44077  0.05355  1.0000 -0.0636357824
C   C92       1.0  0.59024  0.37184  0.03632  1.0000 -0.1324753921
C   C93       1.0  0.67148  0.41104  0.10968  1.0000 -0.0094821994
C   C94       1.0  0.05599  0.97113  0.57118  1.0000 0.6206578304
C   C95       1.0  0.11706  0.94816  0.63898  1.0000 -0.02083151
C   C96       1.0  0.09412  0.98136  0.64102  1.0000 -0.02083151
C   C97       1.0  0.10230  0.02010  0.70480  1.0000 -0.0439169377
C   C98       1.0  0.13310  0.02170  0.76150  1.0000 -0.1467086286
C   C99       1.0  0.15760  0.98990  0.75890  1.0000 0.007760385
C   C100      1.0  0.66029  0.21333  0.19618  1.0000 0.6370286633
C   C101      1.0  0.73748  0.37407  0.31165  1.0000 -0.0014114409
C   C102      1.0  0.75011  0.33101  0.30788  1.0000 -0.0477186733
C   C103      1.0  0.84464  0.39576  0.40630  1.0000 -0.0477186733
C   C104      1.0  0.92292  0.50110  0.50588  1.0000 -0.1074891771
C   C105      1.0  0.90794  0.54207  0.50779  1.0000 0.016081501
C   C106      1.0  0.86914  0.56163  0.28463  1.0000 -0.2078588714
C   C107      1.0  0.16635  0.90735  0.68330  1.0000 -0.2078588714
C   C108      1.0  0.80853  0.52946  0.41731  1.0000 -0.1865747879
C   C109      1.0  0.90941  0.61573  0.37596  1.0000 0.1290372501
C   C110      1.0  0.01458  0.73144  0.48388  1.0000 -0.2234191371
C   C111      1.0  0.05226  0.78134  0.56790  1.0000 0.1290372501
C   C112      1.0  0.98563  0.71667  0.54770  1.0000 -0.2234191371
C   C113      1.0  0.87972  0.60145  0.44003  1.0000 0.1387924393
C   C114      1.0  0.84218  0.55128  0.35494  1.0000 -0.2078588714
C   C115      1.0  0.02220  0.94340  0.31020  1.0000 0.1527417068
C   C116      1.0  0.93990  0.84340  0.19820  1.0000 -0.4739420126
C   C117      1.0  0.62842  0.17083  0.76135  1.0000 0.5712805082
C   C118      1.0  0.58689  0.22180  0.80771  1.0000 -0.0439169377
C   C119      1.0  0.55000  0.14808  0.72752  1.0000 -0.0477186733
C   C120      1.0  0.44077  0.05355  0.61598  1.0000 -0.0636357824
C   C121      1.0  0.37184  0.03632  0.59024  1.0000 -0.1324753921
C   C122      1.0  0.41104  0.10968  0.67148  1.0000 -0.0094821994
C   C123      1.0  0.97113  0.57118  0.05599  1.0000 0.6206578304
C   C124      1.0  0.94816  0.63898  0.11706  1.0000 -0.02083151
C   C125      1.0  0.98136  0.64102  0.09412  1.0000 -0.02083151
C   C126      1.0  0.02010  0.70480  0.10230  1.0000 -0.0439169377
C   C127      1.0  0.02170  0.76150  0.13310  1.0000 -0.1467086286
C   C128      1.0  0.98990  0.75890  0.15760  1.0000 0.007760385
C   C129      1.0  0.21333  0.19618  0.66029  1.0000 0.6370286633
C   C130      1.0  0.37407  0.31165  0.73748  1.0000 -0.0014114409
C   C131      1.0  0.33101  0.30788  0.75011  1.0000 -0.0477186733
C   C132      1.0  0.39576  0.40630  0.84464  1.0000 -0.0477186733
C   C133      1.0  0.50110  0.50588  0.92292  1.0000 -0.1074891771
C   C134      1.0  0.54207  0.50779  0.90794  1.0000 0.016081501
C   C135      1.0  0.56163  0.28463  0.86914  1.0000 -0.2078588714
C   C136      1.0  0.90735  0.68330  0.16635  1.0000 -0.2078588714
C   C137      1.0  0.52946  0.41731  0.80853  1.0000 -0.1865747879
C   C138      1.0  0.61573  0.37596  0.90941  1.0000 0.1290372501
C   C139      1.0  0.73144  0.48388  0.01458  1.0000 -0.2234191371
C   C140      1.0  0.78134  0.56790  0.05226  1.0000 0.1290372501
C   C141      1.0  0.71667  0.54770  0.98563  1.0000 -0.2234191371
C   C142      1.0  0.60145  0.44003  0.87972  1.0000 0.1387924393
C   C143      1.0  0.55128  0.35494  0.84218  1.0000 -0.2078588714
C   C144      1.0  0.94340  0.31020  0.02220  1.0000 0.1527417068
C   C145      1.0  0.84340  0.19820  0.93990  1.0000 -0.4739420126
C   C146      1.0  0.17083  0.76135  0.62842  1.0000 0.5712805082
C   C147      1.0  0.22180  0.80771  0.58689  1.0000 -0.0439169377
C   C148      1.0  0.14808  0.72752  0.55000  1.0000 -0.0477186733
C   C149      1.0  0.05355  0.61598  0.44077  1.0000 -0.0636357824
C   C150      1.0  0.03632  0.59024  0.37184  1.0000 -0.1324753921
C   C151      1.0  0.10968  0.67148  0.41104  1.0000 -0.0094821994
C   C152      1.0  0.57118  0.05599  0.97113  1.0000 0.6206578304
C   C153      1.0  0.63898  0.11706  0.94816  1.0000 -0.02083151
C   C154      1.0  0.64102  0.09412  0.98136  1.0000 -0.02083151
C   C155      1.0  0.70480  0.10230  0.02010  1.0000 -0.0439169377
C   C156      1.0  0.76150  0.13310  0.02170  1.0000 -0.1467086286
C   C157      1.0  0.75890  0.15760  0.98990  1.0000 0.007760385
C   C158      1.0  0.19618  0.66029  0.21333  1.0000 0.6370286633
C   C159      1.0  0.31165  0.73748  0.37407  1.0000 -0.0014114409
C   C160      1.0  0.30788  0.75011  0.33101  1.0000 -0.0477186733
C   C161      1.0  0.40630  0.84464  0.39576  1.0000 -0.0477186733
C   C162      1.0  0.50588  0.92292  0.50110  1.0000 -0.1074891771
C   C163      1.0  0.50779  0.90794  0.54207  1.0000 0.016081501
C   C164      1.0  0.28463  0.86914  0.56163  1.0000 -0.2078588714
C   C165      1.0  0.68330  0.16635  0.90735  1.0000 -0.2078588714
C   C166      1.0  0.41731  0.80853  0.52946  1.0000 -0.1865747879
C   C167      1.0  0.37596  0.90941  0.61573  1.0000 0.1290372501
C   C168      1.0  0.48388  0.01458  0.73144  1.0000 -0.2234191371
C   C169      1.0  0.56790  0.05226  0.78134  1.0000 0.1290372501
C   C170      1.0  0.54770  0.98563  0.71667  1.0000 -0.2234191371
C   C171      1.0  0.44003  0.87972  0.60145  1.0000 0.1387924393
C   C172      1.0  0.35494  0.84218  0.55128  1.0000 -0.2078588714
C   C173      1.0  0.31020  0.02220  0.94340  1.0000 0.1527417068
C   C174      1.0  0.19820  0.93990  0.84340  1.0000 -0.4739420126
Br  Br1       1.0  0.24458  0.84233  0.33959  1.0000 -0.5885869374
Br  Br2       1.0  0.89971  0.47303  0.71456  1.0000 -0.6184130073
Br  Br3       1.0  0.33959  0.24458  0.84233  1.0000 -0.5885869374
Br  Br4       1.0  0.71456  0.89971  0.47303  1.0000 -0.6184130073
Br  Br5       1.0  0.84233  0.33959  0.24458  1.0000 -0.5885869374
Br  Br6       1.0  0.47303  0.71456  0.89971  1.0000 -0.6184130073
Br  Br7       1.0  0.75542  0.15767  0.66041  1.0000 -0.5885869374
Br  Br8       1.0  0.10029  0.52697  0.28544  1.0000 -0.6184130073
Br  Br9       1.0  0.66041  0.75542  0.15767  1.0000 -0.5885869374
Br  Br10      1.0  0.28544  0.10029  0.52697  1.0000 -0.6184130073
Br  Br11      1.0  0.15767  0.66041  0.75542  1.0000 -0.5885869374
Br  Br12      1.0  0.52697  0.28544  0.10029  1.0000 -0.6184130073
N   N1        1.0  0.22042  0.48232  0.79786  1.0000 0.1007926457
N   N2        1.0  0.85215  0.04801  0.30294  1.0000 0.1007926457
N   N3        1.0  0.18240  0.52052  0.58798  1.0000 0.1007926457
N   N4        1.0  0.48232  0.79786  0.22042  1.0000 0.1007926457
N   N5        1.0  0.04801  0.30294  0.85215  1.0000 0.1007926457
N   N6        1.0  0.52052  0.58798  0.18240  1.0000 0.1007926457
N   N7        1.0  0.79786  0.22042  0.48232  1.0000 0.1007926457
N   N8        1.0  0.30294  0.85215  0.04801  1.0000 0.1007926457
N   N9        1.0  0.58798  0.18240  0.52052  1.0000 0.1007926457
N   N10       1.0  0.77958  0.51768  0.20214  1.0000 0.1007926457
N   N11       1.0  0.14785  0.95199  0.69706  1.0000 0.1007926457
N   N12       1.0  0.81760  0.47948  0.41202  1.0000 0.1007926457
N   N13       1.0  0.51768  0.20214  0.77958  1.0000 0.1007926457
N   N14       1.0  0.95199  0.69706  0.14785  1.0000 0.1007926457
N   N15       1.0  0.47948  0.41202  0.81760  1.0000 0.1007926457
N   N16       1.0  0.20214  0.77958  0.51768  1.0000 0.1007926457
N   N17       1.0  0.69706  0.14785  0.95199  1.0000 0.1119159976
N   N18       1.0  0.41202  0.81760  0.47948  1.0000 0.1007926457
O   O1        1.0  0.95679  0.98998  0.41923  1.0000 -0.6297057579
O   O2        1.0  0.95898  0.07395  0.48937  1.0000 -0.5885869374
O   O3        1.0  0.13601  0.27302  0.73847  1.0000 -0.6617986471
O   O4        1.0  0.31544  0.41237  0.90209  1.0000 -0.5427477568
O   O5        1.0  0.41303  0.83316  0.88771  1.0000 -0.6297057579
O   O6        1.0  0.33279  0.82705  0.80156  1.0000 -0.6184130073
O   O7        1.0  0.96599  0.02559  0.62972  1.0000 -0.4989044577
O   O8        1.0  0.20588  0.23097  0.80095  1.0000 -0.7288177917
O   O9        1.0  0.89601  0.05640  0.54709  1.0000 -0.7478482833
O   O10       1.0  0.98998  0.41923  0.95679  1.0000 -0.6297057579
O   O11       1.0  0.07395  0.48937  0.95898  1.0000 -0.5885869374
O   O12       1.0  0.27302  0.73847  0.13601  1.0000 -0.6617986471
O   O13       1.0  0.41237  0.90209  0.31544  1.0000 -0.5427477568
O   O14       1.0  0.83316  0.88771  0.41303  1.0000 -0.6297057579
O   O15       1.0  0.82705  0.80156  0.33279  1.0000 -0.6184130073
O   O16       1.0  0.02559  0.62972  0.96599  1.0000 -0.4989044577
O   O17       1.0  0.23097  0.80095  0.20588  1.0000 -0.7288177917
O   O18       1.0  0.05640  0.54709  0.89601  1.0000 -0.7478482833
O   O19       1.0  0.41923  0.95679  0.98998  1.0000 -0.6297057579
O   O20       1.0  0.48937  0.95898  0.07395  1.0000 -0.5885869374
O   O21       1.0  0.73847  0.13601  0.27302  1.0000 -0.6617986471
O   O22       1.0  0.90209  0.31544  0.41237  1.0000 -0.5427477568
O   O23       1.0  0.88771  0.41303  0.83316  1.0000 -0.6297057579
O   O24       1.0  0.80156  0.33279  0.82705  1.0000 -0.6184130073
O   O25       1.0  0.62972  0.96599  0.02559  1.0000 -0.4989044577
O   O26       1.0  0.80095  0.20588  0.23097  1.0000 -0.7288177917
O   O27       1.0  0.54709  0.89601  0.05640  1.0000 -0.7478482833
O   O28       1.0  0.04321  0.01002  0.58077  1.0000 -0.6297057579
O   O29       1.0  0.04102  0.92605  0.51063  1.0000 -0.5885869374
O   O30       1.0  0.86399  0.72698  0.26153  1.0000 -0.6617986471
O   O31       1.0  0.68456  0.58763  0.09791  1.0000 -0.5427477568
O   O32       1.0  0.58697  0.16684  0.11229  1.0000 -0.6297057579
O   O33       1.0  0.66721  0.17295  0.19844  1.0000 -0.6184130073
O   O34       1.0  0.03401  0.97441  0.37028  1.0000 -0.4989044577
O   O35       1.0  0.79412  0.76903  0.19905  1.0000 -0.7288177917
O   O36       1.0  0.10399  0.94360  0.45291  1.0000 -0.7478482833
O   O37       1.0  0.01002  0.58077  0.04321  1.0000 -0.6297057579
O   O38       1.0  0.92605  0.51063  0.04102  1.0000 -0.5885869374
O   O39       1.0  0.72698  0.26153  0.86399  1.0000 -0.6617986471
O   O40       1.0  0.58763  0.09791  0.68456  1.0000 -0.5427477568
O   O41       1.0  0.16684  0.11229  0.58697  1.0000 -0.6297057579
O   O42       1.0  0.17295  0.19844  0.66721  1.0000 -0.6184130073
O   O43       1.0  0.97441  0.37028  0.03401  1.0000 -0.4989044577
O   O44       1.0  0.76903  0.19905  0.79412  1.0000 -0.7288177917
O   O45       1.0  0.94360  0.45291  0.10399  1.0000 -0.7478482833
O   O46       1.0  0.58077  0.04321  0.01002  1.0000 -0.6297057579
O   O47       1.0  0.51063  0.04102  0.92605  1.0000 -0.5885869374
O   O48       1.0  0.26153  0.86399  0.72698  1.0000 -0.6617986471
O   O49       1.0  0.09791  0.68456  0.58763  1.0000 -0.5427477568
O   O50       1.0  0.11229  0.58697  0.16684  1.0000 -0.6297057579
O   O51       1.0  0.19844  0.66721  0.17295  1.0000 -0.6184130073
O   O52       1.0  0.37028  0.03401  0.97441  1.0000 -0.4989044577
O   O53       1.0  0.19905  0.79412  0.76903  1.0000 -0.7288177917
O   O54       1.0  0.45291  0.10399  0.94360  1.0000 -0.7478482833
