# DDEC6 charges by PACMAN v1.1 (https://github.com/mtap-research/PACMAN-charge/)
data_2021[Co][nan]3[ION]1
_chemical_formula_sum              "Co12 P8 H200 C224 N16 O52 F4"
_cell_length_a       13.1378
_cell_length_b       26.3432
_cell_length_c       26.9246
_cell_angle_alpha    90
_cell_angle_beta     118.147
_cell_angle_gamma    90

_symmetry_space_group_name_H-M    "P 1"
_symmetry_Int_Tables_number       1

loop_
  _symmetry_equiv_pos_as_xyz
  'x, y, z'

loop_
  _atom_site_type_symbol
  _atom_site_label
  _atom_site_symmetry_multiplicity
  _atom_site_fract_x
  _atom_site_fract_y
  _atom_site_fract_z
  _atom_site_occupancy
  _atom_site_charge
Co  Co1       1.0  0.13949  0.30988  0.75512  1.0000 1.0041428656
Co  Co2       1.0  0.22417  0.43071  0.74619  1.0000 1.0082811684
Co  Co3       1.0  0.60187  0.67215  0.25155  1.0000 1.1111100764
Co  Co4       1.0  0.86051  0.80988  0.74488  1.0000 1.0041428656
Co  Co5       1.0  0.77583  0.93071  0.75381  1.0000 1.0082811684
Co  Co6       1.0  0.39813  0.17215  0.24845  1.0000 1.1111100764
Co  Co7       1.0  0.86051  0.69012  0.24488  1.0000 1.0082811684
Co  Co8       1.0  0.77583  0.56929  0.25381  1.0000 1.0082811684
Co  Co9       1.0  0.39813  0.32785  0.74845  1.0000 1.1111100764
Co  Co10      1.0  0.13949  0.19012  0.25512  1.0000 1.0041428656
Co  Co11      1.0  0.22417  0.06929  0.24619  1.0000 1.0082811684
Co  Co12      1.0  0.60187  0.82785  0.75155  1.0000 1.1111100764
P   P1        1.0  0.51667  0.44089  0.46878  1.0000 0.015842184
P   P2        1.0  0.08342  0.44509  0.03790  1.0000 0.1021533364
P   P3        1.0  0.48333  0.94089  0.03122  1.0000 0.015842184
P   P4        1.0  0.91658  0.94509  0.46210  1.0000 0.1021533364
P   P5        1.0  0.48333  0.55911  0.53122  1.0000 0.015842184
P   P6        1.0  0.91658  0.55491  0.96210  1.0000 0.1021533364
P   P7        1.0  0.51667  0.05911  0.96878  1.0000 0.015842184
P   P8        1.0  0.08342  0.05491  0.53790  1.0000 0.1021533364
H   H1        1.0  0.44656  0.71618  0.28553  1.0000 0.3739192189
H   H2        1.0  0.37305  0.70212  0.22268  1.0000 0.4200189562
H   H3        1.0  0.63865  0.34561  0.52123  1.0000 0.1096579593
H   H4        1.0  0.81136  0.32607  0.60030  1.0000 0.1179519577
H   H5        1.0  0.88139  0.47529  0.63165  1.0000 0.1096579593
H   H6        1.0  0.70433  0.49531  0.55507  1.0000 0.090982033
H   H7        1.0  0.73565  0.45832  0.46394  1.0000 0.1021533364
H   H8        1.0  0.78798  0.51022  0.40925  1.0000 0.1096579593
H   H9        1.0  0.46408  0.56727  0.33049  1.0000 0.1179519577
H   H10       1.0  0.41140  0.51416  0.38354  1.0000 0.1096579593
H   H11       1.0  0.60573  0.37828  0.40553  1.0000 0.1096579593
H   H12       1.0  0.54394  0.30436  0.35279  1.0000 0.1295167519
H   H13       1.0  0.27665  0.29545  0.38685  1.0000 0.1021533364
H   H14       1.0  0.33847  0.37025  0.43927  1.0000 0.090982033
H   H15       1.0  0.02065  0.36377  0.95784  1.0000 0.1096579593
H   H16       1.0  0.04256  0.34618  0.87894  1.0000 0.1179519577
H   H17       1.0  0.20012  0.48111  0.89535  1.0000 0.1179519577
H   H18       1.0  0.18281  0.49784  0.97615  1.0000 0.1096579593
H   H19       1.0  0.22880  0.35320  0.04602  1.0000 0.1096579593
H   H20       1.0  0.28285  0.28161  0.10245  1.0000 0.1096579593
H   H21       1.0  0.08742  0.32717  0.17338  1.0000 0.1179519577
H   H22       1.0  0.03620  0.39970  0.11818  1.0000 0.1179519577
H   H23       1.0  0.12356  0.54075  0.09353  1.0000 0.1096579593
H   H24       1.0  0.28271  0.59206  0.14720  1.0000 0.1179519577
H   H25       1.0  0.49219  0.48549  0.13734  1.0000 0.1179519577
H   H26       1.0  0.33385  0.43480  0.08378  1.0000 0.1096579593
H   H27       1.0  0.70759  0.02227  0.67624  1.0000 0.1096579593
H   H28       1.0  0.75746  0.10604  0.67471  1.0000 0.1295167519
H   H29       1.0  0.96282  0.09847  0.84338  1.0000 0.1096579593
H   H30       1.0  0.90461  0.01481  0.84010  1.0000 0.090982033
H   H31       1.0  0.84562  0.17117  0.67319  1.0000 0.1179519577
H   H32       1.0  0.93627  0.24629  0.67472  1.0000 0.1096579593
H   H33       1.0  0.08246  0.25241  0.83959  1.0000 0.1096579593
H   H34       1.0  0.99833  0.17597  0.84350  1.0000 0.1179519577
H   H35       1.0  0.55344  0.21618  0.21447  1.0000 0.3739192189
H   H36       1.0  0.62695  0.20212  0.27732  1.0000 0.4200189562
H   H37       1.0  0.36135  0.84561  0.97877  1.0000 0.1096579593
H   H38       1.0  0.18864  0.82607  0.89970  1.0000 0.1179519577
H   H39       1.0  0.11861  0.97529  0.86835  1.0000 0.1096579593
H   H40       1.0  0.29567  0.99531  0.94493  1.0000 0.090982033
H   H41       1.0  0.26435  0.95832  0.03606  1.0000 0.1021533364
H   H42       1.0  0.21202  0.01022  0.09075  1.0000 0.1096579593
H   H43       1.0  0.53592  0.06727  0.16951  1.0000 0.1179519577
H   H44       1.0  0.58860  0.01416  0.11646  1.0000 0.1096579593
H   H45       1.0  0.39427  0.87828  0.09447  1.0000 0.1096579593
H   H46       1.0  0.45606  0.80436  0.14721  1.0000 0.1295167519
H   H47       1.0  0.72335  0.79545  0.11315  1.0000 0.1021533364
H   H48       1.0  0.66153  0.87025  0.06073  1.0000 0.090982033
H   H49       1.0  0.97935  0.86377  0.54216  1.0000 0.1096579593
H   H50       1.0  0.95744  0.84618  0.62106  1.0000 0.1179519577
H   H51       1.0  0.79988  0.98111  0.60465  1.0000 0.1179519577
H   H52       1.0  0.81719  0.99784  0.52385  1.0000 0.1096579593
H   H53       1.0  0.77120  0.85320  0.45398  1.0000 0.1096579593
H   H54       1.0  0.71715  0.78161  0.39755  1.0000 0.1096579593
H   H55       1.0  0.91258  0.82717  0.32662  1.0000 0.1179519577
H   H56       1.0  0.96380  0.89970  0.38182  1.0000 0.1179519577
H   H57       1.0  0.87644  0.04075  0.40647  1.0000 0.1096579593
H   H58       1.0  0.71729  0.09206  0.35280  1.0000 0.1179519577
H   H59       1.0  0.50781  0.98549  0.36266  1.0000 0.1179519577
H   H60       1.0  0.66615  0.93480  0.41622  1.0000 0.1096579593
H   H61       1.0  0.29241  0.52227  0.82376  1.0000 0.1096579593
H   H62       1.0  0.24254  0.60604  0.82529  1.0000 0.1295167519
H   H63       1.0  0.03718  0.59847  0.65662  1.0000 0.1096579593
H   H64       1.0  0.09539  0.51481  0.65990  1.0000 0.090982033
H   H65       1.0  0.15438  0.67117  0.82681  1.0000 0.1295167519
H   H66       1.0  0.06373  0.74629  0.82528  1.0000 0.1096579593
H   H67       1.0  0.91754  0.75241  0.66041  1.0000 0.1096579593
H   H68       1.0  0.00167  0.67597  0.65650  1.0000 0.1179519577
H   H69       1.0  0.55344  0.28382  0.71447  1.0000 0.3739192189
H   H70       1.0  0.62695  0.29788  0.77732  1.0000 0.4200189562
H   H71       1.0  0.36135  0.65439  0.47877  1.0000 0.1096579593
H   H72       1.0  0.18864  0.67393  0.39970  1.0000 0.1179519577
H   H73       1.0  0.11861  0.52471  0.36835  1.0000 0.1096579593
H   H74       1.0  0.29567  0.50469  0.44493  1.0000 0.090982033
H   H75       1.0  0.26435  0.54168  0.53606  1.0000 0.1021533364
H   H76       1.0  0.21202  0.48978  0.59075  1.0000 0.1096579593
H   H77       1.0  0.53592  0.43273  0.66951  1.0000 0.1179519577
H   H78       1.0  0.58860  0.48584  0.61646  1.0000 0.1096579593
H   H79       1.0  0.39427  0.62172  0.59447  1.0000 0.1096579593
H   H80       1.0  0.45606  0.69564  0.64721  1.0000 0.1295167519
H   H81       1.0  0.72335  0.70455  0.61315  1.0000 0.1021533364
H   H82       1.0  0.66153  0.62975  0.56073  1.0000 0.090982033
H   H83       1.0  0.97935  0.63623  0.04216  1.0000 0.1096579593
H   H84       1.0  0.95744  0.65382  0.12106  1.0000 0.1179519577
H   H85       1.0  0.79988  0.51889  0.10465  1.0000 0.1179519577
H   H86       1.0  0.81719  0.50216  0.02385  1.0000 0.1096579593
H   H87       1.0  0.77120  0.64680  0.95398  1.0000 0.1096579593
H   H88       1.0  0.71715  0.71839  0.89755  1.0000 0.1096579593
H   H89       1.0  0.91258  0.67283  0.82662  1.0000 0.1179519577
H   H90       1.0  0.96380  0.60030  0.88182  1.0000 0.1179519577
H   H91       1.0  0.87644  0.45925  0.90647  1.0000 0.1096579593
H   H92       1.0  0.71729  0.40794  0.85280  1.0000 0.1179519577
H   H93       1.0  0.50781  0.51451  0.86266  1.0000 0.1179519577
H   H94       1.0  0.66615  0.56520  0.91622  1.0000 0.1096579593
H   H95       1.0  0.29241  0.97773  0.32376  1.0000 0.1096579593
H   H96       1.0  0.24254  0.89396  0.32529  1.0000 0.1295167519
H   H97       1.0  0.03718  0.90153  0.15662  1.0000 0.1096579593
H   H98       1.0  0.09539  0.98519  0.15990  1.0000 0.090982033
H   H99       1.0  0.15438  0.82883  0.32681  1.0000 0.1179519577
H   H100      1.0  0.06373  0.75371  0.32528  1.0000 0.1096579593
H   H101      1.0  0.91754  0.74759  0.16041  1.0000 0.1096579593
H   H102      1.0  0.00167  0.82403  0.15650  1.0000 0.1179519577
H   H103      1.0  0.44656  0.78382  0.78553  1.0000 0.3739192189
H   H104      1.0  0.37305  0.79788  0.72268  1.0000 0.4200189562
H   H105      1.0  0.63865  0.15439  0.02123  1.0000 0.1096579593
H   H106      1.0  0.81136  0.17393  0.10030  1.0000 0.1179519577
H   H107      1.0  0.88139  0.02471  0.13165  1.0000 0.1096579593
H   H108      1.0  0.70433  0.00469  0.05507  1.0000 0.090982033
H   H109      1.0  0.73565  0.04168  0.96394  1.0000 0.1021533364
H   H110      1.0  0.78798  0.98978  0.90925  1.0000 0.1096579593
H   H111      1.0  0.46408  0.93273  0.83049  1.0000 0.1179519577
H   H112      1.0  0.41140  0.98584  0.88354  1.0000 0.1096579593
H   H113      1.0  0.60573  0.12172  0.90553  1.0000 0.1096579593
H   H114      1.0  0.54394  0.19564  0.85279  1.0000 0.1295167519
H   H115      1.0  0.27665  0.20455  0.88685  1.0000 0.1021533364
H   H116      1.0  0.33847  0.12975  0.93927  1.0000 0.090982033
H   H117      1.0  0.02065  0.13623  0.45784  1.0000 0.1096579593
H   H118      1.0  0.04256  0.15382  0.37894  1.0000 0.1179519577
H   H119      1.0  0.20012  0.01889  0.39535  1.0000 0.1179519577
H   H120      1.0  0.18281  0.00216  0.47615  1.0000 0.1096579593
H   H121      1.0  0.22880  0.14680  0.54602  1.0000 0.1096579593
H   H122      1.0  0.28285  0.21839  0.60245  1.0000 0.1096579593
H   H123      1.0  0.08742  0.17283  0.67338  1.0000 0.1179519577
H   H124      1.0  0.03620  0.10030  0.61818  1.0000 0.1179519577
H   H125      1.0  0.12356  0.95925  0.59353  1.0000 0.1096579593
H   H126      1.0  0.28271  0.90794  0.64720  1.0000 0.1179519577
H   H127      1.0  0.49219  0.01451  0.63734  1.0000 0.1179519577
H   H128      1.0  0.33385  0.06520  0.58378  1.0000 0.1096579593
H   H129      1.0  0.70759  0.47773  0.17624  1.0000 0.1096579593
H   H130      1.0  0.75746  0.39396  0.17471  1.0000 0.1295167519
H   H131      1.0  0.96282  0.40153  0.34338  1.0000 0.1096579593
H   H132      1.0  0.90461  0.48519  0.34010  1.0000 0.090982033
H   H133      1.0  0.84562  0.32883  0.17319  1.0000 0.1179519577
H   H134      1.0  0.93627  0.25371  0.17472  1.0000 0.1096579593
H   H135      1.0  0.08246  0.24759  0.33959  1.0000 0.1096579593
H   H136      1.0  0.99833  0.32403  0.34350  1.0000 0.1179519577
H   H137      1.0  0.79631  0.93779  0.03192  1.0000 0.2161195488
H   H138      1.0  0.83219  0.90500  0.99886  1.0000 0.2161195488
H   H139      1.0  0.95588  0.97766  0.02799  1.0000 0.1295167519
H   H140      1.0  0.99253  0.96377  0.09210  1.0000 0.1295167519
H   H141      1.0  0.03160  0.92803  0.05607  1.0000 0.1407320501
H   H142      1.0  0.78863  0.85811  0.05349  1.0000 0.1179519577
H   H143      1.0  0.92256  0.85264  0.07075  1.0000 0.1295167519
H   H144      1.0  0.88348  0.88839  0.10677  1.0000 0.1179519577
H   H145      1.0  0.44708  0.16115  0.15090  1.0000 0.2598753796
H   H146      1.0  0.46705  0.21356  0.13806  1.0000 0.2272870243
H   H147      1.0  0.28842  0.18886  0.07424  1.0000 0.1407320501
H   H148      1.0  0.36724  0.19892  0.04457  1.0000 0.1295167519
H   H149      1.0  0.34559  0.14212  0.05848  1.0000 0.1179519577
H   H150      1.0  0.62635  0.16548  0.15639  1.0000 0.1295167519
H   H151      1.0  0.54450  0.12823  0.10648  1.0000 0.1295167519
H   H152      1.0  0.56615  0.18503  0.09257  1.0000 0.1295167519
H   H153      1.0  0.20369  0.43779  0.46808  1.0000 0.2148658485
H   H154      1.0  0.16781  0.40500  0.50114  1.0000 0.2161195488
H   H155      1.0  0.04412  0.47766  0.47201  1.0000 0.1295167519
H   H156      1.0  0.00747  0.46377  0.40790  1.0000 0.1295167519
H   H157      1.0  0.96840  0.42803  0.44393  1.0000 0.1407320501
H   H158      1.0  0.21137  0.35811  0.44651  1.0000 0.1179519577
H   H159      1.0  0.07744  0.35264  0.42925  1.0000 0.1295167519
H   H160      1.0  0.11652  0.38839  0.39323  1.0000 0.1179519577
H   H161      1.0  0.55292  0.66115  0.34910  1.0000 0.2598753796
H   H162      1.0  0.53295  0.71356  0.36194  1.0000 0.2272870243
H   H163      1.0  0.71158  0.68886  0.42576  1.0000 0.1407320501
H   H164      1.0  0.63276  0.69892  0.45543  1.0000 0.1295167519
H   H165      1.0  0.65441  0.64212  0.44152  1.0000 0.1179519577
H   H166      1.0  0.37365  0.66548  0.34361  1.0000 0.1295167519
H   H167      1.0  0.45550  0.62823  0.39352  1.0000 0.1295167519
H   H168      1.0  0.43385  0.68503  0.40743  1.0000 0.1295167519
H   H169      1.0  0.20369  0.06221  0.96808  1.0000 0.2148658485
H   H170      1.0  0.16781  0.09500  0.00114  1.0000 0.2161195488
H   H171      1.0  0.04412  0.02234  0.97201  1.0000 0.1295167519
H   H172      1.0  0.00747  0.03623  0.90790  1.0000 0.1295167519
H   H173      1.0  0.96840  0.07197  0.94393  1.0000 0.1407320501
H   H174      1.0  0.21137  0.14189  0.94651  1.0000 0.1179519577
H   H175      1.0  0.07744  0.14736  0.92925  1.0000 0.1295167519
H   H176      1.0  0.11652  0.11161  0.89323  1.0000 0.1179519577
H   H177      1.0  0.55292  0.83885  0.84910  1.0000 0.2598753796
H   H178      1.0  0.53295  0.78644  0.86194  1.0000 0.2272870243
H   H179      1.0  0.71158  0.81114  0.92576  1.0000 0.1407320501
H   H180      1.0  0.63276  0.80108  0.95543  1.0000 0.1295167519
H   H181      1.0  0.65441  0.85788  0.94152  1.0000 0.1179519577
H   H182      1.0  0.37365  0.83452  0.84361  1.0000 0.1295167519
H   H183      1.0  0.45550  0.87177  0.89352  1.0000 0.1295167519
H   H184      1.0  0.43385  0.81497  0.90743  1.0000 0.1295167519
H   H185      1.0  0.79631  0.56221  0.53192  1.0000 0.2148658485
H   H186      1.0  0.83219  0.59500  0.49886  1.0000 0.2161195488
H   H187      1.0  0.95588  0.52234  0.52799  1.0000 0.1295167519
H   H188      1.0  0.99253  0.53623  0.59210  1.0000 0.1295167519
H   H189      1.0  0.03160  0.57197  0.55607  1.0000 0.1407320501
H   H190      1.0  0.78863  0.64189  0.55349  1.0000 0.1179519577
H   H191      1.0  0.92256  0.64736  0.57075  1.0000 0.1295167519
H   H192      1.0  0.88348  0.61161  0.60677  1.0000 0.1179519577
H   H193      1.0  0.44708  0.33885  0.65090  1.0000 0.2598753796
H   H194      1.0  0.46705  0.28644  0.63806  1.0000 0.2272870243
H   H195      1.0  0.28842  0.31114  0.57424  1.0000 0.1407320501
H   H196      1.0  0.36724  0.30108  0.54457  1.0000 0.1295167519
H   H197      1.0  0.34559  0.35788  0.55848  1.0000 0.1179519577
H   H198      1.0  0.62635  0.33452  0.65639  1.0000 0.1295167519
H   H199      1.0  0.54450  0.37177  0.60648  1.0000 0.1295167519
H   H200      1.0  0.56615  0.31497  0.59257  1.0000 0.1295167519
C   C1        1.0  0.65396  0.42236  0.52936  1.0000 -0.0192372551
C   C2        1.0  0.68737  0.37221  0.54377  1.0000 -0.13065674
C   C3        1.0  0.79057  0.36057  0.59047  1.0000 -0.1109223549
C   C4        1.0  0.86443  0.39888  0.62323  1.0000 -0.0079440308
C   C5        1.0  0.83161  0.44884  0.60941  1.0000 -0.1195894098
C   C6        1.0  0.72687  0.46079  0.56347  1.0000 -0.158541262
C   C7        1.0  0.98247  0.38622  0.67157  1.0000 0.5824828298
C   C8        1.0  0.56777  0.48072  0.42887  1.0000 -0.0192372551
C   C9        1.0  0.67990  0.48016  0.43650  1.0000 -0.158541262
C   C10       1.0  0.71138  0.51143  0.40418  1.0000 -0.1377775112
C   C11       1.0  0.63199  0.54418  0.36479  1.0000 -0.0284317938
C   C12       1.0  0.51949  0.54498  0.35739  1.0000 -0.1195894098
C   C13       1.0  0.48841  0.51341  0.38911  1.0000 -0.13065674
C   C14       1.0  0.66634  0.57803  0.32994  1.0000 0.5824828298
C   C15       1.0  0.47638  0.38221  0.42658  1.0000 -0.0192372551
C   C16       1.0  0.53780  0.36176  0.40130  1.0000 -0.1195894098
C   C17       1.0  0.50140  0.31764  0.37020  1.0000 -0.0977225888
C   C18       1.0  0.40403  0.29257  0.36413  1.0000 -0.0079440308
C   C19       1.0  0.34350  0.31240  0.39030  1.0000 -0.1109223549
C   C20       1.0  0.38020  0.35700  0.42140  1.0000 -0.158541262
C   C21       1.0  0.36225  0.24462  0.32865  1.0000 0.5913271309
C   C22       1.0  0.10462  0.43173  0.97682  1.0000 -0.0443696919
C   C23       1.0  0.05982  0.38731  0.94612  1.0000 -0.1377775112
C   C24       1.0  0.07184  0.37711  0.89874  1.0000 -0.092805429
C   C25       1.0  0.12573  0.41109  0.87973  1.0000 -0.0192372551
C   C26       1.0  0.16548  0.45662  0.90858  1.0000 -0.0977225888
C   C27       1.0  0.15498  0.46661  0.95678  1.0000 -0.1377775112
C   C28       1.0  0.14514  0.39806  0.83044  1.0000 0.5970817656
C   C29       1.0  0.12701  0.38460  0.07681  1.0000 -0.0284317938
C   C30       1.0  0.20060  0.34819  0.07230  1.0000 -0.13065674
C   C31       1.0  0.23180  0.30551  0.10540  1.0000 -0.1109223549
C   C32       1.0  0.18958  0.29695  0.14308  1.0000 -0.0079440308
C   C33       1.0  0.11670  0.33252  0.14760  1.0000 -0.1109223549
C   C34       1.0  0.08620  0.37560  0.11460  1.0000 -0.1195894098
C   C35       1.0  0.22263  0.25006  0.18043  1.0000 0.5913271309
C   C36       1.0  0.21207  0.48383  0.08087  1.0000 -0.0192372551
C   C37       1.0  0.19860  0.52976  0.10150  1.0000 -0.1377775112
C   C38       1.0  0.29370  0.56025  0.13380  1.0000 -0.0977225888
C   C39       1.0  0.40360  0.54477  0.14650  1.0000 -0.0192372551
C   C40       1.0  0.41700  0.49740  0.12790  1.0000 -0.092805429
C   C41       1.0  0.32270  0.46730  0.09580  1.0000 -0.1195894098
C   C42       1.0  0.50868  0.57639  0.18248  1.0000 0.5970817656
C   C43       1.0  0.76110  0.03787  0.71050  1.0000 0.1021533364
C   C44       1.0  0.79100  0.08788  0.70930  1.0000 -0.2095710392
C   C45       1.0  0.87026  0.11183  0.75866  1.0000 0.1096579593
C   C46       1.0  0.91130  0.08355  0.80830  1.0000 -0.2095710392
C   C47       1.0  0.87619  0.03353  0.80599  1.0000 0.090982033
C   C48       1.0  0.91580  0.16311  0.75800  1.0000 0.1096579593
C   C49       1.0  0.89640  0.18634  0.70830  1.0000 -0.2095710392
C   C50       1.0  0.95040  0.23128  0.70950  1.0000 0.090982033
C   C51       1.0  0.03590  0.23478  0.80550  1.0000 0.090982033
C   C52       1.0  0.98560  0.18925  0.80820  1.0000 -0.2095710392
C   C53       1.0  0.34604  0.92236  0.97064  1.0000 -0.0192372551
C   C54       1.0  0.31263  0.87221  0.95623  1.0000 -0.13065674
C   C55       1.0  0.20943  0.86057  0.90953  1.0000 -0.1109223549
C   C56       1.0  0.13557  0.89888  0.87677  1.0000 -0.0079440308
C   C57       1.0  0.16839  0.94884  0.89059  1.0000 -0.1195894098
C   C58       1.0  0.27313  0.96079  0.93653  1.0000 -0.158541262
C   C59       1.0  0.01753  0.88622  0.82843  1.0000 0.5824828298
C   C60       1.0  0.43223  0.98072  0.07113  1.0000 -0.0192372551
C   C61       1.0  0.32010  0.98016  0.06350  1.0000 -0.158541262
C   C62       1.0  0.28862  0.01143  0.09582  1.0000 -0.1377775112
C   C63       1.0  0.36801  0.04418  0.13521  1.0000 -0.0284317938
C   C64       1.0  0.48051  0.04498  0.14261  1.0000 -0.1195894098
C   C65       1.0  0.51159  0.01341  0.11089  1.0000 -0.13065674
C   C66       1.0  0.33366  0.07803  0.17006  1.0000 0.5824828298
C   C67       1.0  0.52362  0.88221  0.07342  1.0000 -0.0192372551
C   C68       1.0  0.46220  0.86176  0.09870  1.0000 -0.1195894098
C   C69       1.0  0.49860  0.81764  0.12980  1.0000 -0.0977225888
C   C70       1.0  0.59597  0.79257  0.13587  1.0000 -0.0079440308
C   C71       1.0  0.65650  0.81240  0.10970  1.0000 -0.1109223549
C   C72       1.0  0.61980  0.85700  0.07860  1.0000 -0.158541262
C   C73       1.0  0.63775  0.74462  0.17135  1.0000 0.5913271309
C   C74       1.0  0.89538  0.93173  0.52318  1.0000 -0.0443696919
C   C75       1.0  0.94018  0.88731  0.55388  1.0000 -0.1377775112
C   C76       1.0  0.92816  0.87711  0.60126  1.0000 -0.092805429
C   C77       1.0  0.87427  0.91109  0.62027  1.0000 -0.0192372551
C   C78       1.0  0.83452  0.95662  0.59142  1.0000 -0.0977225888
C   C79       1.0  0.84502  0.96661  0.54322  1.0000 -0.1377775112
C   C80       1.0  0.85486  0.89806  0.66956  1.0000 0.5970817656
C   C81       1.0  0.87299  0.88460  0.42319  1.0000 -0.0284317938
C   C82       1.0  0.79940  0.84819  0.42770  1.0000 -0.13065674
C   C83       1.0  0.76820  0.80551  0.39460  1.0000 -0.1109223549
C   C84       1.0  0.81042  0.79695  0.35692  1.0000 -0.0079440308
C   C85       1.0  0.88330  0.83252  0.35240  1.0000 -0.1109223549
C   C86       1.0  0.91380  0.87560  0.38540  1.0000 -0.1195894098
C   C87       1.0  0.77737  0.75006  0.31957  1.0000 0.5913271309
C   C88       1.0  0.78793  0.98383  0.41913  1.0000 -0.0192372551
C   C89       1.0  0.80140  0.02976  0.39850  1.0000 -0.1377775112
C   C90       1.0  0.70630  0.06025  0.36620  1.0000 -0.0977225888
C   C91       1.0  0.59640  0.04477  0.35350  1.0000 -0.0192372551
C   C92       1.0  0.58300  0.99740  0.37210  1.0000 -0.092805429
C   C93       1.0  0.67730  0.96730  0.40420  1.0000 -0.1195894098
C   C94       1.0  0.49132  0.07639  0.31752  1.0000 0.5970817656
C   C95       1.0  0.23890  0.53787  0.78950  1.0000 0.1021533364
C   C96       1.0  0.20900  0.58788  0.79070  1.0000 -0.2095710392
C   C97       1.0  0.12974  0.61183  0.74134  1.0000 0.1096579593
C   C98       1.0  0.08870  0.58355  0.69170  1.0000 -0.2095710392
C   C99       1.0  0.12381  0.53353  0.69401  1.0000 0.090982033
C   C100      1.0  0.08420  0.66311  0.74200  1.0000 0.1096579593
C   C101      1.0  0.10360  0.68634  0.79170  1.0000 -0.2095710392
C   C102      1.0  0.04960  0.73128  0.79050  1.0000 0.090982033
C   C103      1.0  0.96410  0.73478  0.69450  1.0000 0.090982033
C   C104      1.0  0.01440  0.68925  0.69180  1.0000 -0.2095710392
C   C105      1.0  0.34604  0.57764  0.47064  1.0000 -0.0192372551
C   C106      1.0  0.31263  0.62779  0.45623  1.0000 -0.13065674
C   C107      1.0  0.20943  0.63943  0.40953  1.0000 -0.1109223549
C   C108      1.0  0.13557  0.60112  0.37677  1.0000 -0.0079440308
C   C109      1.0  0.16839  0.55116  0.39059  1.0000 -0.1195894098
C   C110      1.0  0.27313  0.53921  0.43653  1.0000 -0.158541262
C   C111      1.0  0.01753  0.61378  0.32843  1.0000 0.5824828298
C   C112      1.0  0.43223  0.51928  0.57113  1.0000 -0.0192372551
C   C113      1.0  0.32010  0.51984  0.56350  1.0000 -0.158541262
C   C114      1.0  0.28862  0.48857  0.59582  1.0000 -0.1377775112
C   C115      1.0  0.36801  0.45582  0.63521  1.0000 -0.0284317938
C   C116      1.0  0.48051  0.45502  0.64261  1.0000 -0.1195894098
C   C117      1.0  0.51159  0.48659  0.61089  1.0000 -0.13065674
C   C118      1.0  0.33366  0.42197  0.67006  1.0000 0.5824828298
C   C119      1.0  0.52362  0.61779  0.57342  1.0000 -0.0192372551
C   C120      1.0  0.46220  0.63824  0.59870  1.0000 -0.13065674
C   C121      1.0  0.49860  0.68236  0.62980  1.0000 -0.0977225888
C   C122      1.0  0.59597  0.70743  0.63587  1.0000 -0.0079440308
C   C123      1.0  0.65650  0.68760  0.60970  1.0000 -0.1109223549
C   C124      1.0  0.61980  0.64300  0.57860  1.0000 -0.158541262
C   C125      1.0  0.63775  0.75538  0.67135  1.0000 0.5913271309
C   C126      1.0  0.89538  0.56827  0.02318  1.0000 -0.0443696919
C   C127      1.0  0.94018  0.61269  0.05388  1.0000 -0.13065674
C   C128      1.0  0.92816  0.62289  0.10126  1.0000 -0.092805429
C   C129      1.0  0.87427  0.58891  0.12027  1.0000 -0.0192372551
C   C130      1.0  0.83452  0.54338  0.09142  1.0000 -0.0977225888
C   C131      1.0  0.84502  0.53339  0.04322  1.0000 -0.1377775112
C   C132      1.0  0.85486  0.60194  0.16956  1.0000 0.5970817656
C   C133      1.0  0.87299  0.61540  0.92319  1.0000 -0.0284317938
C   C134      1.0  0.79940  0.65181  0.92770  1.0000 -0.13065674
C   C135      1.0  0.76820  0.69449  0.89460  1.0000 -0.1109223549
C   C136      1.0  0.81042  0.70305  0.85692  1.0000 -0.0079440308
C   C137      1.0  0.88330  0.66748  0.85240  1.0000 -0.1109223549
C   C138      1.0  0.91380  0.62440  0.88540  1.0000 -0.1195894098
C   C139      1.0  0.77737  0.74994  0.81957  1.0000 0.5913271309
C   C140      1.0  0.78793  0.51617  0.91913  1.0000 -0.0192372551
C   C141      1.0  0.80140  0.47024  0.89850  1.0000 -0.1377775112
C   C142      1.0  0.70630  0.43975  0.86620  1.0000 -0.0977225888
C   C143      1.0  0.59640  0.45523  0.85350  1.0000 -0.0192372551
C   C144      1.0  0.58300  0.50260  0.87210  1.0000 -0.092805429
C   C145      1.0  0.67730  0.53270  0.90420  1.0000 -0.1195894098
C   C146      1.0  0.49132  0.42361  0.81752  1.0000 0.5970817656
C   C147      1.0  0.23890  0.96213  0.28950  1.0000 0.1021533364
C   C148      1.0  0.20900  0.91212  0.29070  1.0000 -0.2095710392
C   C149      1.0  0.12974  0.88817  0.24134  1.0000 0.1096579593
C   C150      1.0  0.08870  0.91645  0.19170  1.0000 -0.2095710392
C   C151      1.0  0.12381  0.96647  0.19401  1.0000 0.090982033
C   C152      1.0  0.08420  0.83689  0.24200  1.0000 0.1096579593
C   C153      1.0  0.10360  0.81366  0.29170  1.0000 -0.2095710392
C   C154      1.0  0.04960  0.76872  0.29050  1.0000 0.090982033
C   C155      1.0  0.96410  0.76522  0.19450  1.0000 0.090982033
C   C156      1.0  0.01440  0.81075  0.19180  1.0000 -0.2095710392
C   C157      1.0  0.65396  0.07764  0.02936  1.0000 -0.0192372551
C   C158      1.0  0.68737  0.12779  0.04377  1.0000 -0.13065674
C   C159      1.0  0.79057  0.13943  0.09047  1.0000 -0.1109223549
C   C160      1.0  0.86443  0.10112  0.12323  1.0000 -0.0079440308
C   C161      1.0  0.83161  0.05116  0.10941  1.0000 -0.1195894098
C   C162      1.0  0.72687  0.03921  0.06347  1.0000 -0.158541262
C   C163      1.0  0.98247  0.11378  0.17157  1.0000 0.5824828298
C   C164      1.0  0.56777  0.01928  0.92887  1.0000 -0.0192372551
C   C165      1.0  0.67990  0.01984  0.93650  1.0000 -0.158541262
C   C166      1.0  0.71138  0.98857  0.90418  1.0000 -0.1377775112
C   C167      1.0  0.63199  0.95582  0.86479  1.0000 -0.0284317938
C   C168      1.0  0.51949  0.95502  0.85739  1.0000 -0.1195894098
C   C169      1.0  0.48841  0.98659  0.88911  1.0000 -0.13065674
C   C170      1.0  0.66634  0.92197  0.82994  1.0000 0.5824828298
C   C171      1.0  0.47638  0.11779  0.92658  1.0000 -0.0192372551
C   C172      1.0  0.53780  0.13824  0.90130  1.0000 -0.13065674
C   C173      1.0  0.50140  0.18236  0.87020  1.0000 -0.0977225888
C   C174      1.0  0.40403  0.20743  0.86413  1.0000 -0.0079440308
C   C175      1.0  0.34350  0.18760  0.89030  1.0000 -0.1109223549
C   C176      1.0  0.38020  0.14300  0.92140  1.0000 -0.158541262
C   C177      1.0  0.36225  0.25538  0.82865  1.0000 0.5913271309
C   C178      1.0  0.10462  0.06827  0.47682  1.0000 -0.0443696919
C   C179      1.0  0.05982  0.11269  0.44612  1.0000 -0.1377775112
C   C180      1.0  0.07184  0.12289  0.39874  1.0000 -0.092805429
C   C181      1.0  0.12573  0.08891  0.37973  1.0000 -0.0192372551
C   C182      1.0  0.16548  0.04338  0.40858  1.0000 -0.0977225888
C   C183      1.0  0.15498  0.03339  0.45678  1.0000 -0.1377775112
C   C184      1.0  0.14514  0.10194  0.33044  1.0000 0.5970817656
C   C185      1.0  0.12701  0.11540  0.57681  1.0000 -0.0284317938
C   C186      1.0  0.20060  0.15181  0.57230  1.0000 -0.13065674
C   C187      1.0  0.23180  0.19449  0.60540  1.0000 -0.1109223549
C   C188      1.0  0.18958  0.20305  0.64308  1.0000 -0.0079440308
C   C189      1.0  0.11670  0.16748  0.64760  1.0000 -0.0977225888
C   C190      1.0  0.08620  0.12440  0.61460  1.0000 -0.1195894098
C   C191      1.0  0.22263  0.24994  0.68043  1.0000 0.5913271309
C   C192      1.0  0.21207  0.01617  0.58087  1.0000 -0.0192372551
C   C193      1.0  0.19860  0.97024  0.60150  1.0000 -0.1377775112
C   C194      1.0  0.29370  0.93975  0.63380  1.0000 -0.0977225888
C   C195      1.0  0.40360  0.95523  0.64650  1.0000 -0.0192372551
C   C196      1.0  0.41700  0.00260  0.62790  1.0000 -0.092805429
C   C197      1.0  0.32270  0.03270  0.59580  1.0000 -0.1195894098
C   C198      1.0  0.50868  0.92361  0.68248  1.0000 0.5970817656
C   C199      1.0  0.76110  0.46213  0.21050  1.0000 0.1021533364
C   C200      1.0  0.79100  0.41212  0.20930  1.0000 -0.2095710392
C   C201      1.0  0.87026  0.38817  0.25866  1.0000 0.1021533364
C   C202      1.0  0.91130  0.41645  0.30830  1.0000 -0.2095710392
C   C203      1.0  0.87619  0.46647  0.30599  1.0000 0.090982033
C   C204      1.0  0.91580  0.33689  0.25800  1.0000 0.1096579593
C   C205      1.0  0.89640  0.31366  0.20830  1.0000 -0.2095710392
C   C206      1.0  0.95040  0.26872  0.20950  1.0000 0.090982033
C   C207      1.0  0.03590  0.26522  0.30550  1.0000 0.090982033
C   C208      1.0  0.98560  0.31075  0.30820  1.0000 -0.2095710392
C   C209      1.0  0.96980  0.94980  0.05460  1.0000 -0.3864299729
C   C210      1.0  0.86280  0.87600  0.06890  1.0000 -0.3530788942
C   C211      1.0  0.35650  0.17740  0.07140  1.0000 -0.3297979123
C   C212      1.0  0.55680  0.16340  0.11980  1.0000 -0.3297979123
C   C213      1.0  0.03020  0.44980  0.44540  1.0000 -0.3864299729
C   C214      1.0  0.13720  0.37600  0.43110  1.0000 -0.3530788942
C   C215      1.0  0.64350  0.67740  0.42860  1.0000 -0.3297979123
C   C216      1.0  0.44320  0.66340  0.38020  1.0000 -0.3297979123
C   C217      1.0  0.03020  0.05020  0.94540  1.0000 -0.3864299729
C   C218      1.0  0.13720  0.12400  0.93110  1.0000 -0.3530788942
C   C219      1.0  0.64350  0.82260  0.92860  1.0000 -0.3297979123
C   C220      1.0  0.44320  0.83660  0.88020  1.0000 -0.3297979123
C   C221      1.0  0.96980  0.55020  0.55460  1.0000 -0.3864299729
C   C222      1.0  0.86280  0.62400  0.56890  1.0000 -0.3530788942
C   C223      1.0  0.35650  0.32260  0.57140  1.0000 -0.3297979123
C   C224      1.0  0.55680  0.33660  0.61980  1.0000 -0.3297979123
N   N1        1.0  0.80394  0.01049  0.75764  1.0000 -0.2254668026
N   N2        1.0  0.02194  0.25492  0.75734  1.0000 -0.2238369211
N   N3        1.0  0.19606  0.51049  0.74236  1.0000 -0.2254668026
N   N4        1.0  0.97806  0.75492  0.74266  1.0000 -0.2238369211
N   N5        1.0  0.19606  0.98951  0.24236  1.0000 -0.2254668026
N   N6        1.0  0.97806  0.74508  0.24266  1.0000 -0.2238369211
N   N7        1.0  0.80394  0.48951  0.25764  1.0000 -0.2254668026
N   N8        1.0  0.02194  0.24508  0.25734  1.0000 -0.2238369211
N   N9        1.0  0.85350  0.91690  0.03410  1.0000 -0.092805429
N   N10       1.0  0.45640  0.18090  0.12560  1.0000 -0.1109223549
N   N11       1.0  0.14650  0.41690  0.46590  1.0000 -0.092805429
N   N12       1.0  0.54360  0.68090  0.37440  1.0000 -0.1109223549
N   N13       1.0  0.14650  0.08310  0.96590  1.0000 -0.092805429
N   N14       1.0  0.54360  0.81910  0.87440  1.0000 -0.1109223549
N   N15       1.0  0.85350  0.58310  0.53410  1.0000 -0.092805429
N   N16       1.0  0.45640  0.31910  0.62560  1.0000 -0.1109223549
O   O1        1.0  0.00307  0.34048  0.68407  1.0000 -0.5516490786
O   O2        1.0  0.04804  0.42338  0.69374  1.0000 -0.5598006695
O   O3        1.0  0.75099  0.56383  0.32479  1.0000 -0.5598006695
O   O4        1.0  0.60657  0.61767  0.30997  1.0000 -0.5889703705
O   O5        1.0  0.42064  0.22984  0.30574  1.0000 -0.5598006695
O   O6        1.0  0.27308  0.22464  0.32588  1.0000 -0.5685483636
O   O7        1.0  0.19637  0.43029  0.81627  1.0000 -0.5598006695
O   O8        1.0  0.10734  0.35550  0.80784  1.0000 -0.5685483636
O   O9        1.0  0.30318  0.22278  0.18218  1.0000 -0.5988850145
O   O10       1.0  0.16583  0.24302  0.20543  1.0000 -0.5516490786
O   O11       1.0  0.60250  0.55360  0.20240  1.0000 -0.5598006695
O   O12       1.0  0.49239  0.62269  0.18859  1.0000 -0.5750216394
O   O13       1.0  0.45327  0.70090  0.25367  1.0000 -0.7379173337
O   O14       1.0  0.99693  0.84048  0.81593  1.0000 -0.5516490786
O   O15       1.0  0.95196  0.92338  0.80626  1.0000 -0.5598006695
O   O16       1.0  0.24901  0.06383  0.17521  1.0000 -0.5598006695
O   O17       1.0  0.39343  0.11767  0.19003  1.0000 -0.5889703705
O   O18       1.0  0.57936  0.72984  0.19426  1.0000 -0.5598006695
O   O19       1.0  0.72692  0.72464  0.17412  1.0000 -0.5685483636
O   O20       1.0  0.80363  0.93029  0.68373  1.0000 -0.5598006695
O   O21       1.0  0.89266  0.85550  0.69216  1.0000 -0.5685483636
O   O22       1.0  0.69682  0.72278  0.31782  1.0000 -0.5988850145
O   O23       1.0  0.83417  0.74302  0.29457  1.0000 -0.5516490786
O   O24       1.0  0.39750  0.05360  0.29760  1.0000 -0.5598006695
O   O25       1.0  0.50761  0.12269  0.31141  1.0000 -0.5685483636
O   O26       1.0  0.54673  0.20090  0.24633  1.0000 -0.7379173337
O   O27       1.0  0.99693  0.65952  0.31593  1.0000 -0.5516490786
O   O28       1.0  0.95196  0.57662  0.30626  1.0000 -0.5598006695
O   O29       1.0  0.24901  0.43617  0.67521  1.0000 -0.5598006695
O   O30       1.0  0.39343  0.38233  0.69003  1.0000 -0.5889703705
O   O31       1.0  0.57936  0.77016  0.69426  1.0000 -0.5598006695
O   O32       1.0  0.72692  0.77536  0.67412  1.0000 -0.5685483636
O   O33       1.0  0.80363  0.56971  0.18373  1.0000 -0.5598006695
O   O34       1.0  0.89266  0.64450  0.19216  1.0000 -0.5685483636
O   O35       1.0  0.69682  0.77722  0.81782  1.0000 -0.5988850145
O   O36       1.0  0.83417  0.75698  0.79457  1.0000 -0.5516490786
O   O37       1.0  0.39750  0.44640  0.79760  1.0000 -0.5598006695
O   O38       1.0  0.50761  0.37731  0.81141  1.0000 -0.5685483636
O   O39       1.0  0.54673  0.29910  0.74633  1.0000 -0.7379173337
O   O40       1.0  0.00307  0.15952  0.18407  1.0000 -0.5516490786
O   O41       1.0  0.04804  0.07662  0.19374  1.0000 -0.5598006695
O   O42       1.0  0.75099  0.93617  0.82479  1.0000 -0.5598006695
O   O43       1.0  0.60657  0.88233  0.80997  1.0000 -0.5889703705
O   O44       1.0  0.42064  0.27016  0.80574  1.0000 -0.5598006695
O   O45       1.0  0.27308  0.27536  0.82588  1.0000 -0.5685483636
O   O46       1.0  0.19637  0.06971  0.31627  1.0000 -0.5598006695
O   O47       1.0  0.10734  0.14450  0.30784  1.0000 -0.5685483636
O   O48       1.0  0.30318  0.27722  0.68218  1.0000 -0.5988850145
O   O49       1.0  0.16583  0.25698  0.70543  1.0000 -0.5516490786
O   O50       1.0  0.60250  0.94640  0.70240  1.0000 -0.5598006695
O   O51       1.0  0.49239  0.87731  0.68859  1.0000 -0.5685483636
O   O52       1.0  0.45327  0.79910  0.75367  1.0000 -0.7379173337
F   F1        1.0  0.25749  0.35596  0.75051  1.0000 -0.5889703705
F   F2        1.0  0.74251  0.85596  0.74949  1.0000 -0.5889703705
F   F3        1.0  0.74251  0.64404  0.24949  1.0000 -0.5889703705
F   F4        1.0  0.25749  0.14404  0.25051  1.0000 -0.5889703705
