# DDEC6 charges by PACMAN v1.1 (https://github.com/mtap-research/PACMAN-charge/)
data_2021[V][nan]3[ION]1
_chemical_formula_sum              "V4 H44 C32 N8 O20"
_cell_length_a       12.2439
_cell_length_b       12.2439
_cell_length_c       12.2439
_cell_angle_alpha    103.918
_cell_angle_beta     103.918
_cell_angle_gamma    121.26

_symmetry_space_group_name_H-M    "P 1"
_symmetry_Int_Tables_number       1

loop_
  _symmetry_equiv_pos_as_xyz
  'x, y, z'

loop_
  _atom_site_type_symbol
  _atom_site_label
  _atom_site_symmetry_multiplicity
  _atom_site_fract_x
  _atom_site_fract_y
  _atom_site_fract_z
  _atom_site_occupancy
  _atom_site_charge
V   V1        1.0  0.17900  0.82100  0.00000  1.0000 1.678096161
V   V2        1.0  0.82100  0.17900  0.00000  1.0000 1.678096161
V   V3        1.0  0.42900  0.92900  0.85800  1.0000 1.678096161
V   V4        1.0  0.07100  0.57100  0.14200  1.0000 1.678096161
H   H1        1.0  0.49780  0.30700  0.95780  1.0000 0.1102528629
H   H2        1.0  0.34920  0.54000  0.04220  1.0000 0.1102528629
H   H3        1.0  0.79000  0.24780  0.69080  1.0000 0.1102528629
H   H4        1.0  0.55700  0.09920  0.30920  1.0000 0.1102528629
H   H5        1.0  0.75220  0.21000  0.30920  1.0000 0.1102528629
H   H6        1.0  0.90080  0.44300  0.69080  1.0000 0.1102528629
H   H7        1.0  0.46000  0.65080  0.95780  1.0000 0.1102528629
H   H8        1.0  0.69300  0.50220  0.04220  1.0000 0.1102528629
H   H9        1.0  0.12260  0.12260  0.00000  1.0000 0.1102528629
H   H10       1.0  0.37260  0.87260  0.50000  1.0000 0.1102528629
H   H11       1.0  0.12740  0.62740  0.50000  1.0000 0.1102528629
H   H12       1.0  0.87740  0.87740  0.00000  1.0000 0.1102528629
H   H13       1.0  0.81700  0.79100  0.73000  1.0000 0.2013737659
H   H14       1.0  0.78130  0.65030  0.62900  1.0000 0.2700375102
H   H15       1.0  0.89720  0.72700  0.78220  1.0000 0.2955327488
H   H16       1.0  0.93590  0.80320  0.68550  1.0000 0.2350950993
H   H17       1.0  0.06100  0.08700  0.27000  1.0000 0.2013737659
H   H18       1.0  0.02130  0.15230  0.37100  1.0000 0.2700375102
H   H19       1.0  0.94480  0.11500  0.21780  1.0000 0.2955327488
H   H20       1.0  0.11770  0.25040  0.31450  1.0000 0.2347185469
H   H21       1.0  0.33700  0.56700  0.52600  1.0000 0.2013737659
H   H22       1.0  0.40230  0.53130  0.63100  1.0000 0.2700375102
H   H23       1.0  0.36500  0.64720  0.67020  1.0000 0.2955327488
H   H24       1.0  0.50040  0.68590  0.63270  1.0000 0.2350950993
H   H25       1.0  0.04100  0.81100  0.47400  1.0000 0.2013737659
H   H26       1.0  0.90030  0.77130  0.36900  1.0000 0.2700375102
H   H27       1.0  0.97700  0.69480  0.32980  1.0000 0.2955327488
H   H28       1.0  0.05320  0.86770  0.36730  1.0000 0.2347185469
H   H29       1.0  0.43300  0.66300  0.47400  1.0000 0.2013737659
H   H30       1.0  0.46870  0.59770  0.36900  1.0000 0.2700375102
H   H31       1.0  0.35280  0.63500  0.32980  1.0000 0.2955327488
H   H32       1.0  0.31410  0.49960  0.36730  1.0000 0.2347185469
H   H33       1.0  0.18900  0.95900  0.52600  1.0000 0.2013737659
H   H34       1.0  0.22870  0.09970  0.63100  1.0000 0.2700375102
H   H35       1.0  0.30520  0.02300  0.67020  1.0000 0.2955327488
H   H36       1.0  0.13230  0.94680  0.63270  1.0000 0.2347185469
H   H37       1.0  0.91300  0.93900  0.73000  1.0000 0.2013737659
H   H38       1.0  0.84770  0.97870  0.62900  1.0000 0.2700375102
H   H39       1.0  0.88500  0.05520  0.78220  1.0000 0.2955327488
H   H40       1.0  0.74960  0.88230  0.68550  1.0000 0.2350950993
H   H41       1.0  0.20900  0.18300  0.27000  1.0000 0.2013737659
H   H42       1.0  0.34970  0.21870  0.37100  1.0000 0.2700375102
H   H43       1.0  0.27300  0.10280  0.21780  1.0000 0.2955327488
H   H44       1.0  0.19680  0.06410  0.31450  1.0000 0.2347185469
C   C1        1.0  0.29300  0.06460  0.95100  1.0000 0.5318322039
C   C2        1.0  0.30830  0.19900  0.97590  1.0000 -0.0382332346
C   C3        1.0  0.42320  0.31390  0.97590  1.0000 -0.1827903085
C   C4        1.0  0.11360  0.34200  0.04900  1.0000 0.5318322039
C   C5        1.0  0.22310  0.33240  0.02410  1.0000 -0.0382332346
C   C6        1.0  0.33800  0.44730  0.02410  1.0000 -0.1827903085
C   C7        1.0  0.59200  0.04300  0.72840  1.0000 0.5318322039
C   C8        1.0  0.58240  0.05830  0.60930  1.0000 -0.0382332346
C   C9        1.0  0.69730  0.17320  0.60930  1.0000 -0.1827903085
C   C10       1.0  0.31460  0.86360  0.27160  1.0000 0.5318322039
C   C11       1.0  0.44900  0.97310  0.39070  1.0000 -0.0382332346
C   C12       1.0  0.56390  0.08800  0.39070  1.0000 -0.1827903085
C   C13       1.0  0.95700  0.40800  0.27160  1.0000 0.5318322039
C   C14       1.0  0.94170  0.41760  0.39070  1.0000 -0.0382332346
C   C15       1.0  0.82680  0.30270  0.39070  1.0000 -0.1827903085
C   C16       1.0  0.13640  0.68540  0.72840  1.0000 0.5318322039
C   C17       1.0  0.02690  0.55100  0.60930  1.0000 -0.0382332346
C   C18       1.0  0.91200  0.43610  0.60930  1.0000 -0.1827903085
C   C19       1.0  0.65800  0.88640  0.95100  1.0000 0.5318322039
C   C20       1.0  0.66760  0.77690  0.97590  1.0000 -0.0382332346
C   C21       1.0  0.55270  0.66200  0.97590  1.0000 -0.1827903085
C   C22       1.0  0.93540  0.70700  0.04900  1.0000 0.5318322039
C   C23       1.0  0.80100  0.69170  0.02410  1.0000 -0.0382332346
C   C24       1.0  0.68610  0.57680  0.02410  1.0000 -0.1827903085
C   C25       1.0  0.20820  0.20820  0.00000  1.0000 -0.1856178188
C   C26       1.0  0.43810  0.43810  0.00000  1.0000 0.0559033758
C   C27       1.0  0.45820  0.95820  0.50000  1.0000 -0.1856178188
C   C28       1.0  0.68810  0.18810  0.50000  1.0000 0.0559033758
C   C29       1.0  0.04180  0.54180  0.50000  1.0000 -0.1856178188
C   C30       1.0  0.81190  0.31190  0.50000  1.0000 0.0559033758
C   C31       1.0  0.79180  0.79180  0.00000  1.0000 -0.1856178188
C   C32       1.0  0.56190  0.56190  0.00000  1.0000 0.0559033758
N   N1        1.0  0.85900  0.74130  0.70830  1.0000 -0.7807171189
N   N2        1.0  0.03300  0.15070  0.29170  1.0000 -0.7807171189
N   N3        1.0  0.40070  0.60900  0.61770  1.0000 -0.7807171189
N   N4        1.0  0.99130  0.78300  0.38230  1.0000 -0.7807171189
N   N5        1.0  0.39100  0.59930  0.38230  1.0000 -0.7807171189
N   N6        1.0  0.21700  0.00870  0.61770  1.0000 -0.7807171189
N   N7        1.0  0.84930  0.96700  0.70830  1.0000 -0.7807171189
N   N8        1.0  0.25870  0.14100  0.29170  1.0000 -0.7807171189
O   O1        1.0  0.22750  0.98430  0.99480  1.0000 -0.5226445489
O   O2        1.0  0.34580  0.03370  0.88670  1.0000 -0.5323246264
O   O3        1.0  0.98950  0.23270  0.00520  1.0000 -0.5226445489
O   O4        1.0  0.14700  0.45910  0.11330  1.0000 -0.5323246264
O   O5        1.0  0.48270  0.97750  0.74320  1.0000 -0.5226445489
O   O6        1.0  0.70910  0.09580  0.81210  1.0000 -0.5323246264
O   O7        1.0  0.23430  0.73950  0.25680  1.0000 -0.5226445489
O   O8        1.0  0.28370  0.89700  0.18790  1.0000 -0.5323246264
O   O9        1.0  0.02250  0.51730  0.25680  1.0000 -0.5226445489
O   O10       1.0  0.90420  0.29090  0.18790  1.0000 -0.5323246264
O   O11       1.0  0.26050  0.76570  0.74320  1.0000 -0.5226445489
O   O12       1.0  0.10300  0.71630  0.81210  1.0000 -0.5323246264
O   O13       1.0  0.76730  0.01050  0.99480  1.0000 -0.5226445489
O   O14       1.0  0.54090  0.85300  0.88670  1.0000 -0.5323246264
O   O15       1.0  0.01570  0.77250  0.00520  1.0000 -0.5226445489
O   O16       1.0  0.96630  0.65420  0.11330  1.0000 -0.5323246264
O   O17       1.0  0.37880  0.87500  0.00380  1.0000 -0.8316855076
O   O18       1.0  0.87120  0.37500  0.99620  1.0000 -0.8316855076
O   O19       1.0  0.62500  0.12880  0.00380  1.0000 -0.8369138681
O   O20       1.0  0.12500  0.62120  0.99620  1.0000 -0.8316855076
