# DDEC6 charges by PACMAN v1.1 (https://github.com/mtap-research/PACMAN-charge/)
data_2021[CdCr][nan]3[ION]1
_chemical_formula_sum              "Cr2 Cd8 H148 C216 N24 O40"
_cell_length_a       16.3046
_cell_length_b       16.3046
_cell_length_c       24.82
_cell_angle_alpha    87.0763
_cell_angle_beta     92.9237
_cell_angle_gamma    84.2293

_symmetry_space_group_name_H-M    "P 1"
_symmetry_Int_Tables_number       1

loop_
  _symmetry_equiv_pos_as_xyz
  'x, y, z'

loop_
  _atom_site_type_symbol
  _atom_site_label
  _atom_site_symmetry_multiplicity
  _atom_site_fract_x
  _atom_site_fract_y
  _atom_site_fract_z
  _atom_site_occupancy
  _atom_site_charge
Cr  Cr1       1.0  0.41520  0.41520  0.75000  1.0000 1.6872051166
Cr  Cr2       1.0  0.58480  0.58480  0.25000  1.0000 1.6872051166
Cd  Cd1       1.0  0.39483  0.11949  0.17440  1.0000 0.9174703763
Cd  Cd2       1.0  0.08088  0.57518  0.73967  1.0000 0.9397626326
Cd  Cd3       1.0  0.11949  0.39483  0.32560  1.0000 0.9174703763
Cd  Cd4       1.0  0.57518  0.08088  0.76033  1.0000 0.9397626326
Cd  Cd5       1.0  0.60517  0.88051  0.82560  1.0000 0.9174703763
Cd  Cd6       1.0  0.91912  0.42482  0.26033  1.0000 0.9397626326
Cd  Cd7       1.0  0.88051  0.60517  0.67440  1.0000 0.9174703763
Cd  Cd8       1.0  0.42482  0.91912  0.23967  1.0000 0.9397626326
H   H1        1.0  0.54189  0.19211  0.18788  1.0000 0.3594664739
H   H2        1.0  0.48330  0.24330  0.21293  1.0000 0.351370524
H   H3        1.0  0.00542  0.44138  0.53173  1.0000 0.1185548409
H   H4        1.0  0.05687  0.31845  0.49789  1.0000 0.1185548409
H   H5        1.0  0.19777  0.17667  0.30414  1.0000 0.1292097851
H   H6        1.0  0.10888  0.22094  0.64792  1.0000 0.1107513255
H   H7        1.0  0.16053  0.21623  0.48051  1.0000 0.1107513255
H   H8        1.0  0.05871  0.34183  0.68243  1.0000 0.1185548409
H   H9        1.0  0.13355  0.17693  0.38473  1.0000 0.1185548409
H   H10       1.0  0.32057  0.31735  0.82751  1.0000 0.1185548409
H   H11       1.0  0.16753  0.97065  0.49058  1.0000 0.1185548409
H   H12       1.0  0.05842  0.89016  0.51258  1.0000 0.1107513255
H   H13       1.0  0.37913  0.17623  0.05059  1.0000 0.1185548409
H   H14       1.0  0.42183  0.18809  0.81107  1.0000 0.1107513255
H   H15       1.0  0.19828  0.34780  0.96409  1.0000 0.1417465774
H   H16       1.0  0.06394  0.10304  0.60605  1.0000 0.1185548409
H   H17       1.0  0.30931  0.00601  0.45103  1.0000 0.1107513255
H   H18       1.0  0.37534  0.00730  0.36980  1.0000 0.1107513255
H   H19       1.0  0.71125  0.20527  0.82865  1.0000 0.1292097851
H   H20       1.0  0.43513  0.25075  0.97287  1.0000 0.1417465774
H   H21       1.0  0.01777  0.77377  0.55608  1.0000 0.1107513255
H   H22       1.0  0.08634  0.27016  0.92051  1.0000 0.1185548409
H   H23       1.0  0.22907  0.45663  0.80964  1.0000 0.1107513255
H   H24       1.0  0.23055  0.45039  0.02705  1.0000 0.1292097851
H   H25       1.0  0.07916  0.85854  0.69903  1.0000 0.1292097851
H   H26       1.0  0.93869  0.44859  0.78623  1.0000 0.1467919231
H   H27       1.0  0.87151  0.36037  0.83978  1.0000 0.1107513255
H   H28       1.0  0.76717  0.27731  0.89817  1.0000 0.1107513255
H   H29       1.0  0.29376  0.32448  0.20173  1.0000 0.1292097851
H   H30       1.0  0.19606  0.52030  0.10318  1.0000 0.1107513255
H   H31       1.0  0.94234  0.27248  0.90682  1.0000 0.1036926601
H   H32       1.0  0.22471  0.45623  0.18999  1.0000 0.1036926601
H   H33       1.0  0.11312  0.97806  0.65638  1.0000 0.1185548409
H   H34       1.0  0.68462  0.34738  0.95653  1.0000 0.1185548409
H   H35       1.0  0.54062  0.34288  0.94955  1.0000 0.1292097851
H   H36       1.0  0.13488  0.63244  0.83964  1.0000 0.3435925947
H   H37       1.0  0.20401  0.62779  0.80894  1.0000 0.3594664739
H   H38       1.0  0.19211  0.54189  0.31212  1.0000 0.3594664739
H   H39       1.0  0.24330  0.48330  0.28707  1.0000 0.351370524
H   H40       1.0  0.44138  0.00542  0.96827  1.0000 0.1185548409
H   H41       1.0  0.31845  0.05687  0.00211  1.0000 0.1185548409
H   H42       1.0  0.17667  0.19777  0.19586  1.0000 0.1292097851
H   H43       1.0  0.22094  0.10888  0.85208  1.0000 0.1107513255
H   H44       1.0  0.21623  0.16053  0.01949  1.0000 0.1107513255
H   H45       1.0  0.34183  0.05871  0.81757  1.0000 0.1185548409
H   H46       1.0  0.17693  0.13355  0.11527  1.0000 0.1185548409
H   H47       1.0  0.31735  0.32057  0.67249  1.0000 0.1185548409
H   H48       1.0  0.97065  0.16753  0.00942  1.0000 0.1185548409
H   H49       1.0  0.89016  0.05842  0.98742  1.0000 0.1107513255
H   H50       1.0  0.17623  0.37913  0.44941  1.0000 0.1185548409
H   H51       1.0  0.18809  0.42183  0.68893  1.0000 0.1107513255
H   H52       1.0  0.34780  0.19828  0.53591  1.0000 0.1417465774
H   H53       1.0  0.10304  0.06394  0.89395  1.0000 0.1185548409
H   H54       1.0  0.00601  0.30931  0.04897  1.0000 0.1107513255
H   H55       1.0  0.00730  0.37534  0.13020  1.0000 0.1107513255
H   H56       1.0  0.20527  0.71125  0.67135  1.0000 0.1292097851
H   H57       1.0  0.25075  0.43513  0.52713  1.0000 0.1417465774
H   H58       1.0  0.77377  0.01777  0.94392  1.0000 0.1107513255
H   H59       1.0  0.27016  0.08634  0.57949  1.0000 0.1185548409
H   H60       1.0  0.45663  0.22907  0.69036  1.0000 0.1107513255
H   H61       1.0  0.45039  0.23055  0.47295  1.0000 0.1292097851
H   H62       1.0  0.85854  0.07916  0.80097  1.0000 0.1292097851
H   H63       1.0  0.44859  0.93869  0.71377  1.0000 0.1467919231
H   H64       1.0  0.36037  0.87151  0.66022  1.0000 0.1107513255
H   H65       1.0  0.27731  0.76717  0.60183  1.0000 0.1107513255
H   H66       1.0  0.32448  0.29376  0.29827  1.0000 0.1292097851
H   H67       1.0  0.52030  0.19606  0.39682  1.0000 0.1107513255
H   H68       1.0  0.27248  0.94234  0.59318  1.0000 0.1036926601
H   H69       1.0  0.45623  0.22471  0.31001  1.0000 0.1036926601
H   H70       1.0  0.97806  0.11312  0.84362  1.0000 0.1185548409
H   H71       1.0  0.34738  0.68462  0.54347  1.0000 0.1185548409
H   H72       1.0  0.34288  0.54062  0.55045  1.0000 0.1292097851
H   H73       1.0  0.63244  0.13488  0.66036  1.0000 0.3435925947
H   H74       1.0  0.62779  0.20401  0.69106  1.0000 0.3594664739
H   H75       1.0  0.45811  0.80789  0.81212  1.0000 0.3594664739
H   H76       1.0  0.51670  0.75670  0.78707  1.0000 0.351370524
H   H77       1.0  0.99458  0.55862  0.46827  1.0000 0.1185548409
H   H78       1.0  0.94313  0.68155  0.50211  1.0000 0.1185548409
H   H79       1.0  0.80223  0.82333  0.69586  1.0000 0.1292097851
H   H80       1.0  0.89112  0.77906  0.35208  1.0000 0.1107513255
H   H81       1.0  0.83947  0.78377  0.51949  1.0000 0.1107513255
H   H82       1.0  0.94129  0.65817  0.31757  1.0000 0.1185548409
H   H83       1.0  0.86645  0.82307  0.61527  1.0000 0.1185548409
H   H84       1.0  0.67943  0.68265  0.17249  1.0000 0.1185548409
H   H85       1.0  0.83247  0.02935  0.50942  1.0000 0.1185548409
H   H86       1.0  0.94158  0.10984  0.48742  1.0000 0.1107513255
H   H87       1.0  0.62087  0.82377  0.94941  1.0000 0.1185548409
H   H88       1.0  0.57817  0.81191  0.18893  1.0000 0.1107513255
H   H89       1.0  0.80172  0.65220  0.03591  1.0000 0.1417465774
H   H90       1.0  0.93606  0.89696  0.39395  1.0000 0.1185548409
H   H91       1.0  0.69069  0.99399  0.54897  1.0000 0.1107513255
H   H92       1.0  0.62466  0.99270  0.63020  1.0000 0.1107513255
H   H93       1.0  0.28875  0.79473  0.17135  1.0000 0.1292097851
H   H94       1.0  0.56487  0.74925  0.02713  1.0000 0.1417465774
H   H95       1.0  0.98223  0.22623  0.44392  1.0000 0.1107513255
H   H96       1.0  0.91366  0.72984  0.07949  1.0000 0.1185548409
H   H97       1.0  0.77093  0.54337  0.19036  1.0000 0.1107513255
H   H98       1.0  0.76945  0.54961  0.97295  1.0000 0.1292097851
H   H99       1.0  0.92084  0.14146  0.30097  1.0000 0.1292097851
H   H100      1.0  0.06131  0.55141  0.21377  1.0000 0.1467919231
H   H101      1.0  0.12849  0.63963  0.16022  1.0000 0.1107513255
H   H102      1.0  0.23283  0.72269  0.10183  1.0000 0.1107513255
H   H103      1.0  0.70624  0.67552  0.79827  1.0000 0.1292097851
H   H104      1.0  0.80394  0.47970  0.89682  1.0000 0.1107513255
H   H105      1.0  0.05766  0.72752  0.09318  1.0000 0.1036926601
H   H106      1.0  0.77529  0.54377  0.81001  1.0000 0.1036926601
H   H107      1.0  0.88688  0.02194  0.34362  1.0000 0.1185548409
H   H108      1.0  0.31538  0.65262  0.04347  1.0000 0.1185548409
H   H109      1.0  0.45938  0.65712  0.05045  1.0000 0.1292097851
H   H110      1.0  0.86512  0.36756  0.16036  1.0000 0.3435925947
H   H111      1.0  0.79599  0.37221  0.19106  1.0000 0.351370524
H   H112      1.0  0.80789  0.45811  0.68788  1.0000 0.3594664739
H   H113      1.0  0.75670  0.51670  0.71293  1.0000 0.351370524
H   H114      1.0  0.55862  0.99458  0.03173  1.0000 0.1185548409
H   H115      1.0  0.68155  0.94313  0.99789  1.0000 0.1185548409
H   H116      1.0  0.82333  0.80223  0.80414  1.0000 0.1292097851
H   H117      1.0  0.77906  0.89112  0.14792  1.0000 0.1107513255
H   H118      1.0  0.78377  0.83947  0.98051  1.0000 0.1107513255
H   H119      1.0  0.65817  0.94129  0.18243  1.0000 0.1185548409
H   H120      1.0  0.82307  0.86645  0.88473  1.0000 0.1185548409
H   H121      1.0  0.68265  0.67943  0.32751  1.0000 0.1185548409
H   H122      1.0  0.02935  0.83247  0.99058  1.0000 0.1185548409
H   H123      1.0  0.10984  0.94158  0.01258  1.0000 0.1107513255
H   H124      1.0  0.82377  0.62087  0.55059  1.0000 0.1185548409
H   H125      1.0  0.81191  0.57817  0.31107  1.0000 0.1107513255
H   H126      1.0  0.65220  0.80172  0.46409  1.0000 0.1417465774
H   H127      1.0  0.89696  0.93606  0.10605  1.0000 0.1185548409
H   H128      1.0  0.99399  0.69069  0.95103  1.0000 0.1107513255
H   H129      1.0  0.99270  0.62466  0.86980  1.0000 0.1107513255
H   H130      1.0  0.79473  0.28875  0.32865  1.0000 0.1292097851
H   H131      1.0  0.74925  0.56487  0.47287  1.0000 0.1417465774
H   H132      1.0  0.22623  0.98223  0.05608  1.0000 0.1185548409
H   H133      1.0  0.72984  0.91366  0.42051  1.0000 0.1185548409
H   H134      1.0  0.54337  0.77093  0.30964  1.0000 0.1107513255
H   H135      1.0  0.54961  0.76945  0.52705  1.0000 0.1292097851
H   H136      1.0  0.14146  0.92084  0.19903  1.0000 0.1292097851
H   H137      1.0  0.55141  0.06131  0.28623  1.0000 0.1467919231
H   H138      1.0  0.63963  0.12849  0.33978  1.0000 0.1107513255
H   H139      1.0  0.72269  0.23283  0.39817  1.0000 0.1107513255
H   H140      1.0  0.67552  0.70624  0.70173  1.0000 0.1292097851
H   H141      1.0  0.47970  0.80394  0.60318  1.0000 0.1107513255
H   H142      1.0  0.72752  0.05766  0.40682  1.0000 0.1036926601
H   H143      1.0  0.54377  0.77529  0.68999  1.0000 0.1036926601
H   H144      1.0  0.02194  0.88688  0.15638  1.0000 0.1185548409
H   H145      1.0  0.65262  0.31538  0.45653  1.0000 0.1185548409
H   H146      1.0  0.65712  0.45938  0.44955  1.0000 0.1292097851
H   H147      1.0  0.36756  0.86512  0.33964  1.0000 0.3435925947
H   H148      1.0  0.37221  0.79599  0.30894  1.0000 0.351370524
C   C1        1.0  0.02510  0.39690  0.55540  1.0000 -0.1002260065
C   C2        1.0  0.02400  0.40540  0.61100  1.0000 -0.0433526828
C   C3        1.0  0.05560  0.32240  0.53510  1.0000 -0.1586212494
C   C4        1.0  0.04400  0.80380  0.63180  1.0000 -0.0323598878
C   C5        1.0  0.17100  0.09300  0.47800  1.0000 0.0800766398
C   C6        1.0  0.08410  0.25410  0.56890  1.0000 0.0717971455
C   C7        1.0  0.21980  0.14220  0.33350  1.0000 -0.0812136053
C   C8        1.0  0.08660  0.26460  0.62440  1.0000 -0.1586212494
C   C9        1.0  0.14850  0.16810  0.49890  1.0000 -0.2020149126
C   C10       1.0  0.05700  0.33740  0.64520  1.0000 -0.1179712384
C   C11       1.0  0.21350  0.09030  0.42570  1.0000 0.0717971455
C   C12       1.0  0.18160  0.14200  0.38160  1.0000 -0.1366485401
C   C13       1.0  0.29290  0.08950  0.32930  1.0000 -0.0323598878
C   C14       1.0  0.08850  0.94790  0.58020  1.0000 0.0636477687
C   C15       1.0  0.38890  0.27990  0.89640  1.0000 0.2204851949
C   C16       1.0  0.98110  0.48010  0.63220  1.0000 0.5624305413
C   C17       1.0  0.31950  0.31270  0.86500  1.0000 -0.3029457672
C   C18       1.0  0.59350  0.22730  0.85080  1.0000 0.1467919231
C   C19       1.0  0.28570  0.34710  0.06930  1.0000 0.1036926601
C   C20       1.0  0.10810  0.17370  0.54730  1.0000 0.0717971455
C   C21       1.0  0.15230  0.02130  0.50470  1.0000 -0.2020149126
C   C22       1.0  0.30460  0.30920  0.12130  1.0000 0.1417465774
C   C23       1.0  0.06110  0.88490  0.55010  1.0000 -0.1503120754
C   C24       1.0  0.31770  0.29890  0.97690  1.0000 0.2084724859
C   C25       1.0  0.35280  0.22280  0.06490  1.0000 0.1292097851
C   C26       1.0  0.11070  0.02390  0.55260  1.0000 0.0800766398
C   C27       1.0  0.33700  0.09220  0.27800  1.0000 0.5767074035
C   C28       1.0  0.01950  0.72530  0.65910  1.0000 0.5767074035
C   C29       1.0  0.46780  0.20660  0.82850  1.0000 0.1107513255
C   C30       1.0  0.54500  0.26860  0.88690  1.0000 0.0885892169
C   C31       1.0  0.24620  0.33140  0.94700  1.0000 -0.2796466692
C   C32       1.0  0.24770  0.33870  0.89090  1.0000 0.2204851949
C   C33       1.0  0.09020  0.10060  0.57370  1.0000 -0.205879741
C   C34       1.0  0.28670  0.03990  0.42160  1.0000 -0.1586212494
C   C35       1.0  0.32610  0.04050  0.37270  1.0000 -0.1106438479
C   C36       1.0  0.67770  0.23110  0.85330  1.0000 -0.1586212494
C   C37       1.0  0.38810  0.27290  0.95230  1.0000 -0.2703866108
C   C38       1.0  0.09460  0.36140  0.86160  1.0000 0.0800766398
C   C39       1.0  0.03790  0.81450  0.57640  1.0000 -0.1002260065
C   C40       1.0  0.05660  0.30580  0.89440  1.0000 -0.180446246
C   C41       1.0  0.18060  0.43520  0.81910  1.0000 0.0800766398
C   C42       1.0  0.24370  0.42610  0.06160  1.0000 -0.1887083507
C   C43       1.0  0.07350  0.86530  0.66160  1.0000 -0.1002260065
C   C44       1.0  0.96780  0.41380  0.81300  1.0000 -0.1503120754
C   C45       1.0  0.92840  0.36080  0.84510  1.0000 -0.1106438479
C   C46       1.0  0.71030  0.27570  0.89450  1.0000 -0.1106438479
C   C47       1.0  0.28180  0.34960  0.16730  1.0000 -0.1684974297
C   C48       1.0  0.22250  0.46690  0.10700  1.0000 -0.1002260065
C   C49       1.0  0.97120  0.30720  0.88570  1.0000 -0.1106438479
C   C50       1.0  0.24080  0.42800  0.16000  1.0000 -0.1106438479
C   C51       1.0  0.05250  0.41370  0.82190  1.0000 0.1292097851
C   C52       1.0  0.09450  0.93670  0.63590  1.0000 -0.1503120754
C   C53       1.0  0.66080  0.31740  0.93010  1.0000 -0.1002260065
C   C54       1.0  0.57510  0.31470  0.92640  1.0000 -0.1684974297
C   C55       1.0  0.39690  0.02510  0.94460  1.0000 -0.1002260065
C   C56       1.0  0.40540  0.02400  0.88900  1.0000 -0.0433526828
C   C57       1.0  0.32240  0.05560  0.96490  1.0000 -0.1586212494
C   C58       1.0  0.80380  0.04400  0.86820  1.0000 -0.0323598878
C   C59       1.0  0.09300  0.17100  0.02200  1.0000 0.0800766398
C   C60       1.0  0.25410  0.08410  0.93110  1.0000 0.0717971455
C   C61       1.0  0.14220  0.21980  0.16650  1.0000 -0.0812136053
C   C62       1.0  0.26460  0.08660  0.87560  1.0000 -0.1586212494
C   C63       1.0  0.16810  0.14850  0.00110  1.0000 -0.2020149126
C   C64       1.0  0.33740  0.05700  0.85480  1.0000 -0.1179712384
C   C65       1.0  0.09030  0.21350  0.07430  1.0000 0.0717971455
C   C66       1.0  0.14200  0.18160  0.11840  1.0000 -0.1366485401
C   C67       1.0  0.08950  0.29290  0.17070  1.0000 -0.0323598878
C   C68       1.0  0.94790  0.08850  0.91980  1.0000 0.0636477687
C   C69       1.0  0.27990  0.38890  0.60360  1.0000 0.2204851949
C   C70       1.0  0.48010  0.98110  0.86780  1.0000 0.5624305413
C   C71       1.0  0.31270  0.31950  0.63500  1.0000 -0.3029457672
C   C72       1.0  0.22730  0.59350  0.64920  1.0000 0.1467919231
C   C73       1.0  0.34710  0.28570  0.43070  1.0000 0.1036926601
C   C74       1.0  0.17370  0.10810  0.95270  1.0000 0.0717971455
C   C75       1.0  0.02130  0.15230  0.99530  1.0000 -0.2020149126
C   C76       1.0  0.30920  0.30460  0.37870  1.0000 0.1417465774
C   C77       1.0  0.88490  0.06110  0.94990  1.0000 -0.1503120754
C   C78       1.0  0.29890  0.31770  0.52310  1.0000 0.2084724859
C   C79       1.0  0.22280  0.35280  0.43510  1.0000 0.1292097851
C   C80       1.0  0.02390  0.11070  0.94740  1.0000 0.0800766398
C   C81       1.0  0.09220  0.33700  0.22200  1.0000 0.5767074035
C   C82       1.0  0.72530  0.01950  0.84090  1.0000 0.5767074035
C   C83       1.0  0.20660  0.46780  0.67150  1.0000 0.1107513255
C   C84       1.0  0.26860  0.54500  0.61310  1.0000 0.0885892169
C   C85       1.0  0.33140  0.24620  0.55300  1.0000 -0.2796466692
C   C86       1.0  0.33870  0.24770  0.60910  1.0000 0.2204851949
C   C87       1.0  0.10060  0.09020  0.92630  1.0000 -0.205879741
C   C88       1.0  0.03990  0.28670  0.07840  1.0000 -0.1586212494
C   C89       1.0  0.04050  0.32610  0.12730  1.0000 -0.1106438479
C   C90       1.0  0.23110  0.67770  0.64670  1.0000 -0.1586212494
C   C91       1.0  0.27290  0.38810  0.54770  1.0000 -0.2703866108
C   C92       1.0  0.36140  0.09460  0.63840  1.0000 0.0800766398
C   C93       1.0  0.81450  0.03790  0.92360  1.0000 -0.1002260065
C   C94       1.0  0.30580  0.05660  0.60560  1.0000 -0.180446246
C   C95       1.0  0.43520  0.18060  0.68090  1.0000 0.0800766398
C   C96       1.0  0.42610  0.24370  0.43840  1.0000 -0.1887083507
C   C97       1.0  0.86530  0.07350  0.83840  1.0000 -0.1002260065
C   C98       1.0  0.41380  0.96780  0.68700  1.0000 -0.1503120754
C   C99       1.0  0.36080  0.92840  0.65490  1.0000 -0.1106438479
C   C100      1.0  0.27570  0.71030  0.60550  1.0000 -0.1106438479
C   C101      1.0  0.34960  0.28180  0.33270  1.0000 -0.1684974297
C   C102      1.0  0.46690  0.22250  0.39300  1.0000 -0.1002260065
C   C103      1.0  0.30720  0.97120  0.61430  1.0000 -0.1106438479
C   C104      1.0  0.42800  0.24080  0.34000  1.0000 -0.1106438479
C   C105      1.0  0.41370  0.05250  0.67810  1.0000 0.1292097851
C   C106      1.0  0.93670  0.09450  0.86410  1.0000 -0.1503120754
C   C107      1.0  0.31740  0.66080  0.56990  1.0000 -0.1002260065
C   C108      1.0  0.31470  0.57510  0.57360  1.0000 -0.180446246
C   C109      1.0  0.97490  0.60310  0.44460  1.0000 -0.1002260065
C   C110      1.0  0.97600  0.59460  0.38900  1.0000 -0.0433526828
C   C111      1.0  0.94440  0.67760  0.46490  1.0000 -0.1586212494
C   C112      1.0  0.95600  0.19620  0.36820  1.0000 -0.0323598878
C   C113      1.0  0.82900  0.90700  0.52200  1.0000 0.0800766398
C   C114      1.0  0.91590  0.74590  0.43110  1.0000 0.0717971455
C   C115      1.0  0.78020  0.85780  0.66650  1.0000 -0.0812136053
C   C116      1.0  0.91340  0.73540  0.37560  1.0000 -0.1586212494
C   C117      1.0  0.85150  0.83190  0.50110  1.0000 -0.2020149126
C   C118      1.0  0.94300  0.66260  0.35480  1.0000 -0.1179712384
C   C119      1.0  0.78650  0.90970  0.57430  1.0000 0.0717971455
C   C120      1.0  0.81840  0.85800  0.61840  1.0000 -0.1366485401
C   C121      1.0  0.70710  0.91050  0.67070  1.0000 -0.0323598878
C   C122      1.0  0.91150  0.05210  0.41980  1.0000 0.0636477687
C   C123      1.0  0.61110  0.72010  0.10360  1.0000 0.2204851949
C   C124      1.0  0.01890  0.51990  0.36780  1.0000 0.5624305413
C   C125      1.0  0.68050  0.68730  0.13500  1.0000 -0.3029457672
C   C126      1.0  0.40650  0.77270  0.14920  1.0000 0.1467919231
C   C127      1.0  0.71430  0.65290  0.93070  1.0000 0.1036926601
C   C128      1.0  0.89190  0.82630  0.45270  1.0000 0.0717971455
C   C129      1.0  0.84770  0.97870  0.49530  1.0000 -0.2020149126
C   C130      1.0  0.69540  0.69080  0.87870  1.0000 0.1417465774
C   C131      1.0  0.93890  0.11510  0.44990  1.0000 -0.1503120754
C   C132      1.0  0.68230  0.70110  0.02310  1.0000 0.2084724859
C   C133      1.0  0.64720  0.77720  0.93510  1.0000 0.1292097851
C   C134      1.0  0.88930  0.97610  0.44740  1.0000 0.0800766398
C   C135      1.0  0.66300  0.90780  0.72200  1.0000 0.5767074035
C   C136      1.0  0.98050  0.27470  0.34090  1.0000 0.5767074035
C   C137      1.0  0.53220  0.79340  0.17150  1.0000 0.1107513255
C   C138      1.0  0.45500  0.73140  0.11310  1.0000 0.0885892169
C   C139      1.0  0.75380  0.66860  0.05300  1.0000 -0.2796466692
C   C140      1.0  0.75230  0.66130  0.10910  1.0000 0.2204851949
C   C141      1.0  0.90980  0.89940  0.42630  1.0000 -0.205879741
C   C142      1.0  0.71330  0.96010  0.57840  1.0000 -0.1586212494
C   C143      1.0  0.67390  0.95950  0.62730  1.0000 -0.1106438479
C   C144      1.0  0.32230  0.76890  0.14670  1.0000 -0.1586212494
C   C145      1.0  0.61190  0.72710  0.04770  1.0000 -0.2703866108
C   C146      1.0  0.90540  0.63860  0.13840  1.0000 0.0800766398
C   C147      1.0  0.96210  0.18550  0.42360  1.0000 -0.1002260065
C   C148      1.0  0.94340  0.69420  0.10560  1.0000 -0.180446246
C   C149      1.0  0.81940  0.56480  0.18090  1.0000 0.0800766398
C   C150      1.0  0.75630  0.57390  0.93840  1.0000 -0.1887083507
C   C151      1.0  0.92650  0.13470  0.33840  1.0000 -0.1002260065
C   C152      1.0  0.03220  0.58620  0.18700  1.0000 -0.1503120754
C   C153      1.0  0.07160  0.63920  0.15490  1.0000 -0.1106438479
C   C154      1.0  0.28970  0.72430  0.10550  1.0000 -0.1106438479
C   C155      1.0  0.71820  0.65040  0.83270  1.0000 -0.1684974297
C   C156      1.0  0.77750  0.53310  0.89300  1.0000 -0.1002260065
C   C157      1.0  0.02880  0.69280  0.11430  1.0000 -0.1106438479
C   C158      1.0  0.75920  0.57200  0.84000  1.0000 -0.1106438479
C   C159      1.0  0.94750  0.58630  0.17810  1.0000 0.1292097851
C   C160      1.0  0.90550  0.06330  0.36410  1.0000 -0.1503120754
C   C161      1.0  0.33920  0.68260  0.06990  1.0000 -0.1002260065
C   C162      1.0  0.42490  0.68530  0.07360  1.0000 -0.180446246
C   C163      1.0  0.60310  0.97490  0.05540  1.0000 -0.1002260065
C   C164      1.0  0.59460  0.97600  0.11100  1.0000 -0.0433526828
C   C165      1.0  0.67760  0.94440  0.03510  1.0000 -0.1586212494
C   C166      1.0  0.19620  0.95600  0.13180  1.0000 -0.0323598878
C   C167      1.0  0.90700  0.82900  0.97800  1.0000 0.0800766398
C   C168      1.0  0.74590  0.91590  0.06890  1.0000 0.0717971455
C   C169      1.0  0.85780  0.78020  0.83350  1.0000 -0.0812136053
C   C170      1.0  0.73540  0.91340  0.12440  1.0000 -0.1586212494
C   C171      1.0  0.83190  0.85150  0.99890  1.0000 -0.2020149126
C   C172      1.0  0.66260  0.94300  0.14520  1.0000 -0.1179712384
C   C173      1.0  0.90970  0.78650  0.92570  1.0000 0.0717971455
C   C174      1.0  0.85800  0.81840  0.88160  1.0000 -0.1366485401
C   C175      1.0  0.91050  0.70710  0.82930  1.0000 -0.0323598878
C   C176      1.0  0.05210  0.91150  0.08020  1.0000 0.0636477687
C   C177      1.0  0.72010  0.61110  0.39640  1.0000 0.2204851949
C   C178      1.0  0.51990  0.01890  0.13220  1.0000 0.5624305413
C   C179      1.0  0.68730  0.68050  0.36500  1.0000 -0.3029457672
C   C180      1.0  0.77270  0.40650  0.35080  1.0000 0.1467919231
C   C181      1.0  0.65290  0.71430  0.56930  1.0000 0.1036926601
C   C182      1.0  0.82630  0.89190  0.04730  1.0000 0.0717971455
C   C183      1.0  0.97870  0.84770  0.00470  1.0000 -0.2020149126
C   C184      1.0  0.69080  0.69540  0.62130  1.0000 0.1417465774
C   C185      1.0  0.11510  0.93890  0.05010  1.0000 -0.1503120754
C   C186      1.0  0.70110  0.68230  0.47690  1.0000 0.2084724859
C   C187      1.0  0.77720  0.64720  0.56490  1.0000 0.1292097851
C   C188      1.0  0.97610  0.88930  0.05260  1.0000 0.0800766398
C   C189      1.0  0.90780  0.66300  0.77800  1.0000 0.5767074035
C   C190      1.0  0.27470  0.98050  0.15910  1.0000 0.5767074035
C   C191      1.0  0.79340  0.53220  0.32850  1.0000 0.1107513255
C   C192      1.0  0.73140  0.45500  0.38690  1.0000 0.0885892169
C   C193      1.0  0.66860  0.75380  0.44700  1.0000 -0.2796466692
C   C194      1.0  0.66130  0.75230  0.39090  1.0000 0.2204851949
C   C195      1.0  0.89940  0.90980  0.07370  1.0000 -0.205879741
C   C196      1.0  0.96010  0.71330  0.92160  1.0000 -0.1586212494
C   C197      1.0  0.95950  0.67390  0.87270  1.0000 -0.1106438479
C   C198      1.0  0.76890  0.32230  0.35330  1.0000 -0.1586212494
C   C199      1.0  0.72710  0.61190  0.45230  1.0000 -0.2703866108
C   C200      1.0  0.63860  0.90540  0.36160  1.0000 0.0800766398
C   C201      1.0  0.18550  0.96210  0.07640  1.0000 -0.1002260065
C   C202      1.0  0.69420  0.94340  0.39440  1.0000 -0.180446246
C   C203      1.0  0.56480  0.81940  0.31910  1.0000 0.0800766398
C   C204      1.0  0.57390  0.75630  0.56160  1.0000 -0.1887083507
C   C205      1.0  0.13470  0.92650  0.16160  1.0000 -0.1002260065
C   C206      1.0  0.58620  0.03220  0.31300  1.0000 -0.1503120754
C   C207      1.0  0.63920  0.07160  0.34510  1.0000 -0.1106438479
C   C208      1.0  0.72430  0.28970  0.39450  1.0000 -0.1106438479
C   C209      1.0  0.65040  0.71820  0.66730  1.0000 -0.1684974297
C   C210      1.0  0.53310  0.77750  0.60700  1.0000 -0.1002260065
C   C211      1.0  0.69280  0.02880  0.38570  1.0000 -0.1106438479
C   C212      1.0  0.57200  0.75920  0.66000  1.0000 -0.1106438479
C   C213      1.0  0.58630  0.94750  0.32190  1.0000 0.1292097851
C   C214      1.0  0.06330  0.90550  0.13590  1.0000 -0.1503120754
C   C215      1.0  0.68260  0.33920  0.43010  1.0000 -0.1002260065
C   C216      1.0  0.68530  0.42490  0.42640  1.0000 -0.180446246
N   N1        1.0  0.31730  0.29090  0.03380  1.0000 -0.0654976933
N   N2        1.0  0.46260  0.25380  0.87080  1.0000 -0.0493414832
N   N3        1.0  0.54340  0.18860  0.81370  1.0000 -0.3653305962
N   N4        1.0  0.17770  0.37550  0.85870  1.0000 -0.0493414832
N   N5        1.0  0.34560  0.23060  0.11640  1.0000 -0.3525521948
N   N6        1.0  0.10820  0.45940  0.79550  1.0000 -0.3653305962
N   N7        1.0  0.29090  0.31730  0.46620  1.0000 -0.0654976933
N   N8        1.0  0.25380  0.46260  0.62920  1.0000 -0.0493414832
N   N9        1.0  0.18860  0.54340  0.68630  1.0000 -0.3653305962
N   N10       1.0  0.37550  0.17770  0.64130  1.0000 -0.0493414832
N   N11       1.0  0.23060  0.34560  0.38360  1.0000 -0.3525521948
N   N12       1.0  0.45940  0.10820  0.70450  1.0000 -0.3645770892
N   N13       1.0  0.68270  0.70910  0.96620  1.0000 -0.0654976933
N   N14       1.0  0.53740  0.74620  0.12920  1.0000 -0.0493414832
N   N15       1.0  0.45660  0.81140  0.18630  1.0000 -0.3645770892
N   N16       1.0  0.82230  0.62450  0.14130  1.0000 -0.0493414832
N   N17       1.0  0.65440  0.76940  0.88360  1.0000 -0.3525521948
N   N18       1.0  0.89180  0.54060  0.20450  1.0000 -0.3653305962
N   N19       1.0  0.70910  0.68270  0.53380  1.0000 -0.0654976933
N   N20       1.0  0.74620  0.53740  0.37080  1.0000 -0.0493414832
N   N21       1.0  0.81140  0.45660  0.31370  1.0000 -0.3645770892
N   N22       1.0  0.62450  0.82230  0.35870  1.0000 -0.0493414832
N   N23       1.0  0.76940  0.65440  0.61640  1.0000 -0.3525521948
N   N24       1.0  0.54060  0.89180  0.29550  1.0000 -0.3645770892
O   O1        1.0  0.30890  0.14450  0.24030  1.0000 -0.5380017876
O   O2        1.0  0.05520  0.70520  0.70570  1.0000 -0.5670359179
O   O3        1.0  0.40220  0.04500  0.27380  1.0000 -0.5842876627
O   O4        1.0  0.92320  0.52040  0.60370  1.0000 -0.5519414885
O   O5        1.0  0.96800  0.68760  0.63420  1.0000 -0.5628404661
O   O6        1.0  0.99840  0.49740  0.68050  1.0000 -0.5909940793
O   O7        1.0  0.50020  0.18960  0.21020  1.0000 -0.6609489961
O   O8        1.0  0.15030  0.64530  0.80640  1.0000 -0.6430302455
O   O9        1.0  0.14450  0.30890  0.25970  1.0000 -0.5380017876
O   O10       1.0  0.70520  0.05520  0.79430  1.0000 -0.5670359179
O   O11       1.0  0.04500  0.40220  0.22620  1.0000 -0.5842876627
O   O12       1.0  0.52040  0.92320  0.89630  1.0000 -0.5519414885
O   O13       1.0  0.68760  0.96800  0.86580  1.0000 -0.5628404661
O   O14       1.0  0.49740  0.99840  0.81950  1.0000 -0.5909940793
O   O15       1.0  0.18960  0.50020  0.28980  1.0000 -0.6609489961
O   O16       1.0  0.64530  0.15030  0.69360  1.0000 -0.6430302455
O   O17       1.0  0.69110  0.85550  0.75970  1.0000 -0.5380017876
O   O18       1.0  0.94480  0.29480  0.29430  1.0000 -0.5670359179
O   O19       1.0  0.59780  0.95500  0.72620  1.0000 -0.5842876627
O   O20       1.0  0.07680  0.47960  0.39630  1.0000 -0.5519414885
O   O21       1.0  0.03200  0.31240  0.36580  1.0000 -0.5628404661
O   O22       1.0  0.00160  0.50260  0.31950  1.0000 -0.5909940793
O   O23       1.0  0.49980  0.81040  0.78980  1.0000 -0.6609489961
O   O24       1.0  0.84970  0.35470  0.19360  1.0000 -0.6430302455
O   O25       1.0  0.85550  0.69110  0.74030  1.0000 -0.5380017876
O   O26       1.0  0.29480  0.94480  0.20570  1.0000 -0.5670359179
O   O27       1.0  0.95500  0.59780  0.77380  1.0000 -0.5842876627
O   O28       1.0  0.47960  0.07680  0.10370  1.0000 -0.5519414885
O   O29       1.0  0.31240  0.03200  0.13420  1.0000 -0.5628404661
O   O30       1.0  0.50260  0.00160  0.18050  1.0000 -0.5909940793
O   O31       1.0  0.81040  0.49980  0.71020  1.0000 -0.6609489961
O   O32       1.0  0.35470  0.84970  0.30640  1.0000 -0.6430302455
O   O33       1.0  0.48640  0.36940  0.70280  1.0000 -0.6171577467
O   O34       1.0  0.40570  0.52770  0.73000  1.0000 -0.5380017876
O   O35       1.0  0.36940  0.48640  0.79720  1.0000 -0.6171577467
O   O36       1.0  0.52770  0.40570  0.77000  1.0000 -0.5380017876
O   O37       1.0  0.51360  0.63060  0.29720  1.0000 -0.6171577467
O   O38       1.0  0.59430  0.47230  0.27000  1.0000 -0.5380017876
O   O39       1.0  0.63060  0.51360  0.20280  1.0000 -0.6171577467
O   O40       1.0  0.47230  0.59430  0.23000  1.0000 -0.5380017876
