# DDEC6 charges by PACMAN v1.1 (https://github.com/mtap-research/PACMAN-charge/)
data_2021[Zn][ins]3[ION]1
_chemical_formula_sum              "Zn8 P8 H64 C28 N4 O44"
_cell_length_a       6.4376
_cell_length_b       23.0649
_cell_length_c       11.6616
_cell_angle_alpha    90
_cell_angle_beta     104.128
_cell_angle_gamma    90

_symmetry_space_group_name_H-M    "P 1"
_symmetry_Int_Tables_number       1

loop_
  _symmetry_equiv_pos_as_xyz
  'x, y, z'

loop_
  _atom_site_type_symbol
  _atom_site_label
  _atom_site_symmetry_multiplicity
  _atom_site_fract_x
  _atom_site_fract_y
  _atom_site_fract_z
  _atom_site_occupancy
  _atom_site_charge
Zn  Zn1       1.0  0.97649  0.29769  0.99906  1.0000 0.9829379337
Zn  Zn2       1.0  0.59256  0.28513  0.78195  1.0000 1.0499830263
Zn  Zn3       1.0  0.02351  0.79769  0.50094  1.0000 0.9829379337
Zn  Zn4       1.0  0.40744  0.78513  0.71805  1.0000 1.0499830263
Zn  Zn5       1.0  0.02351  0.70231  0.00094  1.0000 0.9829379337
Zn  Zn6       1.0  0.40744  0.71487  0.21805  1.0000 1.0499830263
Zn  Zn7       1.0  0.97649  0.20231  0.49906  1.0000 0.9829379337
Zn  Zn8       1.0  0.59256  0.21487  0.28195  1.0000 1.0499830263
P   P1        1.0  0.05672  0.27093  0.73212  1.0000 1.2048098164
P   P2        1.0  0.69021  0.30865  0.52422  1.0000 1.2371361273
P   P3        1.0  0.94328  0.77093  0.76788  1.0000 1.2048098164
P   P4        1.0  0.30979  0.80865  0.97578  1.0000 1.2371361273
P   P5        1.0  0.94328  0.72907  0.26788  1.0000 1.2048098164
P   P6        1.0  0.30979  0.69135  0.47578  1.0000 1.2371361273
P   P7        1.0  0.05672  0.22907  0.23212  1.0000 1.2048098164
P   P8        1.0  0.69021  0.19135  0.02422  1.0000 1.2371361273
H   H1        1.0  0.30144  0.43962  0.85931  1.0000 0.1276097315
H   H2        1.0  0.84909  0.47686  0.08709  1.0000 0.1227406281
H   H3        1.0  0.98267  0.40842  0.58254  1.0000 0.141936073
H   H4        1.0  0.92530  0.39224  0.70171  1.0000 0.145913692
H   H5        1.0  0.16226  0.38683  0.69044  1.0000 0.141936073
H   H6        1.0  0.70800  0.19980  0.71400  1.0000 0.3325150253
H   H7        1.0  0.59692  0.18262  0.79428  1.0000 0.3430309909
H   H8        1.0  0.23054  0.30631  0.55363  1.0000 0.3582652526
H   H9        1.0  0.27933  0.30746  0.94544  1.0000 0.3890587556
H   H10       1.0  0.39297  0.31646  0.07709  1.0000 0.3890587556
H   H11       1.0  0.69856  0.93962  0.64069  1.0000 0.1276097315
H   H12       1.0  0.15091  0.97686  0.41291  1.0000 0.1227406281
H   H13       1.0  0.01733  0.90842  0.91746  1.0000 0.141936073
H   H14       1.0  0.07470  0.89224  0.79829  1.0000 0.145913692
H   H15       1.0  0.83774  0.88683  0.80956  1.0000 0.141936073
H   H16       1.0  0.29200  0.69980  0.78600  1.0000 0.3325150253
H   H17       1.0  0.40308  0.68262  0.70572  1.0000 0.3430309909
H   H18       1.0  0.76946  0.80631  0.94637  1.0000 0.3582652526
H   H19       1.0  0.72067  0.80746  0.55456  1.0000 0.3890587556
H   H20       1.0  0.60703  0.81646  0.42291  1.0000 0.3890587556
H   H21       1.0  0.69856  0.56038  0.14069  1.0000 0.1276097315
H   H22       1.0  0.15091  0.52314  0.91291  1.0000 0.1227406281
H   H23       1.0  0.01733  0.59158  0.41746  1.0000 0.141936073
H   H24       1.0  0.07470  0.60776  0.29829  1.0000 0.145913692
H   H25       1.0  0.83774  0.61317  0.30956  1.0000 0.141936073
H   H26       1.0  0.29200  0.80020  0.28600  1.0000 0.3325150253
H   H27       1.0  0.40308  0.81738  0.20572  1.0000 0.3430309909
H   H28       1.0  0.76946  0.69369  0.44637  1.0000 0.3582652526
H   H29       1.0  0.72067  0.69254  0.05456  1.0000 0.3890587556
H   H30       1.0  0.60703  0.68354  0.92291  1.0000 0.3890587556
H   H31       1.0  0.30144  0.06038  0.35931  1.0000 0.1276097315
H   H32       1.0  0.84909  0.02314  0.58709  1.0000 0.1227406281
H   H33       1.0  0.98267  0.09158  0.08254  1.0000 0.141936073
H   H34       1.0  0.92530  0.10776  0.20171  1.0000 0.145913692
H   H35       1.0  0.16226  0.11317  0.19044  1.0000 0.141936073
H   H36       1.0  0.70800  0.30020  0.21400  1.0000 0.3325150253
H   H37       1.0  0.59692  0.31738  0.29428  1.0000 0.3430309909
H   H38       1.0  0.23054  0.19369  0.05363  1.0000 0.3582652526
H   H39       1.0  0.27933  0.19254  0.44544  1.0000 0.3890587556
H   H40       1.0  0.39297  0.18354  0.57709  1.0000 0.3890587556
H   H41       1.0  0.15968  0.06699  0.65263  1.0000 0.0915306079
H   H42       1.0  0.30852  0.03402  0.75913  1.0000 0.0997166251
H   H43       1.0  0.39870  0.08631  0.70025  1.0000 0.0997166251
H   H44       1.0  0.16133  0.14423  0.76823  1.0000 0.2873805704
H   H45       1.0  0.32183  0.11912  0.86524  1.0000 0.2873805704
H   H46       1.0  0.10650  0.09521  0.83344  1.0000 0.2624374198
H   H47       1.0  0.84032  0.56699  0.84737  1.0000 0.0915306079
H   H48       1.0  0.69148  0.53402  0.74087  1.0000 0.0997166251
H   H49       1.0  0.60130  0.58631  0.79975  1.0000 0.0997166251
H   H50       1.0  0.83867  0.64423  0.73177  1.0000 0.2873805704
H   H51       1.0  0.67817  0.61912  0.63476  1.0000 0.2873805704
H   H52       1.0  0.89350  0.59521  0.66656  1.0000 0.2624374198
H   H53       1.0  0.84032  0.93301  0.34737  1.0000 0.0915306079
H   H54       1.0  0.69148  0.96598  0.24087  1.0000 0.0997166251
H   H55       1.0  0.60130  0.91369  0.29975  1.0000 0.0997166251
H   H56       1.0  0.83867  0.85577  0.23177  1.0000 0.2873805704
H   H57       1.0  0.67817  0.88088  0.13476  1.0000 0.2873805704
H   H58       1.0  0.89350  0.90479  0.16656  1.0000 0.2624374198
H   H59       1.0  0.15968  0.43301  0.15263  1.0000 0.0915306079
H   H60       1.0  0.30852  0.46598  0.25913  1.0000 0.0997166251
H   H61       1.0  0.39870  0.41369  0.20025  1.0000 0.0997166251
H   H62       1.0  0.16133  0.35577  0.26823  1.0000 0.2873805704
H   H63       1.0  0.32183  0.38088  0.36524  1.0000 0.2873805704
H   H64       1.0  0.10650  0.40479  0.33344  1.0000 0.2624374198
C   C1        1.0  0.68440  0.39426  0.93580  1.0000 0.5851498859
C   C2        1.0  0.58970  0.44956  0.96800  1.0000 -0.0258963929
C   C3        1.0  0.38330  0.46380  0.91670  1.0000 -0.0945317803
C   C4        1.0  0.70720  0.48580  0.05140  1.0000 -0.1075129864
C   C5        1.0  0.97190  0.32069  0.60710  1.0000 -0.1681021286
C   C6        1.0  0.01440  0.38274  0.64930  1.0000 -0.4217897115
C   C7        1.0  0.31560  0.89426  0.56420  1.0000 0.5851498859
C   C8        1.0  0.41030  0.94956  0.53200  1.0000 -0.0258963929
C   C9        1.0  0.61670  0.96380  0.58330  1.0000 -0.0945317803
C   C10       1.0  0.29280  0.98580  0.44860  1.0000 -0.1075129864
C   C11       1.0  0.02810  0.82069  0.89290  1.0000 -0.1681021286
C   C12       1.0  0.98560  0.88274  0.85070  1.0000 -0.4217897115
C   C13       1.0  0.31560  0.60574  0.06420  1.0000 0.5851498859
C   C14       1.0  0.41030  0.55044  0.03200  1.0000 -0.0258963929
C   C15       1.0  0.61670  0.53620  0.08330  1.0000 -0.0945317803
C   C16       1.0  0.29280  0.51420  0.94860  1.0000 -0.1075129864
C   C17       1.0  0.02810  0.67931  0.39290  1.0000 -0.1681021286
C   C18       1.0  0.98560  0.61726  0.35070  1.0000 -0.4217897115
C   C19       1.0  0.68440  0.10574  0.43580  1.0000 0.5851498859
C   C20       1.0  0.58970  0.05044  0.46800  1.0000 -0.0258963929
C   C21       1.0  0.38330  0.03620  0.41670  1.0000 -0.0945317803
C   C22       1.0  0.70720  0.01420  0.55140  1.0000 -0.1075129864
C   C23       1.0  0.97190  0.17931  0.10710  1.0000 -0.1681021286
C   C24       1.0  0.01440  0.11726  0.14930  1.0000 -0.4217897115
C   C25       1.0  0.27490  0.07120  0.72210  1.0000 -0.2252923009
C   C26       1.0  0.72510  0.57120  0.77790  1.0000 -0.2252923009
C   C27       1.0  0.72510  0.92880  0.27790  1.0000 -0.2252923009
C   C28       1.0  0.27490  0.42880  0.22210  1.0000 -0.2252923009
N   N1        1.0  0.20960  0.11144  0.80560  1.0000 -0.3722273765
N   N2        1.0  0.79040  0.61144  0.69440  1.0000 -0.3722273765
N   N3        1.0  0.79040  0.88856  0.19440  1.0000 -0.3722273765
N   N4        1.0  0.20960  0.38856  0.30560  1.0000 -0.3722273765
O   O1        1.0  0.92220  0.28591  0.81910  1.0000 -0.7758630497
O   O2        1.0  0.28970  0.27962  0.78880  1.0000 -0.7306500656
O   O3        1.0  0.00820  0.21023  0.68000  1.0000 -0.7466877682
O   O4        1.0  0.54870  0.31176  0.61140  1.0000 -0.74442756
O   O5        1.0  0.68890  0.24855  0.46930  1.0000 -0.7709236128
O   O6        1.0  0.63060  0.35579  0.43070  1.0000 -0.7098821782
O   O7        1.0  0.09600  0.30418  0.52220  1.0000 -0.4714718966
O   O8        1.0  0.85370  0.37685  0.00550  1.0000 -0.5186287148
O   O9        1.0  0.58650  0.36955  0.84280  1.0000 -0.5186287148
O   O10       1.0  0.60190  0.19468  0.72200  1.0000 -0.570311336
O   O11       1.0  0.28670  0.31976  0.01430  1.0000 -0.7049510462
O   O12       1.0  0.07780  0.78591  0.68090  1.0000 -0.7758630497
O   O13       1.0  0.71030  0.77962  0.71120  1.0000 -0.7306500656
O   O14       1.0  0.99180  0.71023  0.82000  1.0000 -0.7466877682
O   O15       1.0  0.45130  0.81176  0.88860  1.0000 -0.74442756
O   O16       1.0  0.31110  0.74855  0.03070  1.0000 -0.7709236128
O   O17       1.0  0.36940  0.85579  0.06930  1.0000 -0.7098821782
O   O18       1.0  0.90400  0.80418  0.97780  1.0000 -0.4714718966
O   O19       1.0  0.14630  0.87685  0.49450  1.0000 -0.5186287148
O   O20       1.0  0.41350  0.86955  0.65720  1.0000 -0.5186287148
O   O21       1.0  0.39810  0.69468  0.77800  1.0000 -0.570311336
O   O22       1.0  0.71330  0.81976  0.48570  1.0000 -0.7098821782
O   O23       1.0  0.07780  0.71409  0.18090  1.0000 -0.7758630497
O   O24       1.0  0.71030  0.72038  0.21120  1.0000 -0.7306500656
O   O25       1.0  0.99180  0.78977  0.32000  1.0000 -0.7466877682
O   O26       1.0  0.45130  0.68824  0.38860  1.0000 -0.74442756
O   O27       1.0  0.31110  0.75145  0.53070  1.0000 -0.7709236128
O   O28       1.0  0.36940  0.64421  0.56930  1.0000 -0.7098821782
O   O29       1.0  0.90400  0.69582  0.47780  1.0000 -0.4714718966
O   O30       1.0  0.14630  0.62315  0.99450  1.0000 -0.5186287148
O   O31       1.0  0.41350  0.63045  0.15720  1.0000 -0.5186287148
O   O32       1.0  0.39810  0.80532  0.27800  1.0000 -0.570311336
O   O33       1.0  0.71330  0.68024  0.98570  1.0000 -0.7098821782
O   O34       1.0  0.92220  0.21409  0.31910  1.0000 -0.7758630497
O   O35       1.0  0.28970  0.22038  0.28880  1.0000 -0.7306500656
O   O36       1.0  0.00820  0.28977  0.18000  1.0000 -0.7466877682
O   O37       1.0  0.54870  0.18824  0.11140  1.0000 -0.74442756
O   O38       1.0  0.68890  0.25145  0.96930  1.0000 -0.7709236128
O   O39       1.0  0.63060  0.14421  0.93070  1.0000 -0.7098821782
O   O40       1.0  0.09600  0.19582  0.02220  1.0000 -0.4714718966
O   O41       1.0  0.85370  0.12315  0.50550  1.0000 -0.5186287148
O   O42       1.0  0.58650  0.13045  0.34280  1.0000 -0.5186287148
O   O43       1.0  0.60190  0.30532  0.22200  1.0000 -0.570311336
O   O44       1.0  0.28670  0.18024  0.51430  1.0000 -0.7049510462
