# DDEC6 charges by PACMAN v1.1 (https://github.com/mtap-research/PACMAN-charge/)
data_2021[Eu][nan]3[ION]1
_chemical_formula_sum              "Eu6 H180 C174 Br6 N18 O54"
_cell_length_a       27.7232
_cell_length_b       27.7232
_cell_length_c       27.7232
_cell_angle_alpha    117.849
_cell_angle_beta     117.849
_cell_angle_gamma    117.849

_symmetry_space_group_name_H-M    "P 1"
_symmetry_Int_Tables_number       1

loop_
  _symmetry_equiv_pos_as_xyz
  'x, y, z'

loop_
  _atom_site_type_symbol
  _atom_site_label
  _atom_site_symmetry_multiplicity
  _atom_site_fract_x
  _atom_site_fract_y
  _atom_site_fract_z
  _atom_site_occupancy
  _atom_site_charge
Eu  Eu1       1.0  0.40864  0.89700  0.47662  1.0000 2.1410136412
Eu  Eu2       1.0  0.89700  0.47662  0.40864  1.0000 2.1410136412
Eu  Eu3       1.0  0.47662  0.40864  0.89700  1.0000 2.1410136412
Eu  Eu4       1.0  0.59136  0.10300  0.52338  1.0000 2.1410136412
Eu  Eu5       1.0  0.10300  0.52338  0.59136  1.0000 2.1410136412
Eu  Eu6       1.0  0.52338  0.59136  0.10300  1.0000 2.1410136412
H   H1        1.0  0.25649  0.82816  0.17100  1.0000 0.1192976338
H   H2        1.0  0.09499  0.64230  0.13153  1.0000 0.1364299248
H   H3        1.0  0.92184  0.50970  0.95171  1.0000 0.1305421105
H   H4        1.0  0.91760  0.53673  0.88340  1.0000 0.1192976338
H   H5        1.0  0.89545  0.38275  0.57068  1.0000 0.1192976338
H   H6        1.0  0.80393  0.43237  0.46933  1.0000 0.150714923
H   H7        1.0  0.70401  0.37913  0.46132  1.0000 0.1305421105
H   H8        1.0  0.69779  0.32579  0.50791  1.0000 0.1091244301
H   H9        1.0  0.20727  0.61402  0.83521  1.0000 0.1305421105
H   H10       1.0  0.50009  0.94304  0.08815  1.0000 0.1305421105
H   H11       1.0  0.53204  0.99142  0.20751  1.0000 0.1305421105
H   H12       1.0  0.40268  0.84874  0.13870  1.0000 0.1091244301
H   H13       1.0  0.02246  0.67006  0.92774  1.0000 0.1192976338
H   H14       1.0  0.15569  0.77486  0.03428  1.0000 0.1192976338
H   H15       1.0  0.79562  0.28275  0.55487  1.0000 0.1305421105
H   H16       1.0  0.75009  0.29676  0.56684  1.0000 0.1091244301
H   H17       1.0  0.25280  0.66184  0.00348  1.0000 0.1305421105
H   H18       1.0  0.17940  0.56652  0.88463  1.0000 0.1192976338
H   H19       1.0  0.88891  0.48845  0.74597  1.0000 0.1305421105
H   H20       1.0  0.99412  0.43642  0.72060  1.0000 0.1192976338
H   H21       1.0  0.21559  0.73022  0.02784  1.0000 0.1192976338
H   H22       1.0  0.42700  0.79276  0.53797  1.0000 0.0825187107
H   H23       1.0  0.32354  0.72740  0.43233  1.0000 0.0638027728
H   H24       1.0  0.28141  0.60939  0.38591  1.0000 0.0921463411
H   H25       1.0  0.38054  0.66747  0.42928  1.0000 0.1305421105
H   H26       1.0  0.27423  0.60031  0.32072  1.0000 0.1192976338
H   H27       1.0  0.42439  0.91496  0.59553  1.0000 0.3234735519
H   H28       1.0  0.51639  0.02642  0.67518  1.0000 0.3443754604
H   H29       1.0  0.22734  0.65550  0.28680  1.0000 0.3606789599
H   H30       1.0  0.22156  0.66771  0.24001  1.0000 0.3606789599
H   H31       1.0  0.82816  0.17100  0.25649  1.0000 0.1192976338
H   H32       1.0  0.64230  0.13153  0.09499  1.0000 0.1364299248
H   H33       1.0  0.50970  0.95171  0.92184  1.0000 0.1305421105
H   H34       1.0  0.53673  0.88340  0.91760  1.0000 0.1192976338
H   H35       1.0  0.38275  0.57068  0.89545  1.0000 0.1192976338
H   H36       1.0  0.43237  0.46933  0.80393  1.0000 0.150714923
H   H37       1.0  0.37913  0.46132  0.70401  1.0000 0.1305421105
H   H38       1.0  0.32579  0.50791  0.69779  1.0000 0.1091244301
H   H39       1.0  0.61402  0.83521  0.20727  1.0000 0.1305421105
H   H40       1.0  0.94304  0.08815  0.50009  1.0000 0.1305421105
H   H41       1.0  0.99142  0.20751  0.53204  1.0000 0.1305421105
H   H42       1.0  0.84874  0.13870  0.40268  1.0000 0.1091244301
H   H43       1.0  0.67006  0.92774  0.02246  1.0000 0.1192976338
H   H44       1.0  0.77486  0.03428  0.15569  1.0000 0.1192976338
H   H45       1.0  0.28275  0.55487  0.79562  1.0000 0.1305421105
H   H46       1.0  0.29676  0.56684  0.75009  1.0000 0.1091244301
H   H47       1.0  0.66184  0.00348  0.25280  1.0000 0.1305421105
H   H48       1.0  0.56652  0.88463  0.17940  1.0000 0.1192976338
H   H49       1.0  0.48845  0.74597  0.88891  1.0000 0.1305421105
H   H50       1.0  0.43642  0.72060  0.99412  1.0000 0.1192976338
H   H51       1.0  0.73022  0.02784  0.21559  1.0000 0.1192976338
H   H52       1.0  0.79276  0.53797  0.42700  1.0000 0.0825187107
H   H53       1.0  0.72740  0.43233  0.32354  1.0000 0.0638027728
H   H54       1.0  0.60939  0.38591  0.28141  1.0000 0.0921463411
H   H55       1.0  0.66747  0.42928  0.38054  1.0000 0.1305421105
H   H56       1.0  0.60031  0.32072  0.27423  1.0000 0.1192976338
H   H57       1.0  0.91496  0.59553  0.42439  1.0000 0.3234735519
H   H58       1.0  0.02642  0.67518  0.51639  1.0000 0.3443754604
H   H59       1.0  0.65550  0.28680  0.22734  1.0000 0.3606789599
H   H60       1.0  0.66771  0.24001  0.22156  1.0000 0.3606789599
H   H61       1.0  0.17100  0.25649  0.82816  1.0000 0.1192976338
H   H62       1.0  0.13153  0.09499  0.64230  1.0000 0.1364299248
H   H63       1.0  0.95171  0.92184  0.50970  1.0000 0.1305421105
H   H64       1.0  0.88340  0.91760  0.53673  1.0000 0.1192976338
H   H65       1.0  0.57068  0.89545  0.38275  1.0000 0.1192976338
H   H66       1.0  0.46933  0.80393  0.43237  1.0000 0.150714923
H   H67       1.0  0.46132  0.70401  0.37913  1.0000 0.1305421105
H   H68       1.0  0.50791  0.69779  0.32579  1.0000 0.1091244301
H   H69       1.0  0.83521  0.20727  0.61402  1.0000 0.1305421105
H   H70       1.0  0.08815  0.50009  0.94304  1.0000 0.1305421105
H   H71       1.0  0.20751  0.53204  0.99142  1.0000 0.1305421105
H   H72       1.0  0.13870  0.40268  0.84874  1.0000 0.1091244301
H   H73       1.0  0.92774  0.02246  0.67006  1.0000 0.1192976338
H   H74       1.0  0.03428  0.15569  0.77486  1.0000 0.1192976338
H   H75       1.0  0.55487  0.79562  0.28275  1.0000 0.1305421105
H   H76       1.0  0.56684  0.75009  0.29676  1.0000 0.1091244301
H   H77       1.0  0.00348  0.25280  0.66184  1.0000 0.1305421105
H   H78       1.0  0.88463  0.17940  0.56652  1.0000 0.1192976338
H   H79       1.0  0.74597  0.88891  0.48845  1.0000 0.1305421105
H   H80       1.0  0.72060  0.99412  0.43642  1.0000 0.1192976338
H   H81       1.0  0.02784  0.21559  0.73022  1.0000 0.1192976338
H   H82       1.0  0.53797  0.42700  0.79276  1.0000 0.0825187107
H   H83       1.0  0.43233  0.32354  0.72740  1.0000 0.0638027728
H   H84       1.0  0.38591  0.28141  0.60939  1.0000 0.0921463411
H   H85       1.0  0.42928  0.38054  0.66747  1.0000 0.1305421105
H   H86       1.0  0.32072  0.27423  0.60031  1.0000 0.1192976338
H   H87       1.0  0.59553  0.42439  0.91496  1.0000 0.3234735519
H   H88       1.0  0.67518  0.51639  0.02642  1.0000 0.3443754604
H   H89       1.0  0.28680  0.22734  0.65550  1.0000 0.3606789599
H   H90       1.0  0.24001  0.22156  0.66771  1.0000 0.3606789599
H   H91       1.0  0.74351  0.17184  0.82900  1.0000 0.1192976338
H   H92       1.0  0.90501  0.35770  0.86847  1.0000 0.1364299248
H   H93       1.0  0.07816  0.49030  0.04829  1.0000 0.1305421105
H   H94       1.0  0.08240  0.46327  0.11660  1.0000 0.1192976338
H   H95       1.0  0.10455  0.61725  0.42932  1.0000 0.1192976338
H   H96       1.0  0.19607  0.56763  0.53067  1.0000 0.150714923
H   H97       1.0  0.29599  0.62087  0.53868  1.0000 0.1305421105
H   H98       1.0  0.30221  0.67421  0.49209  1.0000 0.1091244301
H   H99       1.0  0.79273  0.38598  0.16479  1.0000 0.1305421105
H   H100      1.0  0.49991  0.05696  0.91185  1.0000 0.1305421105
H   H101      1.0  0.46796  0.00858  0.79249  1.0000 0.1305421105
H   H102      1.0  0.59732  0.15126  0.86130  1.0000 0.1091244301
H   H103      1.0  0.97754  0.32994  0.07226  1.0000 0.1192976338
H   H104      1.0  0.84431  0.22514  0.96572  1.0000 0.1192976338
H   H105      1.0  0.20438  0.71725  0.44513  1.0000 0.1305421105
H   H106      1.0  0.24991  0.70324  0.43316  1.0000 0.1091244301
H   H107      1.0  0.74720  0.33816  0.99652  1.0000 0.1305421105
H   H108      1.0  0.82060  0.43348  0.11537  1.0000 0.1192976338
H   H109      1.0  0.11109  0.51155  0.25403  1.0000 0.1305421105
H   H110      1.0  0.00588  0.56358  0.27940  1.0000 0.1192976338
H   H111      1.0  0.78441  0.26978  0.97216  1.0000 0.1192976338
H   H112      1.0  0.57300  0.20724  0.46203  1.0000 0.0825187107
H   H113      1.0  0.67646  0.27260  0.56767  1.0000 0.0638027728
H   H114      1.0  0.71859  0.39061  0.61409  1.0000 0.0921463411
H   H115      1.0  0.61946  0.33253  0.57072  1.0000 0.1305421105
H   H116      1.0  0.72577  0.39969  0.67928  1.0000 0.1192976338
H   H117      1.0  0.57561  0.08504  0.40447  1.0000 0.3234735519
H   H118      1.0  0.48361  0.97358  0.32482  1.0000 0.3443754604
H   H119      1.0  0.77266  0.34450  0.71320  1.0000 0.3606789599
H   H120      1.0  0.77844  0.33229  0.75999  1.0000 0.3606789599
H   H121      1.0  0.17184  0.82900  0.74351  1.0000 0.1192976338
H   H122      1.0  0.35770  0.86847  0.90501  1.0000 0.1364299248
H   H123      1.0  0.49030  0.04829  0.07816  1.0000 0.1305421105
H   H124      1.0  0.46327  0.11660  0.08240  1.0000 0.1192976338
H   H125      1.0  0.61725  0.42932  0.10455  1.0000 0.1192976338
H   H126      1.0  0.56763  0.53067  0.19607  1.0000 0.150714923
H   H127      1.0  0.62087  0.53868  0.29599  1.0000 0.1305421105
H   H128      1.0  0.67421  0.49209  0.30221  1.0000 0.1091244301
H   H129      1.0  0.38598  0.16479  0.79273  1.0000 0.1305421105
H   H130      1.0  0.05696  0.91185  0.49991  1.0000 0.1305421105
H   H131      1.0  0.00858  0.79249  0.46796  1.0000 0.1305421105
H   H132      1.0  0.15126  0.86130  0.59732  1.0000 0.1091244301
H   H133      1.0  0.32994  0.07226  0.97754  1.0000 0.1192976338
H   H134      1.0  0.22514  0.96572  0.84431  1.0000 0.1192976338
H   H135      1.0  0.71725  0.44513  0.20438  1.0000 0.1305421105
H   H136      1.0  0.70324  0.43316  0.24991  1.0000 0.1091244301
H   H137      1.0  0.33816  0.99652  0.74720  1.0000 0.1305421105
H   H138      1.0  0.43348  0.11537  0.82060  1.0000 0.1192976338
H   H139      1.0  0.51155  0.25403  0.11109  1.0000 0.1305421105
H   H140      1.0  0.56358  0.27940  0.00588  1.0000 0.1192976338
H   H141      1.0  0.26978  0.97216  0.78441  1.0000 0.1192976338
H   H142      1.0  0.20724  0.46203  0.57300  1.0000 0.0825187107
H   H143      1.0  0.27260  0.56767  0.67646  1.0000 0.0638027728
H   H144      1.0  0.39061  0.61409  0.71859  1.0000 0.0921463411
H   H145      1.0  0.33253  0.57072  0.61946  1.0000 0.1305421105
H   H146      1.0  0.39969  0.67928  0.72577  1.0000 0.1192976338
H   H147      1.0  0.08504  0.40447  0.57561  1.0000 0.3234735519
H   H148      1.0  0.97358  0.32482  0.48361  1.0000 0.3443754604
H   H149      1.0  0.34450  0.71320  0.77266  1.0000 0.3606789599
H   H150      1.0  0.33229  0.75999  0.77844  1.0000 0.3606789599
H   H151      1.0  0.82900  0.74351  0.17184  1.0000 0.1192976338
H   H152      1.0  0.86847  0.90501  0.35770  1.0000 0.1364299248
H   H153      1.0  0.04829  0.07816  0.49030  1.0000 0.1305421105
H   H154      1.0  0.11660  0.08240  0.46327  1.0000 0.1192976338
H   H155      1.0  0.42932  0.10455  0.61725  1.0000 0.1192976338
H   H156      1.0  0.53067  0.19607  0.56763  1.0000 0.150714923
H   H157      1.0  0.53868  0.29599  0.62087  1.0000 0.1305421105
H   H158      1.0  0.49209  0.30221  0.67421  1.0000 0.1091244301
H   H159      1.0  0.16479  0.79273  0.38598  1.0000 0.1305421105
H   H160      1.0  0.91185  0.49991  0.05696  1.0000 0.1305421105
H   H161      1.0  0.79249  0.46796  0.00858  1.0000 0.1305421105
H   H162      1.0  0.86130  0.59732  0.15126  1.0000 0.1091244301
H   H163      1.0  0.07226  0.97754  0.32994  1.0000 0.1192976338
H   H164      1.0  0.96572  0.84431  0.22514  1.0000 0.1192976338
H   H165      1.0  0.44513  0.20438  0.71725  1.0000 0.1305421105
H   H166      1.0  0.43316  0.24991  0.70324  1.0000 0.1091244301
H   H167      1.0  0.99652  0.74720  0.33816  1.0000 0.1305421105
H   H168      1.0  0.11537  0.82060  0.43348  1.0000 0.1192976338
H   H169      1.0  0.25403  0.11109  0.51155  1.0000 0.1305421105
H   H170      1.0  0.27940  0.00588  0.56358  1.0000 0.1192976338
H   H171      1.0  0.97216  0.78441  0.26978  1.0000 0.1192976338
H   H172      1.0  0.46203  0.57300  0.20724  1.0000 0.0825187107
H   H173      1.0  0.56767  0.67646  0.27260  1.0000 0.0638027728
H   H174      1.0  0.61409  0.71859  0.39061  1.0000 0.0921463411
H   H175      1.0  0.57072  0.61946  0.33253  1.0000 0.1305421105
H   H176      1.0  0.67928  0.72577  0.39969  1.0000 0.1192976338
H   H177      1.0  0.40447  0.57561  0.08504  1.0000 0.3234735519
H   H178      1.0  0.32482  0.48361  0.97358  1.0000 0.3443754604
H   H179      1.0  0.71320  0.77266  0.34450  1.0000 0.3606789599
H   H180      1.0  0.75999  0.77844  0.33229  1.0000 0.3606789599
C   C1        1.0  0.30620  0.84090  0.28860  1.0000 0.6410332511
C   C2        1.0  0.18860  0.76440  0.12750  1.0000 -0.0205789149
C   C3        1.0  0.19370  0.75220  0.17120  1.0000 -0.050732388
C   C4        1.0  0.09270  0.65400  0.10400  1.0000 -0.0600566911
C   C5        1.0  0.99080  0.57540  0.99740  1.0000 -0.1061053161
C   C6        1.0  0.98830  0.59150  0.95710  1.0000 0.0031836469
C   C7        1.0  0.92680  0.44590  0.52700  1.0000 0.6224645168
C   C8        1.0  0.85680  0.38250  0.54850  1.0000 -0.0205789149
C   C9        1.0  0.85960  0.41180  0.52000  1.0000 -0.0205789149
C   C10       1.0  0.80160  0.41100  0.48790  1.0000 -0.0402860183
C   C11       1.0  0.74340  0.38010  0.48370  1.0000 -0.1372857203
C   C12       1.0  0.74010  0.34910  0.51200  1.0000 -0.0205789149
C   C13       1.0  0.32760  0.73720  0.87110  1.0000 0.5711572955
C   C14       1.0  0.27510  0.69180  0.91230  1.0000 -0.050732388
C   C15       1.0  0.35040  0.77270  0.95050  1.0000 -0.050732388
C   C16       1.0  0.44750  0.88590  0.06090  1.0000 -0.0600566911
C   C17       1.0  0.46630  0.91410  0.13120  1.0000 -0.1485478888
C   C18       1.0  0.38910  0.82950  0.09020  1.0000 -0.0402860183
C   C19       1.0  0.08230  0.69490  0.97300  1.0000 -0.1975699425
C   C20       1.0  0.80780  0.33310  0.58810  1.0000 -0.2189410146
C   C21       1.0  0.21240  0.63120  0.93930  1.0000 -0.2189410146
C   C22       1.0  0.05720  0.62300  0.89930  1.0000 0.1305421105
C   C23       1.0  0.94850  0.51520  0.78130  1.0000 -0.2189410146
C   C24       1.0  0.92550  0.44710  0.71550  1.0000 0.1305421105
C   C25       1.0  0.01030  0.48400  0.76630  1.0000 -0.2269779751
C   C26       1.0  0.11940  0.58960  0.88310  1.0000 0.1305421105
C   C27       1.0  0.14110  0.65770  0.94780  1.0000 -0.2189410146
C   C28       1.0  0.38930  0.76070  0.47350  1.0000 0.0684232007
C   C29       1.0  0.32550  0.64910  0.39510  1.0000 -0.402139317
C   C30       1.0  0.84090  0.28860  0.30620  1.0000 0.6410332511
C   C31       1.0  0.76440  0.12750  0.18860  1.0000 -0.0205789149
C   C32       1.0  0.75220  0.17120  0.19370  1.0000 -0.050732388
C   C33       1.0  0.65400  0.10400  0.09270  1.0000 -0.0600566911
C   C34       1.0  0.57540  0.99740  0.99080  1.0000 -0.1061053161
C   C35       1.0  0.59150  0.95710  0.98830  1.0000 0.0031836469
C   C36       1.0  0.44590  0.52700  0.92680  1.0000 0.6224645168
C   C37       1.0  0.38250  0.54850  0.85680  1.0000 -0.0205789149
C   C38       1.0  0.41180  0.52000  0.85960  1.0000 -0.0205789149
C   C39       1.0  0.41100  0.48790  0.80160  1.0000 -0.0402860183
C   C40       1.0  0.38010  0.48370  0.74340  1.0000 -0.1372857203
C   C41       1.0  0.34910  0.51200  0.74010  1.0000 -0.0205789149
C   C42       1.0  0.73720  0.87110  0.32760  1.0000 0.5711572955
C   C43       1.0  0.69180  0.91230  0.27510  1.0000 -0.050732388
C   C44       1.0  0.77270  0.95050  0.35040  1.0000 -0.050732388
C   C45       1.0  0.88590  0.06090  0.44750  1.0000 -0.0600566911
C   C46       1.0  0.91410  0.13120  0.46630  1.0000 -0.1485478888
C   C47       1.0  0.82950  0.09020  0.38910  1.0000 -0.0402860183
C   C48       1.0  0.69490  0.97300  0.08230  1.0000 -0.1975699425
C   C49       1.0  0.33310  0.58810  0.80780  1.0000 -0.2189410146
C   C50       1.0  0.63120  0.93930  0.21240  1.0000 -0.2189410146
C   C51       1.0  0.62300  0.89930  0.05720  1.0000 0.1305421105
C   C52       1.0  0.51520  0.78130  0.94850  1.0000 -0.2189410146
C   C53       1.0  0.44710  0.71550  0.92550  1.0000 0.1305421105
C   C54       1.0  0.48400  0.76630  0.01030  1.0000 -0.2269779751
C   C55       1.0  0.58960  0.88310  0.11940  1.0000 0.1305421105
C   C56       1.0  0.65770  0.94780  0.14110  1.0000 -0.2189410146
C   C57       1.0  0.76070  0.47350  0.38930  1.0000 0.0684232007
C   C58       1.0  0.64910  0.39510  0.32550  1.0000 -0.402139317
C   C59       1.0  0.28860  0.30620  0.84090  1.0000 0.6410332511
C   C60       1.0  0.12750  0.18860  0.76440  1.0000 -0.0205789149
C   C61       1.0  0.17120  0.19370  0.75220  1.0000 -0.050732388
C   C62       1.0  0.10400  0.09270  0.65400  1.0000 -0.0600566911
C   C63       1.0  0.99740  0.99080  0.57540  1.0000 -0.1061053161
C   C64       1.0  0.95710  0.98830  0.59150  1.0000 0.0031836469
C   C65       1.0  0.52700  0.92680  0.44590  1.0000 0.6224645168
C   C66       1.0  0.54850  0.85680  0.38250  1.0000 -0.0205789149
C   C67       1.0  0.52000  0.85960  0.41180  1.0000 -0.0205789149
C   C68       1.0  0.48790  0.80160  0.41100  1.0000 -0.0402860183
C   C69       1.0  0.48370  0.74340  0.38010  1.0000 -0.1372857203
C   C70       1.0  0.51200  0.74010  0.34910  1.0000 -0.0205789149
C   C71       1.0  0.87110  0.32760  0.73720  1.0000 0.5711572955
C   C72       1.0  0.91230  0.27510  0.69180  1.0000 -0.050732388
C   C73       1.0  0.95050  0.35040  0.77270  1.0000 -0.050732388
C   C74       1.0  0.06090  0.44750  0.88590  1.0000 -0.0659811717
C   C75       1.0  0.13120  0.46630  0.91410  1.0000 -0.1485478888
C   C76       1.0  0.09020  0.38910  0.82950  1.0000 -0.0402860183
C   C77       1.0  0.97300  0.08230  0.69490  1.0000 -0.1975699425
C   C78       1.0  0.58810  0.80780  0.33310  1.0000 -0.2189410146
C   C79       1.0  0.93930  0.21240  0.63120  1.0000 -0.2189410146
C   C80       1.0  0.89930  0.05720  0.62300  1.0000 0.1305421105
C   C81       1.0  0.78130  0.94850  0.51520  1.0000 -0.2189410146
C   C82       1.0  0.71550  0.92550  0.44710  1.0000 0.1305421105
C   C83       1.0  0.76630  0.01030  0.48400  1.0000 -0.2269779751
C   C84       1.0  0.88310  0.11940  0.58960  1.0000 0.1305421105
C   C85       1.0  0.94780  0.14110  0.65770  1.0000 -0.2189410146
C   C86       1.0  0.47350  0.38930  0.76070  1.0000 0.0684232007
C   C87       1.0  0.39510  0.32550  0.64910  1.0000 -0.402139317
C   C88       1.0  0.69380  0.15910  0.71140  1.0000 0.6410332511
C   C89       1.0  0.81140  0.23560  0.87250  1.0000 -0.0205789149
C   C90       1.0  0.80630  0.24780  0.82880  1.0000 -0.050732388
C   C91       1.0  0.90730  0.34600  0.89600  1.0000 -0.0600566911
C   C92       1.0  0.00920  0.42460  0.00260  1.0000 -0.1061053161
C   C93       1.0  0.01170  0.40850  0.04290  1.0000 0.0031836469
C   C94       1.0  0.07320  0.55410  0.47300  1.0000 0.6224645168
C   C95       1.0  0.14320  0.61750  0.45150  1.0000 -0.0205789149
C   C96       1.0  0.14040  0.58820  0.48000  1.0000 -0.0205789149
C   C97       1.0  0.19840  0.58900  0.51210  1.0000 -0.0402860183
C   C98       1.0  0.25660  0.61990  0.51630  1.0000 -0.1372857203
C   C99       1.0  0.25990  0.65090  0.48800  1.0000 -0.0205789149
C   C100      1.0  0.67240  0.26280  0.12890  1.0000 0.5711572955
C   C101      1.0  0.72490  0.30820  0.08770  1.0000 -0.050732388
C   C102      1.0  0.64960  0.22730  0.04950  1.0000 -0.050732388
C   C103      1.0  0.55250  0.11410  0.93910  1.0000 -0.0659811717
C   C104      1.0  0.53370  0.08590  0.86880  1.0000 -0.1485478888
C   C105      1.0  0.61090  0.17050  0.90980  1.0000 -0.0402860183
C   C106      1.0  0.91770  0.30510  0.02700  1.0000 -0.1975699425
C   C107      1.0  0.19220  0.66690  0.41190  1.0000 -0.2189410146
C   C108      1.0  0.78760  0.36880  0.06070  1.0000 -0.2189410146
C   C109      1.0  0.94280  0.37700  0.10070  1.0000 0.1305421105
C   C110      1.0  0.05150  0.48480  0.21870  1.0000 -0.2189410146
C   C111      1.0  0.07450  0.55290  0.28450  1.0000 0.1305421105
C   C112      1.0  0.98970  0.51600  0.23370  1.0000 -0.2269779751
C   C113      1.0  0.88060  0.41040  0.11690  1.0000 0.1305421105
C   C114      1.0  0.85890  0.34230  0.05220  1.0000 -0.2189410146
C   C115      1.0  0.61070  0.23930  0.52650  1.0000 0.0684232007
C   C116      1.0  0.67450  0.35090  0.60490  1.0000 -0.402139317
C   C117      1.0  0.15910  0.71140  0.69380  1.0000 0.6410332511
C   C118      1.0  0.23560  0.87250  0.81140  1.0000 -0.0205789149
C   C119      1.0  0.24780  0.82880  0.80630  1.0000 -0.050732388
C   C120      1.0  0.34600  0.89600  0.90730  1.0000 -0.0600566911
C   C121      1.0  0.42460  0.00260  0.00920  1.0000 -0.1061053161
C   C122      1.0  0.40850  0.04290  0.01170  1.0000 0.0031836469
C   C123      1.0  0.55410  0.47300  0.07320  1.0000 0.6224645168
C   C124      1.0  0.61750  0.45150  0.14320  1.0000 -0.0205789149
C   C125      1.0  0.58820  0.48000  0.14040  1.0000 -0.0205789149
C   C126      1.0  0.58900  0.51210  0.19840  1.0000 -0.0402860183
C   C127      1.0  0.61990  0.51630  0.25660  1.0000 -0.1372857203
C   C128      1.0  0.65090  0.48800  0.25990  1.0000 -0.0205789149
C   C129      1.0  0.26280  0.12890  0.67240  1.0000 0.5711572955
C   C130      1.0  0.30820  0.08770  0.72490  1.0000 -0.050732388
C   C131      1.0  0.22730  0.04950  0.64960  1.0000 -0.050732388
C   C132      1.0  0.11410  0.93910  0.55250  1.0000 -0.0659811717
C   C133      1.0  0.08590  0.86880  0.53370  1.0000 -0.1485478888
C   C134      1.0  0.17050  0.90980  0.61090  1.0000 -0.0402860183
C   C135      1.0  0.30510  0.02700  0.91770  1.0000 -0.1975699425
C   C136      1.0  0.66690  0.41190  0.19220  1.0000 -0.2189410146
C   C137      1.0  0.36880  0.06070  0.78760  1.0000 -0.2189410146
C   C138      1.0  0.37700  0.10070  0.94280  1.0000 0.1305421105
C   C139      1.0  0.48480  0.21870  0.05150  1.0000 -0.2189410146
C   C140      1.0  0.55290  0.28450  0.07450  1.0000 0.1305421105
C   C141      1.0  0.51600  0.23370  0.98970  1.0000 -0.2269779751
C   C142      1.0  0.41040  0.11690  0.88060  1.0000 0.1305421105
C   C143      1.0  0.34230  0.05220  0.85890  1.0000 -0.2189410146
C   C144      1.0  0.23930  0.52650  0.61070  1.0000 0.0684232007
C   C145      1.0  0.35090  0.60490  0.67450  1.0000 -0.402139317
C   C146      1.0  0.71140  0.69380  0.15910  1.0000 0.6410332511
C   C147      1.0  0.87250  0.81140  0.23560  1.0000 -0.0205789149
C   C148      1.0  0.82880  0.80630  0.24780  1.0000 -0.050732388
C   C149      1.0  0.89600  0.90730  0.34600  1.0000 -0.0600566911
C   C150      1.0  0.00260  0.00920  0.42460  1.0000 -0.1061053161
C   C151      1.0  0.04290  0.01170  0.40850  1.0000 0.0031836469
C   C152      1.0  0.47300  0.07320  0.55410  1.0000 0.6224645168
C   C153      1.0  0.45150  0.14320  0.61750  1.0000 -0.0205789149
C   C154      1.0  0.48000  0.14040  0.58820  1.0000 -0.0205789149
C   C155      1.0  0.51210  0.19840  0.58900  1.0000 -0.0402860183
C   C156      1.0  0.51630  0.25660  0.61990  1.0000 -0.1372857203
C   C157      1.0  0.48800  0.25990  0.65090  1.0000 -0.0205789149
C   C158      1.0  0.12890  0.67240  0.26280  1.0000 0.5711572955
C   C159      1.0  0.08770  0.72490  0.30820  1.0000 -0.050732388
C   C160      1.0  0.04950  0.64960  0.22730  1.0000 -0.050732388
C   C161      1.0  0.93910  0.55250  0.11410  1.0000 -0.0600566911
C   C162      1.0  0.86880  0.53370  0.08590  1.0000 -0.1485478888
C   C163      1.0  0.90980  0.61090  0.17050  1.0000 -0.0402860183
C   C164      1.0  0.02700  0.91770  0.30510  1.0000 -0.1975699425
C   C165      1.0  0.41190  0.19220  0.66690  1.0000 -0.2189410146
C   C166      1.0  0.06070  0.78760  0.36880  1.0000 -0.2189410146
C   C167      1.0  0.10070  0.94280  0.37700  1.0000 0.1305421105
C   C168      1.0  0.21870  0.05150  0.48480  1.0000 -0.2189410146
C   C169      1.0  0.28450  0.07450  0.55290  1.0000 0.1305421105
C   C170      1.0  0.23370  0.98970  0.51600  1.0000 -0.2269779751
C   C171      1.0  0.11690  0.88060  0.41040  1.0000 0.1305421105
C   C172      1.0  0.05220  0.85890  0.34230  1.0000 -0.2189410146
C   C173      1.0  0.52650  0.61070  0.23930  1.0000 0.0684232007
C   C174      1.0  0.60490  0.67450  0.35090  1.0000 -0.402139317
Br  Br1       1.0  0.83554  0.74192  0.34294  1.0000 -0.6323330213
Br  Br2       1.0  0.34294  0.83554  0.74192  1.0000 -0.6323330213
Br  Br3       1.0  0.74192  0.34294  0.83554  1.0000 -0.6323330213
Br  Br4       1.0  0.16446  0.25808  0.65706  1.0000 -0.6323330213
Br  Br5       1.0  0.65706  0.16446  0.25808  1.0000 -0.6323330213
Br  Br6       1.0  0.25808  0.65706  0.16446  1.0000 -0.6323330213
N   N1        1.0  0.08690  0.68570  0.02230  1.0000 0.0921463411
N   N2        1.0  0.79830  0.35350  0.54480  1.0000 0.1091244301
N   N3        1.0  0.29550  0.72050  0.98230  1.0000 0.0973674757
N   N4        1.0  0.68570  0.02230  0.08690  1.0000 0.0921463411
N   N5        1.0  0.35350  0.54480  0.79830  1.0000 0.1091244301
N   N6        1.0  0.72050  0.98230  0.29550  1.0000 0.0973674757
N   N7        1.0  0.02230  0.08690  0.68570  1.0000 0.0921463411
N   N8        1.0  0.54480  0.79830  0.35350  1.0000 0.1091244301
N   N9        1.0  0.98230  0.29550  0.72050  1.0000 0.0973674757
N   N10       1.0  0.91310  0.31430  0.97770  1.0000 0.0921463411
N   N11       1.0  0.20170  0.64650  0.45520  1.0000 0.1091244301
N   N12       1.0  0.70450  0.27950  0.01770  1.0000 0.0973674757
N   N13       1.0  0.31430  0.97770  0.91310  1.0000 0.0921463411
N   N14       1.0  0.64650  0.45520  0.20170  1.0000 0.1091244301
N   N15       1.0  0.27950  0.01770  0.70450  1.0000 0.0973674757
N   N16       1.0  0.97770  0.91310  0.31430  1.0000 0.0921463411
N   N17       1.0  0.45520  0.20170  0.64650  1.0000 0.1091244301
N   N18       1.0  0.01770  0.70450  0.27950  1.0000 0.0973674757
O   O1        1.0  0.30439  0.83348  0.32933  1.0000 -0.6579622636
O   O2        1.0  0.39067  0.91400  0.33533  1.0000 -0.6461649944
O   O3        1.0  0.91820  0.46004  0.48906  1.0000 -0.6579622636
O   O4        1.0  0.98846  0.46125  0.57269  1.0000 -0.6082424332
O   O5        1.0  0.23316  0.63293  0.76951  1.0000 -0.6699994017
O   O6        1.0  0.40320  0.81464  0.91366  1.0000 -0.5487467458
O   O7        1.0  0.46640  0.86860  0.53600  1.0000 -0.7225130607
O   O8        1.0  0.44310  0.95750  0.60390  1.0000 -0.765667658
O   O9        1.0  0.27411  0.70420  0.30529  1.0000 -0.7861481815
O   O10       1.0  0.83348  0.32933  0.30439  1.0000 -0.6579622636
O   O11       1.0  0.91400  0.33533  0.39067  1.0000 -0.6461649944
O   O12       1.0  0.46004  0.48906  0.91820  1.0000 -0.6579622636
O   O13       1.0  0.46125  0.57269  0.98846  1.0000 -0.6082424332
O   O14       1.0  0.63293  0.76951  0.23316  1.0000 -0.6699994017
O   O15       1.0  0.81464  0.91366  0.40320  1.0000 -0.5487467458
O   O16       1.0  0.86860  0.53600  0.46640  1.0000 -0.7225130607
O   O17       1.0  0.95750  0.60390  0.44310  1.0000 -0.765667658
O   O18       1.0  0.70420  0.30529  0.27411  1.0000 -0.7861481815
O   O19       1.0  0.32933  0.30439  0.83348  1.0000 -0.6579622636
O   O20       1.0  0.33533  0.39067  0.91400  1.0000 -0.6461649944
O   O21       1.0  0.48906  0.91820  0.46004  1.0000 -0.6579622636
O   O22       1.0  0.57269  0.98846  0.46125  1.0000 -0.6082424332
O   O23       1.0  0.76951  0.23316  0.63293  1.0000 -0.6699994017
O   O24       1.0  0.91366  0.40320  0.81464  1.0000 -0.5487467458
O   O25       1.0  0.53600  0.46640  0.86860  1.0000 -0.7225130607
O   O26       1.0  0.60390  0.44310  0.95750  1.0000 -0.765667658
O   O27       1.0  0.30529  0.27411  0.70420  1.0000 -0.7861481815
O   O28       1.0  0.69561  0.16652  0.67067  1.0000 -0.6579622636
O   O29       1.0  0.60933  0.08600  0.66467  1.0000 -0.6461649944
O   O30       1.0  0.08180  0.53996  0.51094  1.0000 -0.6579622636
O   O31       1.0  0.01154  0.53875  0.42731  1.0000 -0.6082424332
O   O32       1.0  0.76684  0.36707  0.23049  1.0000 -0.6699994017
O   O33       1.0  0.59680  0.18536  0.08634  1.0000 -0.5487467458
O   O34       1.0  0.53360  0.13140  0.46400  1.0000 -0.7225130607
O   O35       1.0  0.55690  0.04250  0.39610  1.0000 -0.765667658
O   O36       1.0  0.72589  0.29580  0.69471  1.0000 -0.7861481815
O   O37       1.0  0.16652  0.67067  0.69561  1.0000 -0.6579622636
O   O38       1.0  0.08600  0.66467  0.60933  1.0000 -0.6461649944
O   O39       1.0  0.53996  0.51094  0.08180  1.0000 -0.6579622636
O   O40       1.0  0.53875  0.42731  0.01154  1.0000 -0.6082424332
O   O41       1.0  0.36707  0.23049  0.76684  1.0000 -0.6699994017
O   O42       1.0  0.18536  0.08634  0.59680  1.0000 -0.5487467458
O   O43       1.0  0.13140  0.46400  0.53360  1.0000 -0.7225130607
O   O44       1.0  0.04250  0.39610  0.55690  1.0000 -0.765667658
O   O45       1.0  0.29580  0.69471  0.72589  1.0000 -0.7861481815
O   O46       1.0  0.67067  0.69561  0.16652  1.0000 -0.6579622636
O   O47       1.0  0.66467  0.60933  0.08600  1.0000 -0.6461649944
O   O48       1.0  0.51094  0.08180  0.53996  1.0000 -0.6579622636
O   O49       1.0  0.42731  0.01154  0.53875  1.0000 -0.6082424332
O   O50       1.0  0.23049  0.76684  0.36707  1.0000 -0.6699994017
O   O51       1.0  0.08634  0.59680  0.18536  1.0000 -0.5487467458
O   O52       1.0  0.46400  0.53360  0.13140  1.0000 -0.7225130607
O   O53       1.0  0.39610  0.55690  0.04250  1.0000 -0.765667658
O   O54       1.0  0.69471  0.72589  0.29580  1.0000 -0.7861481815
