# DDEC6 charges by PACMAN v1.1 (https://github.com/mtap-research/PACMAN-charge/)
data_2022[CdGd][pts]3[ION]1
_chemical_formula_sum              "Gd2 Cd2 H44 C44 N18 O28"
_cell_length_a       9.9438
_cell_length_b       12.2794
_cell_length_c       14.996
_cell_angle_alpha    71.374
_cell_angle_beta     87.209
_cell_angle_gamma    88.544

_symmetry_space_group_name_H-M    "P 1"
_symmetry_Int_Tables_number       1

loop_
  _symmetry_equiv_pos_as_xyz
  'x, y, z'

loop_
  _atom_site_type_symbol
  _atom_site_label
  _atom_site_symmetry_multiplicity
  _atom_site_fract_x
  _atom_site_fract_y
  _atom_site_fract_z
  _atom_site_occupancy
  _atom_site_charge
Gd  Gd1       1.0  0.86628  0.49833  0.24717  1.0000 1.9715796473
Gd  Gd2       1.0  0.13372  0.50167  0.75283  1.0000 1.9715796473
Cd  Cd1       1.0  0.77082  0.98761  0.25903  1.0000 0.7461608114
Cd  Cd2       1.0  0.22918  0.01239  0.74097  1.0000 0.7461608114
H   H1        1.0  0.14164  0.45179  0.28277  1.0000 0.3871462456
H   H2        1.0  0.14093  0.55594  0.21013  1.0000 0.3871462456
H   H3        1.0  0.71312  0.70504  0.21238  1.0000 0.3703299524
H   H4        1.0  0.62124  0.61823  0.25671  1.0000 0.3703299524
H   H5        1.0  0.68860  0.31662  0.25949  1.0000 0.3962889077
H   H6        1.0  0.59847  0.41285  0.26576  1.0000 0.3871462456
H   H7        1.0  0.29835  0.06341  0.39083  1.0000 0.1410779866
H   H8        1.0  0.30768  0.91953  0.13761  1.0000 0.1410779866
H   H9        1.0  0.50780  0.10693  0.31445  1.0000 0.1083092602
H   H10       1.0  0.66457  0.17081  0.06722  1.0000 0.1178599099
H   H11       1.0  0.64099  0.79138  0.44042  1.0000 0.1178599099
H   H12       1.0  0.50526  0.87457  0.21676  1.0000 0.1021355192
H   H13       1.0  0.43602  0.74100  0.52299  1.0000 0.1493782984
H   H14       1.0  0.47066  0.22408  0.98169  1.0000 0.1410779866
H   H15       1.0  0.21396  0.79445  0.56836  1.0000 0.1493782984
H   H16       1.0  0.17677  0.92847  0.54152  1.0000 0.1321735468
H   H17       1.0  0.25111  0.18511  0.94712  1.0000 0.1410779866
H   H18       1.0  0.21676  0.05202  0.96948  1.0000 0.1321735468
H   H19       1.0  0.26587  0.67291  0.42650  1.0000 0.1493782984
H   H20       1.0  0.13865  0.60453  0.41138  1.0000 0.1779522846
H   H21       1.0  0.12542  0.37524  0.09350  1.0000 0.1779522846
H   H22       1.0  0.25653  0.31389  0.06486  1.0000 0.1588405917
H   H23       1.0  0.85836  0.54821  0.71723  1.0000 0.3871462456
H   H24       1.0  0.85907  0.44406  0.78987  1.0000 0.3871462456
H   H25       1.0  0.28688  0.29496  0.78762  1.0000 0.3703299524
H   H26       1.0  0.37876  0.38177  0.74329  1.0000 0.3703299524
H   H27       1.0  0.31140  0.68338  0.74051  1.0000 0.3962889077
H   H28       1.0  0.40153  0.58715  0.73424  1.0000 0.3871462456
H   H29       1.0  0.70165  0.93659  0.60917  1.0000 0.1410779866
H   H30       1.0  0.69232  0.08047  0.86239  1.0000 0.1410779866
H   H31       1.0  0.49220  0.89307  0.68555  1.0000 0.1083092602
H   H32       1.0  0.33543  0.82919  0.93278  1.0000 0.1178599099
H   H33       1.0  0.35901  0.20862  0.55958  1.0000 0.1178599099
H   H34       1.0  0.49474  0.12543  0.78324  1.0000 0.1021355192
H   H35       1.0  0.56398  0.25900  0.47701  1.0000 0.1493782984
H   H36       1.0  0.52934  0.77592  0.01831  1.0000 0.1410779866
H   H37       1.0  0.78604  0.20555  0.43164  1.0000 0.1493782984
H   H38       1.0  0.82323  0.07153  0.45848  1.0000 0.1321735468
H   H39       1.0  0.74889  0.81489  0.05288  1.0000 0.1410779866
H   H40       1.0  0.78324  0.94798  0.03052  1.0000 0.1321735468
H   H41       1.0  0.73413  0.32709  0.57350  1.0000 0.1493782984
H   H42       1.0  0.86135  0.39547  0.58862  1.0000 0.1779522846
H   H43       1.0  0.87458  0.62476  0.90650  1.0000 0.1779522846
H   H44       1.0  0.74347  0.68611  0.93514  1.0000 0.1588405917
C   C1        1.0  0.34410  0.89690  0.46550  1.0000 0.1588405917
C   C2        1.0  0.36620  0.07800  0.05120  1.0000 0.1493782984
C   C3        1.0  0.36760  0.00650  0.40220  1.0000 -0.1884600324
C   C4        1.0  0.37950  0.97280  0.12200  1.0000 -0.1884600324
C   C5        1.0  0.49200  0.03150  0.35620  1.0000 0.0780602904
C   C6        1.0  0.59080  0.11950  0.08160  1.0000 0.1021355192
C   C7        1.0  0.57030  0.84700  0.43030  1.0000 0.0780602904
C   C8        1.0  0.49740  0.94680  0.16890  1.0000 0.0729851524
C   C9        1.0  0.44830  0.81620  0.47980  1.0000 -0.1986013887
C   C10       1.0  0.47510  0.15220  0.03030  1.0000 -0.1826483247
C   C11       1.0  0.20700  0.86700  0.51540  1.0000 -0.1884600324
C   C12       1.0  0.23800  0.11130  0.99830  1.0000 -0.1884600324
C   C13       1.0  0.09050  0.76460  0.41690  1.0000 0.1588405917
C   C14       1.0  0.09060  0.21480  0.09070  1.0000 0.1588405917
C   C15       1.0  0.16990  0.65570  0.44530  1.0000 -0.4055257378
C   C16       1.0  0.15880  0.32670  0.05550  1.0000 -0.4045112966
C   C17       1.0  0.15770  0.59320  0.55120  1.0000 0.6554677846
C   C18       1.0  0.13830  0.39150  0.95200  1.0000 0.6530296368
C   C19       1.0  0.98510  0.80180  0.35780  1.0000 -0.070429617
C   C20       1.0  0.97980  0.17650  0.15050  1.0000 -0.0593306063
C   C21       1.0  0.91390  0.74650  0.29840  1.0000 0.6114963653
C   C22       1.0  0.89540  0.23160  0.20920  1.0000 0.6043432714
C   C23       1.0  0.65590  0.10310  0.53450  1.0000 0.1588405917
C   C24       1.0  0.63380  0.92200  0.94880  1.0000 0.1493782984
C   C25       1.0  0.63240  0.99350  0.59780  1.0000 -0.1884600324
C   C26       1.0  0.62050  0.02720  0.87800  1.0000 -0.1884600324
C   C27       1.0  0.50800  0.96850  0.64380  1.0000 0.0780602904
C   C28       1.0  0.40920  0.88050  0.91840  1.0000 0.1021355192
C   C29       1.0  0.42970  0.15300  0.56970  1.0000 0.0780602904
C   C30       1.0  0.50260  0.05320  0.83110  1.0000 0.0729851524
C   C31       1.0  0.55170  0.18380  0.52020  1.0000 -0.1986013887
C   C32       1.0  0.52490  0.84780  0.96970  1.0000 -0.1826483247
C   C33       1.0  0.79300  0.13300  0.48460  1.0000 -0.1884600324
C   C34       1.0  0.76200  0.88870  0.00170  1.0000 -0.1884600324
C   C35       1.0  0.90950  0.23540  0.58310  1.0000 0.1588405917
C   C36       1.0  0.90940  0.78520  0.90930  1.0000 0.1588405917
C   C37       1.0  0.83010  0.34430  0.55470  1.0000 -0.4045112966
C   C38       1.0  0.84120  0.67330  0.94450  1.0000 -0.4045112966
C   C39       1.0  0.84230  0.40680  0.44880  1.0000 0.6530296368
C   C40       1.0  0.86170  0.60850  0.04800  1.0000 0.6530296368
C   C41       1.0  0.01490  0.19820  0.64220  1.0000 -0.070429617
C   C42       1.0  0.02020  0.82350  0.84950  1.0000 -0.0593306063
C   C43       1.0  0.08610  0.25350  0.70160  1.0000 0.6114963653
C   C44       1.0  0.10460  0.76840  0.79080  1.0000 0.6043432714
N   N1        1.0  0.59260  0.95190  0.36870  1.0000 -0.2494445978
N   N2        1.0  0.60220  0.01930  0.14990  1.0000 -0.2376564605
N   N3        1.0  0.10770  0.85400  0.45040  1.0000 0.1178599099
N   N4        1.0  0.12530  0.12290  0.06140  1.0000 0.1321735468
N   N5        1.0  0.01910  0.94140  0.41450  1.0000 -0.0997588051
N   N6        1.0  0.04160  0.03450  0.09980  1.0000 -0.1177451176
N   N7        1.0  0.94460  0.90760  0.35940  1.0000 -0.1826483247
N   N8        1.0  0.95270  0.06780  0.15310  1.0000 -0.1884600324
N   N9        1.0  0.40740  0.04810  0.63130  1.0000 -0.2494445978
N   N10       1.0  0.39780  0.98070  0.85010  1.0000 -0.2376564605
N   N11       1.0  0.89230  0.14600  0.54960  1.0000 0.1178599099
N   N12       1.0  0.87470  0.87710  0.93860  1.0000 0.1321735468
N   N13       1.0  0.98090  0.05860  0.58550  1.0000 -0.0997588051
N   N14       1.0  0.95840  0.96550  0.90020  1.0000 -0.1177451176
N   N15       1.0  0.05540  0.09240  0.64060  1.0000 -0.1826483247
N   N16       1.0  0.04730  0.93220  0.84690  1.0000 -0.1884600324
N   N17       1.0  0.62830  0.68750  0.76550  1.0000 0.6989171268
N   N18       1.0  0.37170  0.31250  0.23450  1.0000 0.6989171268
O   O1        1.0  0.81590  0.80410  0.25290  1.0000 -0.5599383352
O   O2        1.0  0.79010  0.17860  0.24990  1.0000 -0.5599383352
O   O3        1.0  0.95300  0.65020  0.29640  1.0000 -0.6313300816
O   O4        1.0  0.93490  0.32380  0.21590  1.0000 -0.5894762514
O   O5        1.0  0.06330  0.62240  0.59980  1.0000 -0.6520623205
O   O6        1.0  0.19190  0.48850  0.91640  1.0000 -0.6136085925
O   O7        1.0  0.23990  0.51530  0.58900  1.0000 -0.6313300816
O   O8        1.0  0.07090  0.34830  0.90310  1.0000 -0.635337138
O   O9        1.0  0.10690  0.48630  0.22760  1.0000 -0.7341829775
O   O10       1.0  0.68550  0.63720  0.21130  1.0000 -0.7797298668
O   O11       1.0  0.67570  0.37240  0.27960  1.0000 -0.7959898947
O   O12       1.0  0.18410  0.19590  0.74710  1.0000 -0.5599383352
O   O13       1.0  0.20990  0.82140  0.75010  1.0000 -0.5599383352
O   O14       1.0  0.04700  0.34980  0.70360  1.0000 -0.6313300816
O   O15       1.0  0.06510  0.67620  0.78410  1.0000 -0.5894762514
O   O16       1.0  0.93670  0.37760  0.40020  1.0000 -0.6520623205
O   O17       1.0  0.80810  0.51150  0.08360  1.0000 -0.6136085925
O   O18       1.0  0.76010  0.48470  0.41100  1.0000 -0.6313300816
O   O19       1.0  0.92910  0.65170  0.09690  1.0000 -0.635337138
O   O20       1.0  0.89310  0.51370  0.77240  1.0000 -0.7353350161
O   O21       1.0  0.31450  0.36280  0.78870  1.0000 -0.7797298668
O   O22       1.0  0.32430  0.62760  0.72040  1.0000 -0.7959898947
O   O23       1.0  0.74540  0.72850  0.74280  1.0000 -0.448563659
O   O24       1.0  0.59470  0.60700  0.73700  1.0000 -0.4608569978
O   O25       1.0  0.54950  0.72450  0.81590  1.0000 -0.4400278268
O   O26       1.0  0.25460  0.27150  0.25720  1.0000 -0.448563659
O   O27       1.0  0.40530  0.39300  0.26300  1.0000 -0.4608569978
O   O28       1.0  0.45050  0.27550  0.18410  1.0000 -0.4400278268
