# DDEC6 charges by PACMAN v1.1 (https://github.com/mtap-research/PACMAN-charge/)
data_2022[CdTb][pts]3[ION]1
_chemical_formula_sum              "Tb2 Cd2 H44 C44 N18 O28"
_cell_length_a       9.9229
_cell_length_b       12.2423
_cell_length_c       14.9901
_cell_angle_alpha    71.373
_cell_angle_beta     87.307
_cell_angle_gamma    88.632

_symmetry_space_group_name_H-M    "P 1"
_symmetry_Int_Tables_number       1

loop_
  _symmetry_equiv_pos_as_xyz
  'x, y, z'

loop_
  _atom_site_type_symbol
  _atom_site_label
  _atom_site_symmetry_multiplicity
  _atom_site_fract_x
  _atom_site_fract_y
  _atom_site_fract_z
  _atom_site_occupancy
  _atom_site_charge
Tb  Tb1       1.0  0.36664  0.99816  0.24725  1.0000 1.997367454
Tb  Tb2       1.0  0.63336  0.00184  0.75275  1.0000 1.997367454
Cd  Cd1       1.0  0.72982  0.51179  0.74146  1.0000 0.7516116027
Cd  Cd2       1.0  0.27018  0.48821  0.25854  1.0000 0.7516116027
H   H1        1.0  0.10443  0.91337  0.26000  1.0000 0.3415877495
H   H2        1.0  0.18533  0.82712  0.24567  1.0000 0.360980076
H   H3        1.0  0.12008  0.11207  0.25375  1.0000 0.360980076
H   H4        1.0  0.21176  0.19970  0.21920  1.0000 0.360980076
H   H5        1.0  0.63021  0.98523  0.17212  1.0000 0.3740199927
H   H6        1.0  0.63713  0.92100  0.26710  1.0000 0.3895664189
H   H7        1.0  0.20397  0.43704  0.61101  1.0000 0.14170001
H   H8        1.0  0.19388  0.58031  0.86406  1.0000 0.14170001
H   H9        1.0  0.99253  0.38988  0.68448  1.0000 0.1118248154
H   H10       1.0  0.99643  0.62476  0.78343  1.0000 0.1014349025
H   H11       1.0  0.85864  0.70776  0.56030  1.0000 0.1167453502
H   H12       1.0  0.83596  0.32780  0.93213  1.0000 0.1118248154
H   H13       1.0  0.06296  0.75801  0.47534  1.0000 0.1500342723
H   H14       1.0  0.03044  0.27493  0.01903  1.0000 0.14170001
H   H15       1.0  0.32367  0.57153  0.45804  1.0000 0.1318993915
H   H16       1.0  0.28629  0.70589  0.43168  1.0000 0.1500342723
H   H17       1.0  0.28522  0.44801  0.03109  1.0000 0.1318993915
H   H18       1.0  0.25049  0.31441  0.05405  1.0000 0.14170001
H   H19       1.0  0.36254  0.89682  0.58810  1.0000 0.182111216
H   H20       1.0  0.23498  0.82812  0.57305  1.0000 0.1500342723
H   H21       1.0  0.37501  0.12192  0.90747  1.0000 0.159068254
H   H22       1.0  0.24315  0.18346  0.93540  1.0000 0.159068254
H   H23       1.0  0.89557  0.08663  0.74000  1.0000 0.3415877495
H   H24       1.0  0.81467  0.17288  0.75433  1.0000 0.360980076
H   H25       1.0  0.87992  0.88793  0.74625  1.0000 0.360980076
H   H26       1.0  0.78824  0.80030  0.78080  1.0000 0.360980076
H   H27       1.0  0.36979  0.01477  0.82788  1.0000 0.3740199927
H   H28       1.0  0.36287  0.07900  0.73290  1.0000 0.3895664189
H   H29       1.0  0.79603  0.56296  0.38899  1.0000 0.14170001
H   H30       1.0  0.80612  0.41969  0.13594  1.0000 0.14170001
H   H31       1.0  0.00747  0.61012  0.31552  1.0000 0.1118248154
H   H32       1.0  0.00357  0.37524  0.21657  1.0000 0.1014349025
H   H33       1.0  0.14136  0.29224  0.43970  1.0000 0.1167453502
H   H34       1.0  0.16404  0.67220  0.06787  1.0000 0.1118248154
H   H35       1.0  0.93704  0.24199  0.52466  1.0000 0.1500342723
H   H36       1.0  0.96956  0.72507  0.98097  1.0000 0.14170001
H   H37       1.0  0.67633  0.42847  0.54196  1.0000 0.1318993915
H   H38       1.0  0.71371  0.29411  0.56832  1.0000 0.1500342723
H   H39       1.0  0.71478  0.55199  0.96891  1.0000 0.1318993915
H   H40       1.0  0.74951  0.68559  0.94595  1.0000 0.14170001
H   H41       1.0  0.63746  0.10318  0.41190  1.0000 0.182111216
H   H42       1.0  0.76502  0.17188  0.42695  1.0000 0.1500342723
H   H43       1.0  0.62499  0.87808  0.09253  1.0000 0.159068254
H   H44       1.0  0.75685  0.81654  0.06460  1.0000 0.159068254
C   C1        1.0  0.15700  0.60270  0.53450  1.0000 0.159068254
C   C2        1.0  0.13500  0.42150  0.94910  1.0000 0.1500342723
C   C3        1.0  0.13360  0.49320  0.59860  1.0000 -0.1905208688
C   C4        1.0  0.12210  0.52660  0.87920  1.0000 -0.1905208688
C   C5        1.0  0.00870  0.46620  0.64390  1.0000 0.0773151342
C   C6        1.0  0.00390  0.55260  0.83170  1.0000 0.0773151342
C   C7        1.0  0.92950  0.65220  0.56990  1.0000 0.0773151342
C   C8        1.0  0.90970  0.37950  0.91840  1.0000 0.1014349025
C   C9        1.0  0.05160  0.68310  0.51950  1.0000 -0.1957160558
C   C10       1.0  0.02600  0.34690  0.97020  1.0000 -0.1821531173
C   C11       1.0  0.29350  0.63290  0.48450  1.0000 -0.1905208688
C   C12       1.0  0.26380  0.38820  0.00260  1.0000 -0.1905208688
C   C13       1.0  0.41070  0.73590  0.58310  1.0000 0.159068254
C   C14       1.0  0.41030  0.28420  0.91010  1.0000 0.1698826824
C   C15       1.0  0.33110  0.84540  0.55420  1.0000 -0.4040533181
C   C16       1.0  0.34100  0.17090  0.94510  1.0000 -0.4074108179
C   C17       1.0  0.34310  0.90820  0.44820  1.0000 0.6573445324
C   C18       1.0  0.36200  0.10740  0.04900  1.0000 0.6537659291
C   C19       1.0  0.51680  0.69880  0.64260  1.0000 -0.0721232768
C   C20       1.0  0.52100  0.32230  0.85020  1.0000 -0.0602669407
C   C21       1.0  0.58740  0.75390  0.70190  1.0000 0.6096279298
C   C22       1.0  0.60440  0.26720  0.79110  1.0000 0.6096279298
C   C23       1.0  0.84300  0.39730  0.46550  1.0000 0.159068254
C   C24       1.0  0.86500  0.57850  0.05090  1.0000 0.1500342723
C   C25       1.0  0.86640  0.50680  0.40140  1.0000 -0.1905208688
C   C26       1.0  0.87790  0.47340  0.12080  1.0000 -0.1905208688
C   C27       1.0  0.99130  0.53380  0.35610  1.0000 0.0773151342
C   C28       1.0  0.99610  0.44740  0.16830  1.0000 0.0773151342
C   C29       1.0  0.07050  0.34780  0.43010  1.0000 0.0773151342
C   C30       1.0  0.09030  0.62050  0.08160  1.0000 0.1014349025
C   C31       1.0  0.94840  0.31690  0.48050  1.0000 -0.1905208688
C   C32       1.0  0.97400  0.65310  0.02980  1.0000 -0.1821531173
C   C33       1.0  0.70650  0.36710  0.51550  1.0000 -0.1905208688
C   C34       1.0  0.73620  0.61180  0.99740  1.0000 -0.1821531173
C   C35       1.0  0.58930  0.26410  0.41690  1.0000 0.159068254
C   C36       1.0  0.58970  0.71580  0.08990  1.0000 0.1698826824
C   C37       1.0  0.66890  0.15460  0.44580  1.0000 -0.4040533181
C   C38       1.0  0.65900  0.82910  0.05490  1.0000 -0.4074108179
C   C39       1.0  0.65690  0.09180  0.55180  1.0000 0.6573445324
C   C40       1.0  0.63800  0.89260  0.95100  1.0000 0.6537659291
C   C41       1.0  0.48320  0.30120  0.35740  1.0000 -0.0721232768
C   C42       1.0  0.47900  0.67770  0.14980  1.0000 -0.0602669407
C   C43       1.0  0.41260  0.24610  0.29810  1.0000 0.6096279298
C   C44       1.0  0.39560  0.73280  0.20890  1.0000 0.6096279298
N   N1        1.0  0.90830  0.54660  0.63170  1.0000 -0.2501820501
N   N2        1.0  0.89860  0.48050  0.85060  1.0000 -0.2378308501
N   N3        1.0  0.39290  0.64560  0.54970  1.0000 0.1318993915
N   N4        1.0  0.37630  0.37620  0.93940  1.0000 0.1318993915
N   N5        1.0  0.48160  0.55920  0.58520  1.0000 -0.1017739445
N   N6        1.0  0.46060  0.46480  0.90080  1.0000 -0.1017739445
N   N7        1.0  0.55680  0.59260  0.64080  1.0000 -0.1905208688
N   N8        1.0  0.54800  0.43100  0.84750  1.0000 -0.1821531173
N   N9        1.0  0.09170  0.45340  0.36830  1.0000 -0.2501820501
N   N10       1.0  0.10140  0.51950  0.14940  1.0000 -0.2378308501
N   N11       1.0  0.60710  0.35440  0.45030  1.0000 0.1318993915
N   N12       1.0  0.62370  0.62380  0.06060  1.0000 0.1318993915
N   N13       1.0  0.51840  0.44080  0.41480  1.0000 -0.1017739445
N   N14       1.0  0.53940  0.53520  0.09920  1.0000 -0.1017739445
N   N15       1.0  0.44320  0.40740  0.35920  1.0000 -0.1905208688
N   N16       1.0  0.45200  0.56900  0.15250  1.0000 -0.1821531173
N   N17       1.0  0.87160  0.81310  0.23430  1.0000 0.6914838676
N   N18       1.0  0.12840  0.18690  0.76570  1.0000 0.6914838676
O   O1        1.0  0.68560  0.69680  0.74760  1.0000 -0.5647362348
O   O2        1.0  0.71020  0.32020  0.75040  1.0000 -0.5450388666
O   O3        1.0  0.54810  0.85020  0.70370  1.0000 -0.601809847
O   O4        1.0  0.56440  0.17470  0.78460  1.0000 -0.6173376318
O   O5        1.0  0.43610  0.87870  0.39930  1.0000 -0.64401226
O   O6        1.0  0.42950  0.15060  0.09810  1.0000 -0.6295552428
O   O7        1.0  0.25960  0.98550  0.41040  1.0000 -0.6295552428
O   O8        1.0  0.30690  0.01120  0.08490  1.0000 -0.6173376318
O   O9        1.0  0.17700  0.87310  0.27940  1.0000 -0.7863111969
O   O10       1.0  0.18600  0.13560  0.21210  1.0000 -0.7701218005
O   O11       1.0  0.60660  0.98740  0.22930  1.0000 -0.7555945989
O   O12       1.0  0.31440  0.30320  0.25240  1.0000 -0.5647362348
O   O13       1.0  0.28980  0.67980  0.24960  1.0000 -0.5440552112
O   O14       1.0  0.45190  0.14980  0.29630  1.0000 -0.601809847
O   O15       1.0  0.43560  0.82530  0.21540  1.0000 -0.6173376318
O   O16       1.0  0.56390  0.12130  0.60070  1.0000 -0.64401226
O   O17       1.0  0.57050  0.84940  0.90190  1.0000 -0.6295552428
O   O18       1.0  0.74040  0.01450  0.58960  1.0000 -0.6295552428
O   O19       1.0  0.69310  0.98880  0.91510  1.0000 -0.6173376318
O   O20       1.0  0.82300  0.12690  0.72060  1.0000 -0.7863111969
O   O21       1.0  0.81400  0.86440  0.78790  1.0000 -0.7701218005
O   O22       1.0  0.39340  0.01260  0.77070  1.0000 -0.7555945989
O   O23       1.0  0.75440  0.77170  0.25680  1.0000 -0.4624510731
O   O24       1.0  0.95000  0.77690  0.18380  1.0000 -0.4233119961
O   O25       1.0  0.90560  0.89280  0.26280  1.0000 -0.4290133294
O   O26       1.0  0.24560  0.22830  0.74320  1.0000 -0.4624510731
O   O27       1.0  0.05000  0.22310  0.81620  1.0000 -0.4233119961
O   O28       1.0  0.09440  0.10720  0.73720  1.0000 -0.4290133294
