# DDEC6 charges by PACMAN v1.1 (https://github.com/mtap-research/PACMAN-charge/)
data_2023[Ni][dia]3[ION]8
_chemical_formula_sum              "Ni4 H72 C76 N16 O24"
_cell_length_a       9.9642
_cell_length_b       16.6523
_cell_length_c       17.6594
_cell_angle_alpha    90
_cell_angle_beta     90
_cell_angle_gamma    90

_symmetry_space_group_name_H-M    "P 1"
_symmetry_Int_Tables_number       1

loop_
  _symmetry_equiv_pos_as_xyz
  'x, y, z'

loop_
  _atom_site_type_symbol
  _atom_site_label
  _atom_site_symmetry_multiplicity
  _atom_site_fract_x
  _atom_site_fract_y
  _atom_site_fract_z
  _atom_site_occupancy
  _atom_site_charge
Ni  Ni1       1.0  0.63882  0.72971  0.44778  1.0000 0.7046419023
Ni  Ni2       1.0  0.86118  0.27029  0.94778  1.0000 0.7046419023
Ni  Ni3       1.0  0.36118  0.22971  0.05222  1.0000 0.7046419023
Ni  Ni4       1.0  0.13882  0.77029  0.55222  1.0000 0.7046419023
H   H1        1.0  0.75898  0.80233  0.55886  1.0000 0.2690275399
H   H2        1.0  0.74102  0.19767  0.05886  1.0000 0.2690275399
H   H3        1.0  0.24102  0.30233  0.94114  1.0000 0.2690275399
H   H4        1.0  0.25898  0.69767  0.44114  1.0000 0.2690275399
H   H5        1.0  0.45530  0.58821  0.44768  1.0000 0.1006426191
H   H6        1.0  0.04470  0.41179  0.94768  1.0000 0.1006426191
H   H7        1.0  0.54470  0.08821  0.05232  1.0000 0.1006426191
H   H8        1.0  0.95530  0.91179  0.55232  1.0000 0.1006426191
H   H9        1.0  0.60151  0.31990  0.10649  1.0000 0.1078876736
H   H10       1.0  0.89849  0.68010  0.60649  1.0000 0.1078876736
H   H11       1.0  0.39849  0.81990  0.39351  1.0000 0.1078876736
H   H12       1.0  0.10151  0.18010  0.89351  1.0000 0.1078876736
H   H13       1.0  0.80428  0.91096  0.42947  1.0000 0.1188733007
H   H14       1.0  0.69572  0.08904  0.92947  1.0000 0.1188733007
H   H15       1.0  0.19572  0.41096  0.07053  1.0000 0.1188733007
H   H16       1.0  0.30428  0.58904  0.57053  1.0000 0.1188733007
H   H17       1.0  0.28468  0.42467  0.26858  1.0000 0.1274527749
H   H18       1.0  0.21532  0.57533  0.76858  1.0000 0.1274527749
H   H19       1.0  0.71532  0.92467  0.23142  1.0000 0.1274527749
H   H20       1.0  0.78468  0.07533  0.73142  1.0000 0.1274527749
H   H21       1.0  0.38825  0.48239  0.37194  1.0000 0.1274527749
H   H22       1.0  0.11175  0.51761  0.87194  1.0000 0.1274527749
H   H23       1.0  0.61175  0.98239  0.12806  1.0000 0.1274527749
H   H24       1.0  0.88825  0.01761  0.62806  1.0000 0.1274527749
H   H25       1.0  0.23293  0.32174  0.18668  1.0000 0.1006426191
H   H26       1.0  0.26707  0.67826  0.68668  1.0000 0.1006426191
H   H27       1.0  0.76707  0.82174  0.31332  1.0000 0.1006426191
H   H28       1.0  0.73293  0.17826  0.81332  1.0000 0.1006426191
H   H29       1.0  0.79290  0.05223  0.42300  1.0000 0.1078876736
H   H30       1.0  0.70710  0.94777  0.92300  1.0000 0.1078876736
H   H31       1.0  0.20710  0.55223  0.07700  1.0000 0.1078876736
H   H32       1.0  0.29290  0.44777  0.57700  1.0000 0.1078876736
H   H33       1.0  0.66269  0.42397  0.18503  1.0000 0.1274527749
H   H34       1.0  0.83731  0.57603  0.68503  1.0000 0.1274527749
H   H35       1.0  0.33731  0.92397  0.31497  1.0000 0.1274527749
H   H36       1.0  0.16269  0.07603  0.81497  1.0000 0.1274527749
H   H37       1.0  0.71216  0.66156  0.29349  1.0000 0.1078876736
H   H38       1.0  0.78784  0.33844  0.79349  1.0000 0.1078876736
H   H39       1.0  0.28784  0.16156  0.20651  1.0000 0.1078876736
H   H40       1.0  0.21216  0.83844  0.70651  1.0000 0.1078876736
H   H41       1.0  0.44539  0.89893  0.63714  1.0000 0.1274527749
H   H42       1.0  0.05461  0.10107  0.13714  1.0000 0.1274527749
H   H43       1.0  0.55461  0.39893  0.86286  1.0000 0.1274527749
H   H44       1.0  0.94539  0.60107  0.36286  1.0000 0.1274527749
H   H45       1.0  0.58812  0.89244  0.67979  1.0000 0.1274527749
H   H46       1.0  0.91188  0.10756  0.17979  1.0000 0.1274527749
H   H47       1.0  0.41188  0.39244  0.82021  1.0000 0.1274527749
H   H48       1.0  0.08812  0.60756  0.32021  1.0000 0.1274527749
H   H49       1.0  0.65867  0.55614  0.21525  1.0000 0.1362548558
H   H50       1.0  0.84133  0.44386  0.71525  1.0000 0.1362548558
H   H51       1.0  0.34133  0.05614  0.28475  1.0000 0.1362548558
H   H52       1.0  0.15867  0.94386  0.78475  1.0000 0.1362548558
H   H53       1.0  0.59930  0.76743  0.63314  1.0000 0.1078876736
H   H54       1.0  0.90070  0.23257  0.13314  1.0000 0.1078876736
H   H55       1.0  0.40070  0.26743  0.86686  1.0000 0.1078876736
H   H56       1.0  0.09930  0.73257  0.36686  1.0000 0.1078876736
H   H57       1.0  0.66105  0.12412  0.50745  1.0000 0.1078876736
H   H58       1.0  0.83895  0.87588  0.00745  1.0000 0.1078876736
H   H59       1.0  0.33895  0.62412  0.99255  1.0000 0.1078876736
H   H60       1.0  0.16105  0.37588  0.49255  1.0000 0.1078876736
H   H61       1.0  0.54739  0.05846  0.60535  1.0000 0.1188733007
H   H62       1.0  0.95261  0.94154  0.10535  1.0000 0.1188733007
H   H63       1.0  0.45261  0.55846  0.89465  1.0000 0.1188733007
H   H64       1.0  0.04739  0.44154  0.39465  1.0000 0.1188733007
H   H65       1.0  0.62200  0.63800  0.56600  1.0000 0.358348736
H   H66       1.0  0.87800  0.36200  0.06600  1.0000 0.358348736
H   H67       1.0  0.37800  0.13800  0.93400  1.0000 0.358348736
H   H68       1.0  0.12200  0.86200  0.43400  1.0000 0.358348736
H   H69       1.0  0.73300  0.60300  0.52000  1.0000 0.3775357096
H   H70       1.0  0.76700  0.39700  0.02000  1.0000 0.3775357096
H   H71       1.0  0.26700  0.10300  0.98000  1.0000 0.3775357096
H   H72       1.0  0.23300  0.89700  0.48000  1.0000 0.3775357096
C   C1        1.0  0.49600  0.58170  0.39940  1.0000 0.0822215801
C   C2        1.0  0.00400  0.41830  0.89940  1.0000 0.0822215801
C   C3        1.0  0.50400  0.08170  0.10060  1.0000 0.0822215801
C   C4        1.0  0.99600  0.91830  0.60060  1.0000 0.0822215801
C   C5        1.0  0.53570  0.34250  0.13910  1.0000 0.0731916906
C   C6        1.0  0.96430  0.65750  0.63910  1.0000 0.0731916906
C   C7        1.0  0.46430  0.84250  0.36090  1.0000 0.0731916906
C   C8        1.0  0.03570  0.15750  0.86090  1.0000 0.0731916906
C   C9        1.0  0.67880  0.90290  0.52120  1.0000 0.1451747654
C   C10       1.0  0.82120  0.09710  0.02120  1.0000 0.1451747654
C   C11       1.0  0.32120  0.40290  0.97880  1.0000 0.1451747654
C   C12       1.0  0.17880  0.59710  0.47880  1.0000 0.1451747654
C   C13       1.0  0.43890  0.77135  0.55638  1.0000 0.5658819465
C   C14       1.0  0.06110  0.22865  0.05638  1.0000 0.5658819465
C   C15       1.0  0.56110  0.27135  0.94362  1.0000 0.5658819465
C   C16       1.0  0.93890  0.72865  0.44362  1.0000 0.5658819465
C   C17       1.0  0.75160  0.94070  0.46440  1.0000 -0.1976691993
C   C18       1.0  0.74840  0.05930  0.96440  1.0000 -0.1976691993
C   C19       1.0  0.24840  0.44070  0.03560  1.0000 -0.1976691993
C   C20       1.0  0.25160  0.55930  0.53560  1.0000 -0.1976691993
C   C21       1.0  0.35140  0.40470  0.23510  1.0000 -0.189135619
C   C22       1.0  0.14860  0.59530  0.73510  1.0000 -0.189135619
C   C23       1.0  0.64860  0.90470  0.26490  1.0000 -0.189135619
C   C24       1.0  0.85140  0.09530  0.76490  1.0000 -0.189135619
C   C25       1.0  0.45630  0.51800  0.35480  1.0000 -0.189135619
C   C26       1.0  0.04370  0.48200  0.85480  1.0000 -0.189135619
C   C27       1.0  0.54370  0.01800  0.14520  1.0000 -0.189135619
C   C28       1.0  0.95630  0.98200  0.64520  1.0000 -0.189135619
C   C29       1.0  0.60300  0.94540  0.57330  1.0000 0.0437693013
C   C30       1.0  0.89700  0.05460  0.07330  1.0000 0.0437693013
C   C31       1.0  0.39700  0.44540  0.92670  1.0000 0.0437693013
C   C32       1.0  0.10300  0.55460  0.42670  1.0000 0.0437693013
C   C33       1.0  0.32110  0.34340  0.18592  1.0000 0.0731916906
C   C34       1.0  0.17890  0.65660  0.68592  1.0000 0.0731916906
C   C35       1.0  0.67890  0.84340  0.31408  1.0000 0.0731916906
C   C36       1.0  0.82110  0.15660  0.81408  1.0000 0.0731916906
C   C37       1.0  0.51680  0.50610  0.28430  1.0000 0.1188733007
C   C38       1.0  0.98320  0.49390  0.78430  1.0000 0.1188733007
C   C39       1.0  0.48320  0.00610  0.21570  1.0000 0.1188733007
C   C40       1.0  0.01680  0.99390  0.71570  1.0000 0.1188733007
C   C41       1.0  0.47940  0.43740  0.23570  1.0000 0.1078876736
C   C42       1.0  0.02060  0.56260  0.73570  1.0000 0.1078876736
C   C43       1.0  0.52060  0.93740  0.26430  1.0000 0.1078876736
C   C44       1.0  0.97940  0.06260  0.76430  1.0000 0.1078876736
C   C45       1.0  0.74410  0.02430  0.46100  1.0000 -0.0941542262
C   C46       1.0  0.75590  0.97570  0.96100  1.0000 -0.0941542262
C   C47       1.0  0.25590  0.52430  0.03900  1.0000 -0.0941542262
C   C48       1.0  0.24410  0.47570  0.53900  1.0000 -0.0941542262
C   C49       1.0  0.57330  0.40410  0.18620  1.0000 -0.189135619
C   C50       1.0  0.92670  0.59590  0.68620  1.0000 -0.189135619
C   C51       1.0  0.42670  0.90410  0.31380  1.0000 -0.189135619
C   C52       1.0  0.07330  0.09590  0.81380  1.0000 -0.189135619
C   C53       1.0  0.64640  0.62410  0.30980  1.0000 0.0822215801
C   C54       1.0  0.85360  0.37590  0.80980  1.0000 0.0822215801
C   C55       1.0  0.35360  0.12410  0.19020  1.0000 0.0822215801
C   C56       1.0  0.14640  0.87590  0.69020  1.0000 0.0822215801
C   C57       1.0  0.54240  0.88830  0.63020  1.0000 -0.2535665246
C   C58       1.0  0.95760  0.11170  0.13020  1.0000 -0.2535665246
C   C59       1.0  0.45760  0.38830  0.86980  1.0000 -0.2535665246
C   C60       1.0  0.04240  0.61170  0.36980  1.0000 -0.2535665246
C   C61       1.0  0.61440  0.56160  0.26260  1.0000 -0.189135619
C   C62       1.0  0.88560  0.43840  0.76260  1.0000 -0.189135619
C   C63       1.0  0.38560  0.06160  0.23740  1.0000 -0.189135619
C   C64       1.0  0.11440  0.93840  0.73740  1.0000 -0.189135619
C   C65       1.0  0.56600  0.80580  0.59385  1.0000 -0.0087428899
C   C66       1.0  0.93400  0.19420  0.09385  1.0000 -0.0087428899
C   C67       1.0  0.43400  0.30580  0.90615  1.0000 -0.0087428899
C   C68       1.0  0.06600  0.69420  0.40615  1.0000 -0.0087428899
C   C69       1.0  0.66680  0.06740  0.51190  1.0000 -0.1177492724
C   C70       1.0  0.83320  0.93260  0.01190  1.0000 -0.1177492724
C   C71       1.0  0.33320  0.56740  0.98810  1.0000 -0.1177492724
C   C72       1.0  0.16680  0.43260  0.48810  1.0000 -0.1177492724
C   C73       1.0  0.59760  0.02860  0.56930  1.0000 -0.1556084068
C   C74       1.0  0.90240  0.97140  0.06930  1.0000 -0.154943979
C   C75       1.0  0.40240  0.52860  0.93070  1.0000 -0.1556084068
C   C76       1.0  0.09760  0.47140  0.43070  1.0000 -0.1556084068
N   N1        1.0  0.58930  0.63485  0.37776  1.0000 -0.2292212961
N   N2        1.0  0.91070  0.36515  0.87776  1.0000 -0.2292212961
N   N3        1.0  0.41070  0.13485  0.12224  1.0000 -0.2292212961
N   N4        1.0  0.08930  0.86515  0.62224  1.0000 -0.2292212961
N   N5        1.0  0.41050  0.31252  0.13671  1.0000 -0.2292212961
N   N6        1.0  0.08950  0.68748  0.63671  1.0000 -0.2292212961
N   N7        1.0  0.58950  0.81252  0.36329  1.0000 -0.2292212961
N   N8        1.0  0.91050  0.18748  0.86329  1.0000 -0.2292212961
N   N9        1.0  0.67200  0.81726  0.53432  1.0000 -0.3923538836
N   N10       1.0  0.82800  0.18274  0.03432  1.0000 -0.3923538836
N   N11       1.0  0.32800  0.31726  0.96568  1.0000 -0.3923538836
N   N12       1.0  0.17200  0.68274  0.46568  1.0000 -0.3923538836
N   N13       1.0  0.01780  0.94380  0.31870  1.0000 0.6502065895
N   N14       1.0  0.48220  0.05620  0.81870  1.0000 0.6502065895
N   N15       1.0  0.98220  0.44380  0.18130  1.0000 0.6502065895
N   N16       1.0  0.51780  0.55620  0.68130  1.0000 0.6502065895
O   O1        1.0  0.45090  0.73443  0.49416  1.0000 -0.5594046028
O   O2        1.0  0.04910  0.26557  0.99416  1.0000 -0.5594046028
O   O3        1.0  0.54910  0.23443  0.00584  1.0000 -0.5594046028
O   O4        1.0  0.95090  0.76557  0.50584  1.0000 -0.5594046028
O   O5        1.0  0.33120  0.78046  0.59179  1.0000 -0.5413212688
O   O6        1.0  0.16880  0.21954  0.09179  1.0000 -0.5413212688
O   O7        1.0  0.66880  0.28046  0.90821  1.0000 -0.5413212688
O   O8        1.0  0.83120  0.71954  0.40821  1.0000 -0.5413212688
O   O9        1.0  0.68920  0.64780  0.53458  1.0000 -0.6961315187
O   O10       1.0  0.81080  0.35220  0.03458  1.0000 -0.6961315187
O   O11       1.0  0.31080  0.14780  0.96542  1.0000 -0.6961315187
O   O12       1.0  0.18920  0.85220  0.46542  1.0000 -0.6961315187
O   O13       1.0  0.01230  0.87250  0.33870  1.0000 -0.4141750844
O   O14       1.0  0.97130  0.96660  0.26020  1.0000 -0.3749568971
O   O15       1.0  0.07450  0.98820  0.36350  1.0000 -0.3806591046
O   O16       1.0  0.48770  0.12750  0.83870  1.0000 -0.4141750844
O   O17       1.0  0.52870  0.03340  0.76020  1.0000 -0.3749568971
O   O18       1.0  0.42550  0.01180  0.86350  1.0000 -0.3806591046
O   O19       1.0  0.98770  0.37250  0.16130  1.0000 -0.4141750844
O   O20       1.0  0.02870  0.46660  0.23980  1.0000 -0.3806591046
O   O21       1.0  0.92550  0.48820  0.13650  1.0000 -0.3806591046
O   O22       1.0  0.51230  0.62750  0.66130  1.0000 -0.4141750844
O   O23       1.0  0.47130  0.53340  0.73980  1.0000 -0.3806591046
O   O24       1.0  0.57450  0.51180  0.63650  1.0000 -0.3806591046
