# DDEC6 charges by PACMAN v1.1 (https://github.com/mtap-research/PACMAN-charge/)
data_2023[ZnTi][nan]3[ION]6
_chemical_formula_sum              "Ti8 Zn6 H266 C384 N32 O78"
_cell_length_a       20.7724
_cell_length_b       20.7724
_cell_length_c       30.6933
_cell_angle_alpha    90
_cell_angle_beta     90
_cell_angle_gamma    120

_symmetry_space_group_name_H-M    "P 1"
_symmetry_Int_Tables_number       1

loop_
  _symmetry_equiv_pos_as_xyz
  'x, y, z'

loop_
  _atom_site_type_symbol
  _atom_site_label
  _atom_site_symmetry_multiplicity
  _atom_site_fract_x
  _atom_site_fract_y
  _atom_site_fract_z
  _atom_site_occupancy
  _atom_site_charge
Ti  Ti1       1.0  0.33333  0.66667  0.61434  1.0000 1.9100916703
Ti  Ti2       1.0  0.66667  0.33333  0.11434  1.0000 1.9100916703
Ti  Ti3       1.0  0.43277  0.48664  0.37322  1.0000 1.8994696458
Ti  Ti4       1.0  0.94613  0.43277  0.87322  1.0000 1.8994696458
Ti  Ti5       1.0  0.51336  0.94613  0.37322  1.0000 1.8994696458
Ti  Ti6       1.0  0.56723  0.51336  0.87322  1.0000 1.8994696458
Ti  Ti7       1.0  0.05387  0.56723  0.37322  1.0000 1.8994696458
Ti  Ti8       1.0  0.48664  0.05387  0.87322  1.0000 1.8994696458
Zn  Zn1       1.0  0.73312  0.15996  0.36340  1.0000 0.7418405731
Zn  Zn2       1.0  0.57316  0.73312  0.86340  1.0000 0.7418405731
Zn  Zn3       1.0  0.84004  0.57316  0.36340  1.0000 0.7418405731
Zn  Zn4       1.0  0.26688  0.84004  0.86340  1.0000 0.7418405731
Zn  Zn5       1.0  0.42684  0.26688  0.36340  1.0000 0.7418405731
Zn  Zn6       1.0  0.15996  0.42684  0.86340  1.0000 0.7418405731
H   H1        1.0  0.51834  0.67319  0.72880  1.0000 0.3295931438
H   H2        1.0  0.84515  0.51834  0.22880  1.0000 0.3295931438
H   H3        1.0  0.32681  0.84515  0.72880  1.0000 0.3295931438
H   H4        1.0  0.48166  0.32681  0.22880  1.0000 0.3295931438
H   H5        1.0  0.15485  0.48166  0.72880  1.0000 0.3295931438
H   H6        1.0  0.67319  0.15485  0.22880  1.0000 0.3295931438
H   H7        1.0  0.50380  0.60273  0.73289  1.0000 0.3208722989
H   H8        1.0  0.90107  0.50380  0.23289  1.0000 0.3208722989
H   H9        1.0  0.39727  0.90107  0.73289  1.0000 0.3208722989
H   H10       1.0  0.49620  0.39727  0.23289  1.0000 0.3208722989
H   H11       1.0  0.09893  0.49620  0.73289  1.0000 0.3208722989
H   H12       1.0  0.60273  0.09893  0.23289  1.0000 0.3208722989
H   H13       1.0  0.40348  0.59559  0.51874  1.0000 0.1295906248
H   H14       1.0  0.80789  0.40348  0.01874  1.0000 0.1295906248
H   H15       1.0  0.40441  0.80789  0.51874  1.0000 0.1295906248
H   H16       1.0  0.59652  0.40441  0.01874  1.0000 0.1295906248
H   H17       1.0  0.19211  0.59652  0.51874  1.0000 0.1295906248
H   H18       1.0  0.59559  0.19211  0.01874  1.0000 0.1295906248
H   H19       1.0  0.36459  0.53776  0.48116  1.0000 0.1204195199
H   H20       1.0  0.82683  0.36459  0.98116  1.0000 0.1204195199
H   H21       1.0  0.46224  0.82683  0.48116  1.0000 0.1204195199
H   H22       1.0  0.63541  0.46224  0.98116  1.0000 0.1204195199
H   H23       1.0  0.17317  0.63541  0.48116  1.0000 0.1204195199
H   H24       1.0  0.53776  0.17317  0.98116  1.0000 0.1204195199
H   H25       1.0  0.64216  0.19717  0.34827  1.0000 0.3106778135
H   H26       1.0  0.44499  0.64216  0.84827  1.0000 0.3106778135
H   H27       1.0  0.80283  0.44499  0.34827  1.0000 0.3106778135
H   H28       1.0  0.35784  0.80283  0.84827  1.0000 0.3106778135
H   H29       1.0  0.55501  0.35784  0.34827  1.0000 0.3106778135
H   H30       1.0  0.19717  0.55501  0.84827  1.0000 0.3106778135
H   H31       1.0  0.60332  0.11640  0.34827  1.0000 0.3106778135
H   H32       1.0  0.48692  0.60332  0.84827  1.0000 0.3106778135
H   H33       1.0  0.88360  0.48692  0.34827  1.0000 0.3106778135
H   H34       1.0  0.39668  0.88360  0.84827  1.0000 0.3106778135
H   H35       1.0  0.51308  0.39668  0.34827  1.0000 0.3106778135
H   H36       1.0  0.11640  0.51308  0.84827  1.0000 0.3106778135
H   H37       1.0  0.64566  0.15736  0.31021  1.0000 0.3208722989
H   H38       1.0  0.48830  0.64566  0.81021  1.0000 0.3208722989
H   H39       1.0  0.84264  0.48830  0.31021  1.0000 0.3208722989
H   H40       1.0  0.35434  0.84264  0.81021  1.0000 0.3208722989
H   H41       1.0  0.51170  0.35434  0.31021  1.0000 0.3208722989
H   H42       1.0  0.15736  0.51170  0.81021  1.0000 0.3208722989
H   H43       1.0  0.60382  0.48456  0.50114  1.0000 0.1134156104
H   H44       1.0  0.11926  0.60382  0.00114  1.0000 0.1134156104
H   H45       1.0  0.51544  0.11926  0.50114  1.0000 0.1134156104
H   H46       1.0  0.39618  0.51544  0.00114  1.0000 0.1134156104
H   H47       1.0  0.88074  0.39618  0.50114  1.0000 0.1134156104
H   H48       1.0  0.48456  0.88074  0.00114  1.0000 0.1134156104
H   H49       1.0  0.19308  0.37082  0.62800  1.0000 0.1204195199
H   H50       1.0  0.82226  0.19308  0.12800  1.0000 0.1204195199
H   H51       1.0  0.62918  0.82226  0.62800  1.0000 0.1204195199
H   H52       1.0  0.80692  0.62918  0.12800  1.0000 0.1204195199
H   H53       1.0  0.17774  0.80692  0.62800  1.0000 0.1204195199
H   H54       1.0  0.37082  0.17774  0.12800  1.0000 0.1204195199
H   H55       1.0  0.45025  0.58141  0.58812  1.0000 0.1295906248
H   H56       1.0  0.86884  0.45025  0.08812  1.0000 0.1295906248
H   H57       1.0  0.41859  0.86884  0.58812  1.0000 0.1295906248
H   H58       1.0  0.54975  0.41859  0.08812  1.0000 0.1295906248
H   H59       1.0  0.13116  0.54975  0.58812  1.0000 0.1295906248
H   H60       1.0  0.58141  0.13116  0.08812  1.0000 0.1295906248
H   H61       1.0  0.68456  0.09453  0.45714  1.0000 0.1295906248
H   H62       1.0  0.59003  0.68456  0.95714  1.0000 0.1295906248
H   H63       1.0  0.90547  0.59003  0.45714  1.0000 0.1295906248
H   H64       1.0  0.31544  0.90547  0.95714  1.0000 0.1295906248
H   H65       1.0  0.40997  0.31544  0.45714  1.0000 0.1295906248
H   H66       1.0  0.09453  0.40997  0.95714  1.0000 0.1295906248
H   H67       1.0  0.47610  0.57110  0.20898  1.0000 0.1204195199
H   H68       1.0  0.90500  0.47610  0.70898  1.0000 0.1204195199
H   H69       1.0  0.42890  0.90500  0.20898  1.0000 0.1204195199
H   H70       1.0  0.52390  0.42890  0.70898  1.0000 0.1204195199
H   H71       1.0  0.09500  0.52390  0.20898  1.0000 0.1204195199
H   H72       1.0  0.57110  0.09500  0.70898  1.0000 0.1204195199
H   H73       1.0  0.48535  0.74825  0.35141  1.0000 0.1295906248
H   H74       1.0  0.73710  0.48535  0.85141  1.0000 0.1295906248
H   H75       1.0  0.25175  0.73710  0.35141  1.0000 0.1295906248
H   H76       1.0  0.51465  0.25175  0.85141  1.0000 0.1295906248
H   H77       1.0  0.26290  0.51465  0.35141  1.0000 0.1295906248
H   H78       1.0  0.74825  0.26290  0.85141  1.0000 0.1295906248
H   H79       1.0  0.51481  0.70085  0.37440  1.0000 0.1295906248
H   H80       1.0  0.81396  0.51481  0.87440  1.0000 0.1295906248
H   H81       1.0  0.29915  0.81396  0.37440  1.0000 0.1295906248
H   H82       1.0  0.48519  0.29915  0.87440  1.0000 0.1295906248
H   H83       1.0  0.18604  0.48519  0.37440  1.0000 0.1295906248
H   H84       1.0  0.70085  0.18604  0.87440  1.0000 0.1295906248
H   H85       1.0  0.32467  0.40655  0.47603  1.0000 0.1295906248
H   H86       1.0  0.91812  0.32467  0.97603  1.0000 0.1295906248
H   H87       1.0  0.59345  0.91812  0.47603  1.0000 0.1295906248
H   H88       1.0  0.67533  0.59345  0.97603  1.0000 0.1295906248
H   H89       1.0  0.08188  0.67533  0.47603  1.0000 0.1295906248
H   H90       1.0  0.40655  0.08188  0.97603  1.0000 0.1295906248
H   H91       1.0  0.25958  0.28202  0.46900  1.0000 0.1134156104
H   H92       1.0  0.97756  0.25958  0.96900  1.0000 0.1134156104
H   H93       1.0  0.71798  0.97756  0.46900  1.0000 0.1134156104
H   H94       1.0  0.74042  0.71798  0.96900  1.0000 0.1134156104
H   H95       1.0  0.02244  0.74042  0.46900  1.0000 0.1134156104
H   H96       1.0  0.28202  0.02244  0.96900  1.0000 0.1134156104
H   H97       1.0  0.54122  0.82510  0.28408  1.0000 0.1204195199
H   H98       1.0  0.71612  0.54122  0.78408  1.0000 0.1204195199
H   H99       1.0  0.17490  0.71612  0.28408  1.0000 0.1204195199
H   H100      1.0  0.45878  0.17490  0.78408  1.0000 0.1204195199
H   H101      1.0  0.28388  0.45878  0.28408  1.0000 0.1204195199
H   H102      1.0  0.82510  0.28388  0.78408  1.0000 0.1204195199
H   H103      1.0  0.52100  0.58992  0.64793  1.0000 0.1204195199
H   H104      1.0  0.93108  0.52100  0.14793  1.0000 0.1204195199
H   H105      1.0  0.41008  0.93108  0.64793  1.0000 0.1204195199
H   H106      1.0  0.47900  0.41008  0.14793  1.0000 0.1204195199
H   H107      1.0  0.06892  0.47900  0.64793  1.0000 0.1204195199
H   H108      1.0  0.58992  0.06892  0.14793  1.0000 0.1204195199
H   H109      1.0  0.62982  0.51184  0.58032  1.0000 0.1204195199
H   H110      1.0  0.11798  0.62982  0.08032  1.0000 0.1204195199
H   H111      1.0  0.48816  0.11798  0.58032  1.0000 0.1204195199
H   H112      1.0  0.37018  0.48816  0.08032  1.0000 0.1204195199
H   H113      1.0  0.88202  0.37018  0.58032  1.0000 0.1204195199
H   H114      1.0  0.51184  0.88202  0.08032  1.0000 0.1204195199
H   H115      1.0  0.55117  0.87157  0.21489  1.0000 0.1204195199
H   H116      1.0  0.67960  0.55117  0.71489  1.0000 0.1204195199
H   H117      1.0  0.12843  0.67960  0.21489  1.0000 0.1204195199
H   H118      1.0  0.44883  0.12843  0.71489  1.0000 0.1204195199
H   H119      1.0  0.32040  0.44883  0.21489  1.0000 0.1204195199
H   H120      1.0  0.87157  0.32040  0.71489  1.0000 0.1204195199
H   H121      1.0  0.50990  0.68043  0.16226  1.0000 0.1204195199
H   H122      1.0  0.82947  0.50990  0.66226  1.0000 0.1204195199
H   H123      1.0  0.31957  0.82947  0.16226  1.0000 0.1204195199
H   H124      1.0  0.49010  0.31957  0.66226  1.0000 0.1204195199
H   H125      1.0  0.17053  0.49010  0.16226  1.0000 0.1204195199
H   H126      1.0  0.68043  0.17053  0.66226  1.0000 0.1204195199
H   H127      1.0  0.56516  0.97900  0.64967  1.0000 0.1134156104
H   H128      1.0  0.58616  0.56516  0.14967  1.0000 0.1134156104
H   H129      1.0  0.02100  0.58616  0.64967  1.0000 0.1134156104
H   H130      1.0  0.43484  0.02100  0.14967  1.0000 0.1134156104
H   H131      1.0  0.41384  0.43484  0.64967  1.0000 0.1134156104
H   H132      1.0  0.97900  0.41384  0.14967  1.0000 0.1134156104
H   H133      1.0  0.52328  0.91299  0.71432  1.0000 0.1379141395
H   H134      1.0  0.61029  0.52328  0.21432  1.0000 0.1379141395
H   H135      1.0  0.08701  0.61029  0.71432  1.0000 0.1379141395
H   H136      1.0  0.47672  0.08701  0.21432  1.0000 0.1379141395
H   H137      1.0  0.38971  0.47672  0.71432  1.0000 0.1379141395
H   H138      1.0  0.91299  0.38971  0.21432  1.0000 0.1379141395
H   H139      1.0  0.73290  0.96944  0.74553  1.0000 0.1295906248
H   H140      1.0  0.76346  0.73290  0.24553  1.0000 0.1295906248
H   H141      1.0  0.03056  0.76346  0.74553  1.0000 0.1295906248
H   H142      1.0  0.26710  0.03056  0.24553  1.0000 0.1295906248
H   H143      1.0  0.23654  0.26710  0.74553  1.0000 0.1295906248
H   H144      1.0  0.96944  0.23654  0.24553  1.0000 0.1295906248
H   H145      1.0  0.77479  0.03546  0.68087  1.0000 0.1134156104
H   H146      1.0  0.73933  0.77479  0.18087  1.0000 0.1134156104
H   H147      1.0  0.96454  0.73933  0.68087  1.0000 0.1134156104
H   H148      1.0  0.22521  0.96454  0.18087  1.0000 0.1134156104
H   H149      1.0  0.26067  0.22521  0.68087  1.0000 0.1134156104
H   H150      1.0  0.03546  0.26067  0.18087  1.0000 0.1134156104
H   H151      1.0  0.16963  0.25879  0.58782  1.0000 0.1204195199
H   H152      1.0  0.91084  0.16963  0.08782  1.0000 0.1204195199
H   H153      1.0  0.74121  0.91084  0.58782  1.0000 0.1204195199
H   H154      1.0  0.83037  0.74121  0.08782  1.0000 0.1204195199
H   H155      1.0  0.08916  0.83037  0.58782  1.0000 0.1204195199
H   H156      1.0  0.25879  0.08916  0.08782  1.0000 0.1204195199
H   H157      1.0  0.18407  0.20769  0.52540  1.0000 0.1134156104
H   H158      1.0  0.97638  0.18407  0.02540  1.0000 0.1134156104
H   H159      1.0  0.79231  0.97638  0.52540  1.0000 0.1134156104
H   H160      1.0  0.81593  0.79231  0.02540  1.0000 0.1134156104
H   H161      1.0  0.02362  0.81593  0.52540  1.0000 0.1134156104
H   H162      1.0  0.20769  0.02362  0.02540  1.0000 0.1134156104
H   H163      1.0  0.84903  0.16306  0.55986  1.0000 0.1295906248
H   H164      1.0  0.68597  0.84903  0.05986  1.0000 0.1295906248
H   H165      1.0  0.83694  0.68597  0.55986  1.0000 0.1295906248
H   H166      1.0  0.15097  0.83694  0.05986  1.0000 0.1295906248
H   H167      1.0  0.31403  0.15097  0.55986  1.0000 0.1295906248
H   H168      1.0  0.16306  0.31403  0.05986  1.0000 0.1295906248
H   H169      1.0  0.60320  0.54355  0.64461  1.0000 0.1204195199
H   H170      1.0  0.05965  0.60320  0.14461  1.0000 0.1204195199
H   H171      1.0  0.45645  0.05965  0.64461  1.0000 0.1204195199
H   H172      1.0  0.39680  0.45645  0.14461  1.0000 0.1204195199
H   H173      1.0  0.94035  0.39680  0.64461  1.0000 0.1204195199
H   H174      1.0  0.54355  0.94035  0.14461  1.0000 0.1204195199
H   H175      1.0  0.86741  0.28061  0.42736  1.0000 0.1379141395
H   H176      1.0  0.58680  0.86741  0.92736  1.0000 0.1379141395
H   H177      1.0  0.71939  0.58680  0.42736  1.0000 0.1379141395
H   H178      1.0  0.13259  0.71939  0.92736  1.0000 0.1379141395
H   H179      1.0  0.41320  0.13259  0.42736  1.0000 0.1379141395
H   H180      1.0  0.28061  0.41320  0.92736  1.0000 0.1379141395
H   H181      1.0  0.52930  0.79765  0.15402  1.0000 0.1134156104
H   H182      1.0  0.73165  0.52930  0.65402  1.0000 0.1134156104
H   H183      1.0  0.20235  0.73165  0.15402  1.0000 0.1134156104
H   H184      1.0  0.47070  0.20235  0.65402  1.0000 0.1134156104
H   H185      1.0  0.26835  0.47070  0.15402  1.0000 0.1134156104
H   H186      1.0  0.79765  0.26835  0.65402  1.0000 0.1134156104
H   H187      1.0  0.87368  0.25940  0.50458  1.0000 0.1379141395
H   H188      1.0  0.61428  0.87368  0.00458  1.0000 0.1379141395
H   H189      1.0  0.74060  0.61428  0.50458  1.0000 0.1379141395
H   H190      1.0  0.12632  0.74060  0.00458  1.0000 0.1379141395
H   H191      1.0  0.38572  0.12632  0.50458  1.0000 0.1379141395
H   H192      1.0  0.25940  0.38572  0.00458  1.0000 0.1379141395
H   H193      1.0  0.78407  0.97902  0.35975  1.0000 0.1204195199
H   H194      1.0  0.80505  0.78407  0.85975  1.0000 0.1204195199
H   H195      1.0  0.02098  0.80505  0.35975  1.0000 0.1204195199
H   H196      1.0  0.21593  0.02098  0.85975  1.0000 0.1204195199
H   H197      1.0  0.19495  0.21593  0.35975  1.0000 0.1204195199
H   H198      1.0  0.97902  0.19495  0.85975  1.0000 0.1204195199
H   H199      1.0  0.80996  0.10704  0.62764  1.0000 0.1204195199
H   H200      1.0  0.70292  0.80996  0.12764  1.0000 0.1204195199
H   H201      1.0  0.89296  0.70292  0.62764  1.0000 0.1204195199
H   H202      1.0  0.19004  0.89296  0.12764  1.0000 0.1204195199
H   H203      1.0  0.29708  0.19004  0.62764  1.0000 0.1204195199
H   H204      1.0  0.10704  0.29708  0.12764  1.0000 0.1204195199
H   H205      1.0  0.61847  0.68341  0.35258  1.0000 0.1204195199
H   H206      1.0  0.93506  0.61847  0.85258  1.0000 0.1204195199
H   H207      1.0  0.31659  0.93506  0.35258  1.0000 0.1204195199
H   H208      1.0  0.38153  0.31659  0.85258  1.0000 0.1204195199
H   H209      1.0  0.06494  0.38153  0.35258  1.0000 0.1204195199
H   H210      1.0  0.68341  0.06494  0.85258  1.0000 0.1204195199
H   H211      1.0  0.73119  0.68467  0.35384  1.0000 0.1018728932
H   H212      1.0  0.04652  0.73119  0.85384  1.0000 0.1018728932
H   H213      1.0  0.31533  0.04652  0.35384  1.0000 0.1018728932
H   H214      1.0  0.26881  0.31533  0.85384  1.0000 0.1018728932
H   H215      1.0  0.95348  0.26881  0.35384  1.0000 0.1018728932
H   H216      1.0  0.68467  0.95348  0.85384  1.0000 0.1018728932
H   H217      1.0  0.63641  0.07843  0.52600  1.0000 0.1204195199
H   H218      1.0  0.55798  0.63641  0.02600  1.0000 0.1204195199
H   H219      1.0  0.92157  0.55798  0.52600  1.0000 0.1204195199
H   H220      1.0  0.36359  0.92157  0.02600  1.0000 0.1204195199
H   H221      1.0  0.44202  0.36359  0.52600  1.0000 0.1204195199
H   H222      1.0  0.07843  0.44202  0.02600  1.0000 0.1204195199
H   H223      1.0  0.84953  0.90103  0.36144  1.0000 0.1204195199
H   H224      1.0  0.94850  0.84953  0.86144  1.0000 0.1204195199
H   H225      1.0  0.09897  0.94850  0.36144  1.0000 0.1204195199
H   H226      1.0  0.15047  0.09897  0.86144  1.0000 0.1204195199
H   H227      1.0  0.05150  0.15047  0.36144  1.0000 0.1204195199
H   H228      1.0  0.90103  0.05150  0.86144  1.0000 0.1204195199
H   H229      1.0  0.59886  0.01789  0.59199  1.0000 0.1134156104
H   H230      1.0  0.58097  0.59886  0.09199  1.0000 0.1134156104
H   H231      1.0  0.98211  0.58097  0.59199  1.0000 0.1134156104
H   H232      1.0  0.40114  0.98211  0.09199  1.0000 0.1134156104
H   H233      1.0  0.41903  0.40114  0.59199  1.0000 0.1134156104
H   H234      1.0  0.01789  0.41903  0.09199  1.0000 0.1134156104
H   H235      1.0  0.84355  0.79275  0.35293  1.0000 0.1204195199
H   H236      1.0  0.05080  0.84355  0.85293  1.0000 0.1204195199
H   H237      1.0  0.20725  0.05080  0.35293  1.0000 0.1204195199
H   H238      1.0  0.15645  0.20725  0.85293  1.0000 0.1204195199
H   H239      1.0  0.94920  0.15645  0.35293  1.0000 0.1204195199
H   H240      1.0  0.79275  0.94920  0.85293  1.0000 0.1204195199
H   H241      1.0  0.53330  0.93475  0.80413  1.0000 0.14779027
H   H242      1.0  0.59855  0.53330  0.30413  1.0000 0.14779027
H   H243      1.0  0.06525  0.59855  0.80413  1.0000 0.14779027
H   H244      1.0  0.46670  0.06525  0.30413  1.0000 0.14779027
H   H245      1.0  0.40145  0.46670  0.80413  1.0000 0.14779027
H   H246      1.0  0.93475  0.40145  0.30413  1.0000 0.14779027
H   H247      1.0  0.50705  0.84387  0.86137  1.0000 0.1379141395
H   H248      1.0  0.66318  0.50705  0.36137  1.0000 0.1379141395
H   H249      1.0  0.15613  0.66318  0.86137  1.0000 0.1379141395
H   H250      1.0  0.49295  0.15613  0.36137  1.0000 0.1379141395
H   H251      1.0  0.33682  0.49295  0.86137  1.0000 0.1379141395
H   H252      1.0  0.84387  0.33682  0.36137  1.0000 0.1379141395
H   H253      1.0  0.64310  0.82948  0.77810  1.0000 0.1295906248
H   H254      1.0  0.81362  0.64310  0.27810  1.0000 0.1295906248
H   H255      1.0  0.17052  0.81362  0.77810  1.0000 0.1295906248
H   H256      1.0  0.35690  0.17052  0.27810  1.0000 0.1295906248
H   H257      1.0  0.18638  0.35690  0.77810  1.0000 0.1295906248
H   H258      1.0  0.82948  0.18638  0.27810  1.0000 0.1295906248
H   H259      1.0  0.66667  0.33333  0.90651  1.0000 0.2021149268
H   H260      1.0  0.70084  0.38014  0.94398  1.0000 0.2311656122
H   H261      1.0  0.61986  0.32070  0.94398  1.0000 0.2311656122
H   H262      1.0  0.67930  0.29916  0.94398  1.0000 0.2311656122
H   H263      1.0  0.33333  0.66667  0.40651  1.0000 0.2021149268
H   H264      1.0  0.38014  0.67930  0.44398  1.0000 0.2311656122
H   H265      1.0  0.32070  0.70084  0.44398  1.0000 0.2311656122
H   H266      1.0  0.29916  0.61986  0.44398  1.0000 0.2311656122
C   C1        1.0  0.31030  0.52330  0.57770  1.0000 0.2446502951
C   C2        1.0  0.78700  0.31030  0.07770  1.0000 0.2446502951
C   C3        1.0  0.47670  0.78700  0.57770  1.0000 0.2446502951
C   C4        1.0  0.68970  0.47670  0.07770  1.0000 0.2446502951
C   C5        1.0  0.21300  0.68970  0.57770  1.0000 0.2446502951
C   C6        1.0  0.52330  0.21300  0.07770  1.0000 0.2446502951
C   C7        1.0  0.32580  0.49280  0.54160  1.0000 -0.0304488768
C   C8        1.0  0.83300  0.32580  0.04160  1.0000 -0.0304488768
C   C9        1.0  0.50720  0.83300  0.54160  1.0000 -0.0304488768
C   C10       1.0  0.67420  0.50720  0.04160  1.0000 -0.0304488768
C   C11       1.0  0.16700  0.67420  0.54160  1.0000 -0.0304488768
C   C12       1.0  0.49280  0.16700  0.04160  1.0000 -0.0304488768
C   C13       1.0  0.51740  0.72100  0.26660  1.0000 0.0430082289
C   C14       1.0  0.79640  0.51740  0.76660  1.0000 0.0430082289
C   C15       1.0  0.27900  0.79640  0.26660  1.0000 0.0430082289
C   C16       1.0  0.48260  0.27900  0.76660  1.0000 0.0430082289
C   C17       1.0  0.20360  0.48260  0.26660  1.0000 0.0430082289
C   C18       1.0  0.72100  0.20360  0.76660  1.0000 0.0430082289
C   C19       1.0  0.46960  0.51220  0.46810  1.0000 0.2680133601
C   C20       1.0  0.95740  0.46960  0.96810  1.0000 0.2680133601
C   C21       1.0  0.48780  0.95740  0.46810  1.0000 0.2680133601
C   C22       1.0  0.53040  0.48780  0.96810  1.0000 0.2680133601
C   C23       1.0  0.04260  0.53040  0.46810  1.0000 0.2680133601
C   C24       1.0  0.51220  0.04260  0.96810  1.0000 0.2680133601
C   C25       1.0  0.52940  0.49520  0.46570  1.0000 -0.1702948193
C   C26       1.0  0.03420  0.52940  0.96570  1.0000 -0.1702948193
C   C27       1.0  0.50480  0.03420  0.46570  1.0000 -0.1702948193
C   C28       1.0  0.47060  0.50480  0.96570  1.0000 -0.1702948193
C   C29       1.0  0.96580  0.47060  0.46570  1.0000 -0.1702948193
C   C30       1.0  0.49520  0.96580  0.96570  1.0000 -0.1702948193
C   C31       1.0  0.54930  0.47380  0.42400  1.0000 0.590922149
C   C32       1.0  0.07550  0.54930  0.92400  1.0000 0.590922149
C   C33       1.0  0.52620  0.07550  0.42400  1.0000 0.590922149
C   C34       1.0  0.45070  0.52620  0.92400  1.0000 0.590922149
C   C35       1.0  0.92450  0.45070  0.42400  1.0000 0.590922149
C   C36       1.0  0.47380  0.92450  0.92400  1.0000 0.590922149
C   C37       1.0  0.45390  0.48850  0.27520  1.0000 0.6010057052
C   C38       1.0  0.96540  0.45390  0.77520  1.0000 0.6010057052
C   C39       1.0  0.51150  0.96540  0.27520  1.0000 0.6010057052
C   C40       1.0  0.54610  0.51150  0.77520  1.0000 0.6010057052
C   C41       1.0  0.03460  0.54610  0.27520  1.0000 0.6010057052
C   C42       1.0  0.48850  0.03460  0.77520  1.0000 0.6010057052
C   C43       1.0  0.38600  0.54460  0.51010  1.0000 -0.2454238415
C   C44       1.0  0.84140  0.38600  0.01010  1.0000 -0.2454238415
C   C45       1.0  0.45540  0.84140  0.51010  1.0000 -0.2454238415
C   C46       1.0  0.61400  0.45540  0.01010  1.0000 -0.2454238415
C   C47       1.0  0.15860  0.61400  0.51010  1.0000 -0.2454238415
C   C48       1.0  0.54460  0.15860  0.01010  1.0000 -0.2454238415
C   C49       1.0  0.51000  0.68890  0.30830  1.0000 -0.0221661732
C   C50       1.0  0.82110  0.51000  0.80830  1.0000 -0.0221661732
C   C51       1.0  0.31110  0.82110  0.30830  1.0000 -0.0221661732
C   C52       1.0  0.49000  0.31110  0.80830  1.0000 -0.0221661732
C   C53       1.0  0.17890  0.49000  0.30830  1.0000 -0.0221661732
C   C54       1.0  0.68890  0.17890  0.80830  1.0000 -0.0221661732
C   C55       1.0  0.47380  0.56840  0.27390  1.0000 -0.1591722697
C   C56       1.0  0.90540  0.47380  0.77390  1.0000 -0.1591722697
C   C57       1.0  0.43160  0.90540  0.27390  1.0000 -0.1591722697
C   C58       1.0  0.52620  0.43160  0.77390  1.0000 -0.1591722697
C   C59       1.0  0.09460  0.52620  0.27390  1.0000 -0.1591722697
C   C60       1.0  0.56840  0.09460  0.77390  1.0000 -0.1591722697
C   C61       1.0  0.48560  0.61290  0.31150  1.0000 0.2446502951
C   C62       1.0  0.87270  0.48560  0.81150  1.0000 0.2446502951
C   C63       1.0  0.38710  0.87270  0.31150  1.0000 0.2446502951
C   C64       1.0  0.51440  0.38710  0.81150  1.0000 0.2446502951
C   C65       1.0  0.12730  0.51440  0.31150  1.0000 0.2446502951
C   C66       1.0  0.61290  0.12730  0.81150  1.0000 0.2446502951
C   C67       1.0  0.25960  0.47800  0.61100  1.0000 -0.1495695765
C   C68       1.0  0.78160  0.25960  0.11100  1.0000 -0.1495695765
C   C69       1.0  0.52200  0.78160  0.61100  1.0000 -0.1495695765
C   C70       1.0  0.74040  0.52200  0.11100  1.0000 -0.1495695765
C   C71       1.0  0.21840  0.74040  0.61100  1.0000 -0.1495695765
C   C72       1.0  0.47800  0.21840  0.11100  1.0000 -0.1495695765
C   C73       1.0  0.60400  0.87070  0.36050  1.0000 0.2512831807
C   C74       1.0  0.73330  0.60400  0.86050  1.0000 0.2512831807
C   C75       1.0  0.12930  0.73330  0.36050  1.0000 0.2512831807
C   C76       1.0  0.39600  0.12930  0.86050  1.0000 0.2512831807
C   C77       1.0  0.26670  0.39600  0.36050  1.0000 0.2512831807
C   C78       1.0  0.87070  0.26670  0.86050  1.0000 0.2512831807
C   C79       1.0  0.56740  0.49800  0.50280  1.0000 -0.1591722697
C   C80       1.0  0.06940  0.56740  0.00280  1.0000 -0.1591722697
C   C81       1.0  0.50200  0.06940  0.50280  1.0000 -0.1591722697
C   C82       1.0  0.43260  0.50200  0.00280  1.0000 -0.1591722697
C   C83       1.0  0.93060  0.43260  0.50280  1.0000 -0.1591722697
C   C84       1.0  0.49800  0.93060  0.00280  1.0000 -0.1591722697
C   C85       1.0  0.24500  0.50920  0.65110  1.0000 0.6174645741
C   C86       1.0  0.73580  0.24500  0.15110  1.0000 0.6174645741
C   C87       1.0  0.49080  0.73580  0.65110  1.0000 0.6174645741
C   C88       1.0  0.75500  0.49080  0.15110  1.0000 0.6174645741
C   C89       1.0  0.26420  0.75500  0.65110  1.0000 0.6174645741
C   C90       1.0  0.50920  0.26420  0.15110  1.0000 0.6174645741
C   C91       1.0  0.45230  0.53160  0.50810  1.0000 -0.0304488768
C   C92       1.0  0.92070  0.45230  0.00810  1.0000 -0.0304488768
C   C93       1.0  0.46840  0.92070  0.50810  1.0000 -0.0304488768
C   C94       1.0  0.54770  0.46840  0.00810  1.0000 -0.0304488768
C   C95       1.0  0.07930  0.54770  0.50810  1.0000 -0.0304488768
C   C96       1.0  0.53160  0.07930  0.00810  1.0000 -0.0304488768
C   C97       1.0  0.22460  0.40120  0.60610  1.0000 -0.1495695765
C   C98       1.0  0.82340  0.22460  0.10610  1.0000 -0.1495695765
C   C99       1.0  0.59880  0.82340  0.60610  1.0000 -0.1495695765
C   C100      1.0  0.77540  0.59880  0.10610  1.0000 -0.1495695765
C   C101      1.0  0.17660  0.77540  0.60610  1.0000 -0.1495695765
C   C102      1.0  0.40120  0.17660  0.10610  1.0000 -0.1495695765
C   C103      1.0  0.49610  0.53990  0.54530  1.0000 0.0485334265
C   C104      1.0  0.95620  0.49610  0.04530  1.0000 0.0485334265
C   C105      1.0  0.46010  0.95620  0.54530  1.0000 0.0485334265
C   C106      1.0  0.50390  0.46010  0.04530  1.0000 0.0485334265
C   C107      1.0  0.04380  0.50390  0.54530  1.0000 0.0485334265
C   C108      1.0  0.53990  0.04380  0.04530  1.0000 0.0485334265
C   C109      1.0  0.48560  0.56650  0.58590  1.0000 -0.1220890218
C   C110      1.0  0.91910  0.48560  0.08590  1.0000 -0.1220890218
C   C111      1.0  0.43350  0.91910  0.58590  1.0000 -0.1220890218
C   C112      1.0  0.51440  0.43350  0.08590  1.0000 -0.1220890218
C   C113      1.0  0.08090  0.51440  0.58590  1.0000 -0.1220890218
C   C114      1.0  0.56650  0.08090  0.08590  1.0000 -0.1220890218
C   C115      1.0  0.74470  0.13210  0.53800  1.0000 0.1607828532
C   C116      1.0  0.61260  0.74470  0.03800  1.0000 0.1607828532
C   C117      1.0  0.86790  0.61260  0.53800  1.0000 0.1607828532
C   C118      1.0  0.25530  0.86790  0.03800  1.0000 0.1607828532
C   C119      1.0  0.38740  0.25530  0.53800  1.0000 0.1607828532
C   C120      1.0  0.13210  0.38740  0.03800  1.0000 0.1607828532
C   C121      1.0  0.28620  0.41470  0.53580  1.0000 0.0430082289
C   C122      1.0  0.87150  0.28620  0.03580  1.0000 0.0430082289
C   C123      1.0  0.58530  0.87150  0.53580  1.0000 0.0430082289
C   C124      1.0  0.71380  0.58530  0.03580  1.0000 0.0430082289
C   C125      1.0  0.12850  0.71380  0.53580  1.0000 0.0430082289
C   C126      1.0  0.41470  0.12850  0.03580  1.0000 0.0430082289
C   C127      1.0  0.72860  0.13970  0.45950  1.0000 0.1379141395
C   C128      1.0  0.58890  0.72860  0.95950  1.0000 0.1379141395
C   C129      1.0  0.86030  0.58890  0.45950  1.0000 0.1379141395
C   C130      1.0  0.27140  0.86030  0.95950  1.0000 0.1379141395
C   C131      1.0  0.41110  0.27140  0.45950  1.0000 0.1379141395
C   C132      1.0  0.13970  0.41110  0.95950  1.0000 0.1379141395
C   C133      1.0  0.48370  0.60020  0.23360  1.0000 -0.1495695765
C   C134      1.0  0.88350  0.48370  0.73360  1.0000 -0.1495695765
C   C135      1.0  0.39980  0.88350  0.23360  1.0000 -0.1495695765
C   C136      1.0  0.51630  0.39980  0.73360  1.0000 -0.1495695765
C   C137      1.0  0.11650  0.51630  0.23360  1.0000 -0.1495695765
C   C138      1.0  0.60020  0.11650  0.73360  1.0000 -0.1495695765
C   C139      1.0  0.52270  0.73330  0.34980  1.0000 -0.2568840961
C   C140      1.0  0.78940  0.52270  0.84980  1.0000 -0.2568840961
C   C141      1.0  0.26670  0.78940  0.34980  1.0000 -0.2568840961
C   C142      1.0  0.47730  0.26670  0.84980  1.0000 -0.2568840961
C   C143      1.0  0.21060  0.47730  0.34980  1.0000 -0.2568840961
C   C144      1.0  0.73330  0.21060  0.84980  1.0000 -0.2568840961
C   C145      1.0  0.29300  0.37810  0.49840  1.0000 -0.1220890218
C   C146      1.0  0.91490  0.29300  0.99840  1.0000 -0.1220890218
C   C147      1.0  0.62190  0.91490  0.49840  1.0000 -0.1220890218
C   C148      1.0  0.70700  0.62190  0.99840  1.0000 -0.1220890218
C   C149      1.0  0.08510  0.70700  0.49840  1.0000 -0.1220890218
C   C150      1.0  0.37810  0.08510  0.99840  1.0000 -0.1220890218
C   C151      1.0  0.23560  0.36870  0.56930  1.0000 0.0607021359
C   C152      1.0  0.86690  0.23560  0.06930  1.0000 0.0607021359
C   C153      1.0  0.63130  0.86690  0.56930  1.0000 0.0607021359
C   C154      1.0  0.76440  0.63130  0.06930  1.0000 0.0607021359
C   C155      1.0  0.13310  0.76440  0.56930  1.0000 0.0607021359
C   C156      1.0  0.36870  0.13310  0.06930  1.0000 0.0607021359
C   C157      1.0  0.25520  0.30400  0.49440  1.0000 -0.1080423891
C   C158      1.0  0.95120  0.25520  0.99440  1.0000 -0.1080423891
C   C159      1.0  0.69600  0.95120  0.49440  1.0000 -0.1080423891
C   C160      1.0  0.74480  0.69600  0.99440  1.0000 -0.1080423891
C   C161      1.0  0.04880  0.74480  0.49440  1.0000 -0.1080423891
C   C162      1.0  0.30400  0.04880  0.99440  1.0000 -0.1080423891
C   C163      1.0  0.59840  0.80200  0.35470  1.0000 -0.0304488768
C   C164      1.0  0.79640  0.59840  0.85470  1.0000 -0.0304488768
C   C165      1.0  0.19800  0.79640  0.35470  1.0000 -0.0304488768
C   C166      1.0  0.40160  0.19800  0.85470  1.0000 -0.0304488768
C   C167      1.0  0.20360  0.40160  0.35470  1.0000 -0.0304488768
C   C168      1.0  0.80200  0.20360  0.85470  1.0000 -0.0304488768
C   C169      1.0  0.53390  0.79470  0.26020  1.0000 -0.1220890218
C   C170      1.0  0.73920  0.53390  0.76020  1.0000 -0.1220890218
C   C171      1.0  0.20530  0.73920  0.26020  1.0000 -0.1220890218
C   C172      1.0  0.46610  0.20530  0.76020  1.0000 -0.1220890218
C   C173      1.0  0.26080  0.46610  0.26020  1.0000 -0.1220890218
C   C174      1.0  0.79470  0.26080  0.76020  1.0000 -0.1220890218
C   C175      1.0  0.50520  0.67630  0.22830  1.0000 0.0607021359
C   C176      1.0  0.82890  0.50520  0.72830  1.0000 0.0607021359
C   C177      1.0  0.32370  0.82890  0.22830  1.0000 0.0607021359
C   C178      1.0  0.49480  0.32370  0.72830  1.0000 0.0607021359
C   C179      1.0  0.17110  0.49480  0.22830  1.0000 0.0607021359
C   C180      1.0  0.67630  0.17110  0.72830  1.0000 0.0607021359
C   C181      1.0  0.55350  0.52060  0.54310  1.0000 0.0485334265
C   C182      1.0  0.03290  0.55350  0.04310  1.0000 0.0485334265
C   C183      1.0  0.47940  0.03290  0.54310  1.0000 0.0485334265
C   C184      1.0  0.44650  0.47940  0.04310  1.0000 0.0485334265
C   C185      1.0  0.96710  0.44650  0.54310  1.0000 0.0485334265
C   C186      1.0  0.52060  0.96710  0.04310  1.0000 0.0485334265
C   C187      1.0  0.67510  0.93730  0.36220  1.0000 -0.1495695765
C   C188      1.0  0.73780  0.67510  0.86220  1.0000 -0.1495695765
C   C189      1.0  0.06270  0.73780  0.36220  1.0000 -0.1495695765
C   C190      1.0  0.32490  0.06270  0.86220  1.0000 -0.1495695765
C   C191      1.0  0.26220  0.32490  0.36220  1.0000 -0.1495695765
C   C192      1.0  0.93730  0.26220  0.86220  1.0000 -0.1495695765
C   C193      1.0  0.69990  0.05650  0.61680  1.0000 0.0607021359
C   C194      1.0  0.64340  0.69990  0.11680  1.0000 0.0607021359
C   C195      1.0  0.94350  0.64340  0.61680  1.0000 0.0607021359
C   C196      1.0  0.30010  0.94350  0.11680  1.0000 0.0607021359
C   C197      1.0  0.35660  0.30010  0.61680  1.0000 0.0607021359
C   C198      1.0  0.05650  0.35660  0.11680  1.0000 0.0607021359
C   C199      1.0  0.52710  0.57060  0.62190  1.0000 -0.0800523738
C   C200      1.0  0.95650  0.52710  0.12190  1.0000 -0.0800523738
C   C201      1.0  0.42940  0.95650  0.62190  1.0000 -0.0800523738
C   C202      1.0  0.47290  0.42940  0.12190  1.0000 -0.0800523738
C   C203      1.0  0.04350  0.47290  0.62190  1.0000 -0.0800523738
C   C204      1.0  0.57060  0.04350  0.12190  1.0000 -0.0800523738
C   C205      1.0  0.66550  0.79840  0.35480  1.0000 0.0485334265
C   C206      1.0  0.86710  0.66550  0.85480  1.0000 0.0485334265
C   C207      1.0  0.20160  0.86710  0.35480  1.0000 0.0485334265
C   C208      1.0  0.33450  0.20160  0.85480  1.0000 0.0485334265
C   C209      1.0  0.13290  0.33450  0.35480  1.0000 0.0485334265
C   C210      1.0  0.79840  0.13290  0.85480  1.0000 0.0485334265
C   C211      1.0  0.59280  0.52450  0.58170  1.0000 -0.1495695765
C   C212      1.0  0.06830  0.59280  0.08170  1.0000 -0.1495695765
C   C213      1.0  0.47550  0.06830  0.58170  1.0000 -0.1495695765
C   C214      1.0  0.40720  0.47550  0.08170  1.0000 -0.1495695765
C   C215      1.0  0.93170  0.40720  0.58170  1.0000 -0.1495695765
C   C216      1.0  0.52450  0.93170  0.08170  1.0000 -0.1495695765
C   C217      1.0  0.53930  0.82240  0.21840  1.0000 -0.0931872718
C   C218      1.0  0.71690  0.53930  0.71840  1.0000 -0.0931872718
C   C219      1.0  0.17760  0.71690  0.21840  1.0000 -0.0931872718
C   C220      1.0  0.46070  0.17760  0.71840  1.0000 -0.0931872718
C   C221      1.0  0.28310  0.46070  0.21840  1.0000 -0.0931872718
C   C222      1.0  0.82240  0.28310  0.71840  1.0000 -0.0931872718
C   C223      1.0  0.51380  0.70840  0.18680  1.0000 -0.1430052499
C   C224      1.0  0.80540  0.51380  0.68680  1.0000 -0.1430052499
C   C225      1.0  0.29160  0.80540  0.18680  1.0000 -0.1430052499
C   C226      1.0  0.48620  0.29160  0.68680  1.0000 -0.1430052499
C   C227      1.0  0.19460  0.48620  0.18680  1.0000 -0.1430052499
C   C228      1.0  0.70840  0.19460  0.68680  1.0000 -0.1430052499
C   C229      1.0  0.67410  0.01380  0.65886  1.0000 0.0681742946
C   C230      1.0  0.66030  0.67410  0.15886  1.0000 0.0681742946
C   C231      1.0  0.98620  0.66030  0.65886  1.0000 0.0681742946
C   C232      1.0  0.32590  0.98620  0.15886  1.0000 0.0681742946
C   C233      1.0  0.33970  0.32590  0.65886  1.0000 0.0681742946
C   C234      1.0  0.01380  0.33970  0.15886  1.0000 0.0681742946
C   C235      1.0  0.59880  0.97710  0.66890  1.0000 -0.1220890218
C   C236      1.0  0.62170  0.59880  0.16890  1.0000 -0.1220890218
C   C237      1.0  0.02290  0.62170  0.66890  1.0000 -0.1220890218
C   C238      1.0  0.40120  0.02290  0.16890  1.0000 -0.1220890218
C   C239      1.0  0.37830  0.40120  0.66890  1.0000 -0.1220890218
C   C240      1.0  0.97710  0.37830  0.16890  1.0000 -0.1220890218
C   C241      1.0  0.57370  0.93750  0.70760  1.0000 -0.1495695765
C   C242      1.0  0.63620  0.57370  0.20760  1.0000 -0.1495695765
C   C243      1.0  0.06250  0.63620  0.70760  1.0000 -0.1495695765
C   C244      1.0  0.42630  0.06250  0.20760  1.0000 -0.1495695765
C   C245      1.0  0.36380  0.42630  0.70760  1.0000 -0.1495695765
C   C246      1.0  0.93750  0.36380  0.20760  1.0000 -0.1495695765
C   C247      1.0  0.62390  0.93470  0.73633  1.0000 0.1607828532
C   C248      1.0  0.68920  0.62390  0.23633  1.0000 0.1607828532
C   C249      1.0  0.06530  0.68920  0.73633  1.0000 0.1607828532
C   C250      1.0  0.37610  0.06530  0.23633  1.0000 0.1607828532
C   C251      1.0  0.31080  0.37610  0.73633  1.0000 0.1607828532
C   C252      1.0  0.93470  0.31080  0.23633  1.0000 0.1607828532
C   C253      1.0  0.69930  0.97140  0.72630  1.0000 -0.1794073152
C   C254      1.0  0.72790  0.69930  0.22630  1.0000 -0.1794073152
C   C255      1.0  0.02860  0.72790  0.72630  1.0000 -0.1794073152
C   C256      1.0  0.30070  0.02860  0.22630  1.0000 -0.1794073152
C   C257      1.0  0.27210  0.30070  0.72630  1.0000 -0.1794073152
C   C258      1.0  0.97140  0.27210  0.22630  1.0000 -0.1794073152
C   C259      1.0  0.72440  0.01090  0.68760  1.0000 -0.1220890218
C   C260      1.0  0.71350  0.72440  0.18760  1.0000 -0.1298300176
C   C261      1.0  0.98910  0.71350  0.68760  1.0000 -0.1298300176
C   C262      1.0  0.27560  0.98910  0.18760  1.0000 -0.1298300176
C   C263      1.0  0.28650  0.27560  0.68760  1.0000 -0.1298300176
C   C264      1.0  0.01090  0.28650  0.18760  1.0000 -0.1298300176
C   C265      1.0  0.19920  0.28920  0.56530  1.0000 -0.1495695765
C   C266      1.0  0.91000  0.19920  0.06530  1.0000 -0.1495695765
C   C267      1.0  0.71080  0.91000  0.56530  1.0000 -0.1495695765
C   C268      1.0  0.80080  0.71080  0.06530  1.0000 -0.1495695765
C   C269      1.0  0.09000  0.80080  0.56530  1.0000 -0.1495695765
C   C270      1.0  0.28920  0.09000  0.06530  1.0000 -0.1495695765
C   C271      1.0  0.20870  0.25910  0.52840  1.0000 -0.1015283696
C   C272      1.0  0.94960  0.20870  0.02840  1.0000 -0.1015283696
C   C273      1.0  0.74090  0.94960  0.52840  1.0000 -0.1015283696
C   C274      1.0  0.79130  0.74090  0.02840  1.0000 -0.1015283696
C   C275      1.0  0.05040  0.79130  0.52840  1.0000 -0.1015283696
C   C276      1.0  0.25910  0.05040  0.02840  1.0000 -0.1015283696
C   C277      1.0  0.79880  0.13690  0.56700  1.0000 -0.1794073152
C   C278      1.0  0.66190  0.79880  0.06700  1.0000 -0.1794073152
C   C279      1.0  0.86310  0.66190  0.56700  1.0000 -0.1794073152
C   C280      1.0  0.20120  0.86310  0.06700  1.0000 -0.1794073152
C   C281      1.0  0.33810  0.20120  0.56700  1.0000 -0.1794073152
C   C282      1.0  0.13690  0.33810  0.06700  1.0000 -0.1794073152
C   C283      1.0  0.57890  0.54540  0.61960  1.0000 -0.0931872718
C   C284      1.0  0.03350  0.57890  0.11960  1.0000 -0.0931872718
C   C285      1.0  0.45460  0.03350  0.61960  1.0000 -0.0931872718
C   C286      1.0  0.42110  0.45460  0.11960  1.0000 -0.0931872718
C   C287      1.0  0.96650  0.42110  0.61960  1.0000 -0.0931872718
C   C288      1.0  0.54540  0.96650  0.11960  1.0000 -0.0931872718
C   C289      1.0  0.83060  0.24170  0.44350  1.0000 -0.0221661732
C   C290      1.0  0.58890  0.83060  0.94350  1.0000 -0.0221661732
C   C291      1.0  0.75830  0.58890  0.44350  1.0000 -0.0221661732
C   C292      1.0  0.16940  0.75830  0.94350  1.0000 -0.0221661732
C   C293      1.0  0.41110  0.16940  0.44350  1.0000 -0.0221661732
C   C294      1.0  0.24170  0.41110  0.94350  1.0000 -0.0221661732
C   C295      1.0  0.52760  0.77870  0.18170  1.0000 -0.1015283696
C   C296      1.0  0.74890  0.52760  0.68170  1.0000 -0.1015283696
C   C297      1.0  0.22130  0.74890  0.18170  1.0000 -0.1015283696
C   C298      1.0  0.47240  0.22130  0.68170  1.0000 -0.1015283696
C   C299      1.0  0.25110  0.47240  0.18170  1.0000 -0.1015283696
C   C300      1.0  0.77870  0.25110  0.68170  1.0000 -0.1015283696
C   C301      1.0  0.83450  0.23110  0.48570  1.0000 -0.1220890218
C   C302      1.0  0.60340  0.83450  0.98570  1.0000 -0.1220890218
C   C303      1.0  0.76890  0.60340  0.48570  1.0000 -0.1220890218
C   C304      1.0  0.16550  0.76890  0.98570  1.0000 -0.1220890218
C   C305      1.0  0.39660  0.16550  0.48570  1.0000 -0.1220890218
C   C306      1.0  0.23110  0.39660  0.98570  1.0000 -0.1220890218
C   C307      1.0  0.73860  0.93500  0.35970  1.0000 -0.1495695765
C   C308      1.0  0.80360  0.73860  0.85970  1.0000 -0.1495695765
C   C309      1.0  0.06500  0.80360  0.35970  1.0000 -0.1495695765
C   C310      1.0  0.26140  0.06500  0.85970  1.0000 -0.1495695765
C   C311      1.0  0.19640  0.26140  0.35970  1.0000 -0.1495695765
C   C312      1.0  0.93500  0.19640  0.85970  1.0000 -0.1495695765
C   C313      1.0  0.77480  0.10100  0.60690  1.0000 -0.1298300176
C   C314      1.0  0.67380  0.77480  0.10690  1.0000 -0.1298300176
C   C315      1.0  0.89900  0.67380  0.60690  1.0000 -0.1298300176
C   C316      1.0  0.22520  0.89900  0.10690  1.0000 -0.1298300176
C   C317      1.0  0.32620  0.22520  0.60690  1.0000 -0.1298300176
C   C318      1.0  0.10100  0.32620  0.10690  1.0000 -0.1298300176
C   C319      1.0  0.66330  0.72810  0.35360  1.0000 -0.1298300176
C   C320      1.0  0.93520  0.66330  0.85360  1.0000 -0.1298300176
C   C321      1.0  0.27190  0.93520  0.35360  1.0000 -0.1298300176
C   C322      1.0  0.33670  0.27190  0.85360  1.0000 -0.1298300176
C   C323      1.0  0.06480  0.33670  0.35360  1.0000 -0.1298300176
C   C324      1.0  0.72810  0.06480  0.85360  1.0000 -0.1298300176
C   C325      1.0  0.73680  0.86650  0.35710  1.0000 0.0607021359
C   C326      1.0  0.87030  0.73680  0.85710  1.0000 0.0607021359
C   C327      1.0  0.13350  0.87030  0.35710  1.0000 0.0607021359
C   C328      1.0  0.26320  0.13350  0.85710  1.0000 0.0607021359
C   C329      1.0  0.12970  0.26320  0.35710  1.0000 0.0607021359
C   C330      1.0  0.86650  0.12970  0.85710  1.0000 0.0607021359
C   C331      1.0  0.73170  0.72970  0.35410  1.0000 -0.1080423891
C   C332      1.0  0.00200  0.73170  0.85410  1.0000 -0.1080423891
C   C333      1.0  0.27030  0.00200  0.35410  1.0000 -0.1015283696
C   C334      1.0  0.26830  0.27030  0.85410  1.0000 -0.1080423891
C   C335      1.0  0.99800  0.26830  0.35410  1.0000 -0.1015283696
C   C336      1.0  0.72970  0.99800  0.85410  1.0000 -0.1080423891
C   C337      1.0  0.67190  0.08560  0.54680  1.0000 -0.1591722697
C   C338      1.0  0.58630  0.67190  0.04680  1.0000 -0.1591722697
C   C339      1.0  0.91440  0.58630  0.54680  1.0000 -0.1591722697
C   C340      1.0  0.32810  0.91440  0.04680  1.0000 -0.1591722697
C   C341      1.0  0.41370  0.32810  0.54680  1.0000 -0.1591722697
C   C342      1.0  0.08560  0.41370  0.04680  1.0000 -0.1591722697
C   C343      1.0  0.80320  0.85850  0.35820  1.0000 -0.1298300176
C   C344      1.0  0.94470  0.80320  0.85820  1.0000 -0.1298300176
C   C345      1.0  0.14150  0.94470  0.35820  1.0000 -0.1298300176
C   C346      1.0  0.19680  0.14150  0.85820  1.0000 -0.1298300176
C   C347      1.0  0.05530  0.19680  0.35820  1.0000 -0.1298300176
C   C348      1.0  0.85850  0.05530  0.85820  1.0000 -0.1298300176
C   C349      1.0  0.64930  0.04850  0.58640  1.0000 -0.1080423891
C   C350      1.0  0.60080  0.64930  0.08640  1.0000 -0.1080423891
C   C351      1.0  0.95150  0.60080  0.58640  1.0000 -0.1080423891
C   C352      1.0  0.35070  0.95150  0.08640  1.0000 -0.1080423891
C   C353      1.0  0.39920  0.35070  0.58640  1.0000 -0.1080423891
C   C354      1.0  0.04850  0.39920  0.08640  1.0000 -0.1080423891
C   C355      1.0  0.79990  0.79480  0.35480  1.0000 -0.1015283696
C   C356      1.0  0.00510  0.79990  0.85480  1.0000 -0.1015283696
C   C357      1.0  0.20520  0.00510  0.35480  1.0000 -0.1015283696
C   C358      1.0  0.20010  0.20520  0.85480  1.0000 -0.1015283696
C   C359      1.0  0.99490  0.20010  0.35480  1.0000 -0.1015283696
C   C360      1.0  0.79480  0.99490  0.85480  1.0000 -0.1015283696
C   C361      1.0  0.55170  0.90220  0.80570  1.0000 -0.0722716952
C   C362      1.0  0.64950  0.55170  0.30570  1.0000 -0.0722716952
C   C363      1.0  0.09780  0.64950  0.80570  1.0000 -0.0722716952
C   C364      1.0  0.44830  0.09780  0.30570  1.0000 -0.0722716952
C   C365      1.0  0.35050  0.44830  0.80570  1.0000 -0.0722716952
C   C366      1.0  0.90220  0.35050  0.30570  1.0000 -0.0722716952
C   C367      1.0  0.53790  0.85260  0.83750  1.0000 -0.0449346619
C   C368      1.0  0.68530  0.53790  0.33750  1.0000 -0.0449346619
C   C369      1.0  0.14740  0.68530  0.83750  1.0000 -0.0449346619
C   C370      1.0  0.46210  0.14740  0.33750  1.0000 -0.0449346619
C   C371      1.0  0.31470  0.46210  0.83750  1.0000 -0.0449346619
C   C372      1.0  0.85260  0.31470  0.33750  1.0000 -0.0449346619
C   C373      1.0  0.61240  0.84400  0.79170  1.0000 0.0922498425
C   C374      1.0  0.76840  0.61240  0.29170  1.0000 0.0922498425
C   C375      1.0  0.15600  0.76840  0.79170  1.0000 0.0922498425
C   C376      1.0  0.38760  0.15600  0.29170  1.0000 0.0922498425
C   C377      1.0  0.23160  0.38760  0.79170  1.0000 0.0922498425
C   C378      1.0  0.84400  0.23160  0.29170  1.0000 0.0922498425
C   C379      1.0  0.68000  0.01030  0.36720  1.0000 0.6174645741
C   C380      1.0  0.66970  0.68000  0.86720  1.0000 0.6174645741
C   C381      1.0  0.98970  0.66970  0.36720  1.0000 0.6174645741
C   C382      1.0  0.32000  0.98970  0.86720  1.0000 0.6174645741
C   C383      1.0  0.33030  0.32000  0.36720  1.0000 0.6174645741
C   C384      1.0  0.01030  0.33030  0.86720  1.0000 0.6174645741
N   N1        1.0  0.76230  0.18510  0.42630  1.0000 -0.2891781012
N   N2        1.0  0.57720  0.76230  0.92630  1.0000 -0.2891781012
N   N3        1.0  0.81490  0.57720  0.42630  1.0000 -0.2891781012
N   N4        1.0  0.23770  0.81490  0.92630  1.0000 -0.2891781012
N   N5        1.0  0.42280  0.23770  0.42630  1.0000 -0.2891781012
N   N6        1.0  0.18510  0.42280  0.92630  1.0000 -0.2891781012
N   N7        1.0  0.64380  0.15730  0.33920  1.0000 -0.7753867487
N   N8        1.0  0.48650  0.64380  0.83920  1.0000 -0.7753867487
N   N9        1.0  0.84270  0.48650  0.33920  1.0000 -0.7753867487
N   N10       1.0  0.35620  0.84270  0.83920  1.0000 -0.7753867487
N   N11       1.0  0.51350  0.35620  0.33920  1.0000 -0.7753867487
N   N12       1.0  0.15730  0.51350  0.83920  1.0000 -0.7753867487
N   N13       1.0  0.76520  0.16640  0.49590  1.0000 0.0102799107
N   N14       1.0  0.59880  0.76520  0.99590  1.0000 0.0102799107
N   N15       1.0  0.83360  0.59880  0.49590  1.0000 0.0102799107
N   N16       1.0  0.23480  0.83360  0.99590  1.0000 0.0102799107
N   N17       1.0  0.40120  0.23480  0.49590  1.0000 0.0102799107
N   N18       1.0  0.16640  0.40120  0.99590  1.0000 0.0102799107
N   N19       1.0  0.57730  0.81650  0.82880  1.0000 -0.2835009972
N   N20       1.0  0.76080  0.57730  0.32880  1.0000 -0.2835009972
N   N21       1.0  0.18350  0.76080  0.82880  1.0000 -0.2835009972
N   N22       1.0  0.42270  0.18350  0.32880  1.0000 -0.2835009972
N   N23       1.0  0.23920  0.42270  0.82880  1.0000 -0.2835009972
N   N24       1.0  0.81650  0.23920  0.32880  1.0000 -0.2835009972
N   N25       1.0  0.59750  0.89660  0.77600  1.0000 0.0102799107
N   N26       1.0  0.70090  0.59750  0.27600  1.0000 0.0102799107
N   N27       1.0  0.10340  0.70090  0.77600  1.0000 0.0102799107
N   N28       1.0  0.40250  0.10340  0.27600  1.0000 0.0102799107
N   N29       1.0  0.29910  0.40250  0.77600  1.0000 0.0102799107
N   N30       1.0  0.89660  0.29910  0.27600  1.0000 0.0102799107
N   N31       1.0  0.66667  0.33333  0.93550  1.0000 -0.6960719506
N   N32       1.0  0.33333  0.66667  0.43550  1.0000 -0.6960719506
O   O1        1.0  0.49210  0.63350  0.74320  1.0000 -0.6650146524
O   O2        1.0  0.85860  0.49210  0.24320  1.0000 -0.6644483487
O   O3        1.0  0.36650  0.85860  0.74320  1.0000 -0.6650146524
O   O4        1.0  0.50790  0.36650  0.24320  1.0000 -0.6644483487
O   O5        1.0  0.14140  0.50790  0.74320  1.0000 -0.6650146524
O   O6        1.0  0.63350  0.14140  0.24320  1.0000 -0.6644483487
O   O7        1.0  0.52740  0.48790  0.38757  1.0000 -0.6385208547
O   O8        1.0  0.03950  0.52740  0.88757  1.0000 -0.6385208547
O   O9        1.0  0.51210  0.03950  0.38757  1.0000 -0.6385208547
O   O10       1.0  0.47260  0.51210  0.88757  1.0000 -0.6385208547
O   O11       1.0  0.96050  0.47260  0.38757  1.0000 -0.6385208547
O   O12       1.0  0.48790  0.96050  0.88757  1.0000 -0.6385208547
O   O13       1.0  0.43100  0.50800  0.43262  1.0000 -0.6098991911
O   O14       1.0  0.92300  0.43100  0.93262  1.0000 -0.6098991911
O   O15       1.0  0.49200  0.92300  0.43262  1.0000 -0.6098991911
O   O16       1.0  0.56900  0.49200  0.93262  1.0000 -0.6098991911
O   O17       1.0  0.07700  0.56900  0.43262  1.0000 -0.6098991911
O   O18       1.0  0.50800  0.07700  0.93262  1.0000 -0.6098991911
O   O19       1.0  0.44790  0.45860  0.31270  1.0000 -0.6206239475
O   O20       1.0  0.98930  0.44790  0.81270  1.0000 -0.6206239475
O   O21       1.0  0.54140  0.98930  0.31270  1.0000 -0.6206239475
O   O22       1.0  0.55210  0.54140  0.81270  1.0000 -0.6206239475
O   O23       1.0  0.01070  0.55210  0.31270  1.0000 -0.6206239475
O   O24       1.0  0.45860  0.01070  0.81270  1.0000 -0.6206239475
O   O25       1.0  0.47470  0.58270  0.35143  1.0000 -0.6206239475
O   O26       1.0  0.89200  0.47470  0.85143  1.0000 -0.6206239475
O   O27       1.0  0.41730  0.89200  0.35143  1.0000 -0.6206239475
O   O28       1.0  0.52530  0.41730  0.85143  1.0000 -0.6206239475
O   O29       1.0  0.10800  0.52530  0.35143  1.0000 -0.6206239475
O   O30       1.0  0.58270  0.10800  0.85143  1.0000 -0.6206239475
O   O31       1.0  0.34560  0.59760  0.58165  1.0000 -0.6098991911
O   O32       1.0  0.74800  0.34560  0.08165  1.0000 -0.6098991911
O   O33       1.0  0.40240  0.74800  0.58165  1.0000 -0.6098991911
O   O34       1.0  0.65440  0.40240  0.08165  1.0000 -0.6098991911
O   O35       1.0  0.25200  0.65440  0.58165  1.0000 -0.6098991911
O   O36       1.0  0.59760  0.25200  0.08165  1.0000 -0.6098991911
O   O37       1.0  0.54140  0.87510  0.36162  1.0000 -0.6251310984
O   O38       1.0  0.66630  0.54140  0.86162  1.0000 -0.6251310984
O   O39       1.0  0.12490  0.66630  0.36162  1.0000 -0.6251310984
O   O40       1.0  0.45860  0.12490  0.86162  1.0000 -0.6251310984
O   O41       1.0  0.33370  0.45860  0.36162  1.0000 -0.6251310984
O   O42       1.0  0.87510  0.33370  0.86162  1.0000 -0.6251310984
O   O43       1.0  0.44550  0.45440  0.24070  1.0000 -0.5165715943
O   O44       1.0  0.99110  0.44550  0.74070  1.0000 -0.5165715943
O   O45       1.0  0.54560  0.99110  0.24070  1.0000 -0.5165715943
O   O46       1.0  0.55450  0.54560  0.74070  1.0000 -0.5165715943
O   O47       1.0  0.00890  0.55450  0.24070  1.0000 -0.5165715943
O   O48       1.0  0.45440  0.00890  0.74070  1.0000 -0.5165715943
O   O49       1.0  0.58930  0.44450  0.42430  1.0000 -0.5259140362
O   O50       1.0  0.14480  0.58930  0.92430  1.0000 -0.5259140362
O   O51       1.0  0.55550  0.14480  0.42430  1.0000 -0.5259140362
O   O52       1.0  0.41070  0.55550  0.92430  1.0000 -0.5259140362
O   O53       1.0  0.85520  0.41070  0.42430  1.0000 -0.5259140362
O   O54       1.0  0.44450  0.85520  0.92430  1.0000 -0.5259140362
O   O55       1.0  0.20770  0.46650  0.68100  1.0000 -0.5259140362
O   O56       1.0  0.74120  0.20770  0.18100  1.0000 -0.5259140362
O   O57       1.0  0.53350  0.74120  0.68100  1.0000 -0.5259140362
O   O58       1.0  0.79230  0.53350  0.18100  1.0000 -0.5259140362
O   O59       1.0  0.25880  0.79230  0.68100  1.0000 -0.5259140362
O   O60       1.0  0.46650  0.25880  0.18100  1.0000 -0.5259140362
O   O61       1.0  0.73890  0.06790  0.35510  1.0000 -0.5165715943
O   O62       1.0  0.67100  0.73890  0.85510  1.0000 -0.5165715943
O   O63       1.0  0.93210  0.67100  0.35510  1.0000 -0.5165715943
O   O64       1.0  0.26110  0.93210  0.85510  1.0000 -0.5165715943
O   O65       1.0  0.32900  0.26110  0.35510  1.0000 -0.5165715943
O   O66       1.0  0.06790  0.32900  0.85510  1.0000 -0.5165715943
O   O67       1.0  0.27370  0.57980  0.65512  1.0000 -0.6098991911
O   O68       1.0  0.69390  0.27370  0.15512  1.0000 -0.6098991911
O   O69       1.0  0.42020  0.69390  0.65512  1.0000 -0.6098991911
O   O70       1.0  0.72630  0.42020  0.15512  1.0000 -0.6098991911
O   O71       1.0  0.30610  0.72630  0.65512  1.0000 -0.6098991911
O   O72       1.0  0.57980  0.30610  0.15512  1.0000 -0.6098991911
O   O73       1.0  0.62660  0.01530  0.38437  1.0000 -0.6206239475
O   O74       1.0  0.61130  0.62660  0.88437  1.0000 -0.6206239475
O   O75       1.0  0.98470  0.61130  0.38437  1.0000 -0.6206239475
O   O76       1.0  0.37340  0.98470  0.88437  1.0000 -0.6206239475
O   O77       1.0  0.38870  0.37340  0.38437  1.0000 -0.6206239475
O   O78       1.0  0.01530  0.38870  0.88437  1.0000 -0.6206239475
