# DDEC6 charges by PACMAN v1.1 (https://github.com/mtap-research/PACMAN-charge/)
data_2023[ZnTi][nan]3[ION]4
_chemical_formula_sum              "Ti8 Zn6 H294 C396 N36 O72"
_cell_length_a       20.6915
_cell_length_b       20.6915
_cell_length_c       30.6026
_cell_angle_alpha    90
_cell_angle_beta     90
_cell_angle_gamma    120

_symmetry_space_group_name_H-M    "P 1"
_symmetry_Int_Tables_number       1

loop_
  _symmetry_equiv_pos_as_xyz
  'x, y, z'

loop_
  _atom_site_type_symbol
  _atom_site_label
  _atom_site_symmetry_multiplicity
  _atom_site_fract_x
  _atom_site_fract_y
  _atom_site_fract_z
  _atom_site_occupancy
  _atom_site_charge
Ti  Ti1       1.0  0.51514  0.94894  0.36457  1.0000 1.9117241337
Ti  Ti2       1.0  0.05106  0.56620  0.36457  1.0000 1.9117241337
Ti  Ti3       1.0  0.43380  0.48486  0.36457  1.0000 1.9117241337
Ti  Ti4       1.0  0.48486  0.05106  0.86457  1.0000 1.9117241337
Ti  Ti5       1.0  0.94894  0.43380  0.86457  1.0000 1.9117241337
Ti  Ti6       1.0  0.56620  0.51514  0.86457  1.0000 1.9117241337
Ti  Ti7       1.0  0.33333  0.66667  0.60497  1.0000 1.9188237622
Ti  Ti8       1.0  0.66667  0.33333  0.10497  1.0000 1.9188237622
Zn  Zn1       1.0  0.84012  0.57656  0.35322  1.0000 0.7273777857
Zn  Zn2       1.0  0.42344  0.26356  0.35322  1.0000 0.7273777857
Zn  Zn3       1.0  0.73644  0.15988  0.35322  1.0000 0.7273777857
Zn  Zn4       1.0  0.15988  0.42344  0.85322  1.0000 0.7273777857
Zn  Zn5       1.0  0.57656  0.73644  0.85322  1.0000 0.7273777857
Zn  Zn6       1.0  0.26356  0.84012  0.85322  1.0000 0.7273777857
H   H1        1.0  0.42866  0.90219  0.20037  1.0000 0.1198135144
H   H2        1.0  0.09781  0.52647  0.20037  1.0000 0.1113627283
H   H3        1.0  0.47353  0.57134  0.20037  1.0000 0.1113627283
H   H4        1.0  0.57134  0.09781  0.70037  1.0000 0.1113627283
H   H5        1.0  0.90219  0.47353  0.70037  1.0000 0.1113627283
H   H6        1.0  0.52647  0.42866  0.70037  1.0000 0.1113627283
H   H7        1.0  0.80001  0.44755  0.33909  1.0000 0.2977081323
H   H8        1.0  0.55245  0.35246  0.33909  1.0000 0.2977081323
H   H9        1.0  0.64754  0.19999  0.33909  1.0000 0.2977081323
H   H10       1.0  0.19999  0.55245  0.83909  1.0000 0.2977081323
H   H11       1.0  0.44755  0.64754  0.83909  1.0000 0.2977081323
H   H12       1.0  0.35246  0.80001  0.83909  1.0000 0.2977081323
H   H13       1.0  0.88107  0.48857  0.33909  1.0000 0.2977081323
H   H14       1.0  0.51143  0.39250  0.33909  1.0000 0.2977081323
H   H15       1.0  0.60750  0.11893  0.33909  1.0000 0.2977081323
H   H16       1.0  0.11893  0.51143  0.83909  1.0000 0.2977081323
H   H17       1.0  0.48857  0.60750  0.83909  1.0000 0.2977081323
H   H18       1.0  0.39250  0.88107  0.83909  1.0000 0.2977081323
H   H19       1.0  0.84039  0.49040  0.30086  1.0000 0.2977081323
H   H20       1.0  0.50960  0.34999  0.30086  1.0000 0.2977081323
H   H21       1.0  0.65001  0.15961  0.30086  1.0000 0.2977081323
H   H22       1.0  0.15961  0.50960  0.80086  1.0000 0.2977081323
H   H23       1.0  0.49040  0.65001  0.80086  1.0000 0.2977081323
H   H24       1.0  0.34999  0.84039  0.80086  1.0000 0.2977081323
H   H25       1.0  0.41741  0.87207  0.57936  1.0000 0.1198135144
H   H26       1.0  0.12793  0.54534  0.57936  1.0000 0.1198135144
H   H27       1.0  0.45466  0.58259  0.57936  1.0000 0.1198135144
H   H28       1.0  0.58259  0.12793  0.07936  1.0000 0.1198135144
H   H29       1.0  0.87207  0.45466  0.07936  1.0000 0.1198135144
H   H30       1.0  0.54534  0.41741  0.07936  1.0000 0.1198135144
H   H31       1.0  0.46159  0.82939  0.47241  1.0000 0.1290153922
H   H32       1.0  0.17061  0.63220  0.47241  1.0000 0.1290153922
H   H33       1.0  0.36780  0.53841  0.47241  1.0000 0.1290153922
H   H34       1.0  0.53841  0.17061  0.97241  1.0000 0.1290153922
H   H35       1.0  0.82939  0.36780  0.97241  1.0000 0.1290153922
H   H36       1.0  0.63220  0.46159  0.97241  1.0000 0.1290153922
H   H37       1.0  0.40436  0.81125  0.51049  1.0000 0.1290153922
H   H38       1.0  0.18875  0.59311  0.51049  1.0000 0.1290153922
H   H39       1.0  0.40689  0.59564  0.51049  1.0000 0.1290153922
H   H40       1.0  0.59564  0.18875  0.01049  1.0000 0.1290153922
H   H41       1.0  0.81125  0.40689  0.01049  1.0000 0.1290153922
H   H42       1.0  0.59311  0.40436  0.01049  1.0000 0.1290153922
H   H43       1.0  0.25301  0.73458  0.34421  1.0000 0.1290153922
H   H44       1.0  0.26542  0.51843  0.34421  1.0000 0.1290153922
H   H45       1.0  0.48157  0.74699  0.34421  1.0000 0.1290153922
H   H46       1.0  0.74699  0.26542  0.84421  1.0000 0.1290153922
H   H47       1.0  0.73458  0.48157  0.84421  1.0000 0.1290153922
H   H48       1.0  0.51843  0.25301  0.84421  1.0000 0.1290153922
H   H49       1.0  0.30064  0.81213  0.36689  1.0000 0.1290153922
H   H50       1.0  0.18787  0.48851  0.36689  1.0000 0.1290153922
H   H51       1.0  0.51149  0.69936  0.36689  1.0000 0.1290153922
H   H52       1.0  0.69936  0.18787  0.86689  1.0000 0.1290153922
H   H53       1.0  0.81213  0.51149  0.86689  1.0000 0.1290153922
H   H54       1.0  0.48851  0.30064  0.86689  1.0000 0.1290153922
H   H55       1.0  0.59258  0.91696  0.46660  1.0000 0.1198135144
H   H56       1.0  0.08304  0.67562  0.46660  1.0000 0.1198135144
H   H57       1.0  0.32438  0.40742  0.46660  1.0000 0.1198135144
H   H58       1.0  0.40742  0.08304  0.96660  1.0000 0.1198135144
H   H59       1.0  0.91696  0.32438  0.96660  1.0000 0.1198135144
H   H60       1.0  0.67562  0.59258  0.96660  1.0000 0.1198135144
H   H61       1.0  0.17736  0.70965  0.27802  1.0000 0.1198135144
H   H62       1.0  0.29035  0.46771  0.27802  1.0000 0.1198135144
H   H63       1.0  0.53229  0.82264  0.27802  1.0000 0.1198135144
H   H64       1.0  0.82264  0.29035  0.77802  1.0000 0.1198135144
H   H65       1.0  0.70965  0.53229  0.77802  1.0000 0.1198135144
H   H66       1.0  0.46771  0.17736  0.77802  1.0000 0.1198135144
H   H67       1.0  0.16129  0.66490  0.85028  1.0000 0.1401397229
H   H68       1.0  0.33510  0.49639  0.85028  1.0000 0.1401397229
H   H69       1.0  0.50361  0.83871  0.85028  1.0000 0.1401397229
H   H70       1.0  0.83871  0.33510  0.35028  1.0000 0.1401397229
H   H71       1.0  0.66490  0.50361  0.35028  1.0000 0.1401397229
H   H72       1.0  0.49639  0.16129  0.35028  1.0000 0.1401397229
H   H73       1.0  0.31899  0.93259  0.34811  1.0000 0.1198135144
H   H74       1.0  0.06741  0.38640  0.34811  1.0000 0.1198135144
H   H75       1.0  0.61360  0.68101  0.34811  1.0000 0.1198135144
H   H76       1.0  0.68101  0.06741  0.84811  1.0000 0.1198135144
H   H77       1.0  0.93259  0.61360  0.84811  1.0000 0.1198135144
H   H78       1.0  0.38640  0.31899  0.84811  1.0000 0.1198135144
H   H79       1.0  0.62996  0.82056  0.61778  1.0000 0.1113627283
H   H80       1.0  0.17944  0.80940  0.61778  1.0000 0.1113627283
H   H81       1.0  0.19060  0.37004  0.61778  1.0000 0.1113627283
H   H82       1.0  0.37004  0.17944  0.11778  1.0000 0.1113627283
H   H83       1.0  0.82056  0.19060  0.11778  1.0000 0.1113627283
H   H84       1.0  0.80940  0.62996  0.11778  1.0000 0.1113627283
H   H85       1.0  0.16239  0.81041  0.76797  1.0000 0.1017568705
H   H86       1.0  0.18959  0.35198  0.76797  1.0000 0.1017568705
H   H87       1.0  0.64802  0.83761  0.76797  1.0000 0.1017568705
H   H88       1.0  0.83761  0.18959  0.26797  1.0000 0.1017568705
H   H89       1.0  0.81041  0.64802  0.26797  1.0000 0.1017568705
H   H90       1.0  0.35198  0.16239  0.26797  1.0000 0.1017568705
H   H91       1.0  0.32414  0.81719  0.15335  1.0000 0.1113627283
H   H92       1.0  0.18281  0.50695  0.15335  1.0000 0.1113627283
H   H93       1.0  0.49305  0.67586  0.15335  1.0000 0.1113627283
H   H94       1.0  0.67586  0.18281  0.65335  1.0000 0.1113627283
H   H95       1.0  0.81719  0.49305  0.65335  1.0000 0.1113627283
H   H96       1.0  0.50695  0.32414  0.65335  1.0000 0.1113627283
H   H97       1.0  0.06933  0.59588  0.79257  1.0000 0.1401397229
H   H98       1.0  0.40412  0.47345  0.79257  1.0000 0.1401397229
H   H99       1.0  0.52655  0.93067  0.79257  1.0000 0.1401397229
H   H100      1.0  0.93067  0.40412  0.29257  1.0000 0.1401397229
H   H101      1.0  0.59588  0.52655  0.29257  1.0000 0.1401397229
H   H102      1.0  0.47345  0.06933  0.29257  1.0000 0.1401397229
H   H103      1.0  0.51363  0.12307  0.49243  1.0000 0.1113627283
H   H104      1.0  0.87693  0.39056  0.49243  1.0000 0.1113627283
H   H105      1.0  0.60944  0.48637  0.49243  1.0000 0.1113627283
H   H106      1.0  0.48637  0.87693  0.99243  1.0000 0.1113627283
H   H107      1.0  0.12307  0.60944  0.99243  1.0000 0.1113627283
H   H108      1.0  0.39056  0.51363  0.99243  1.0000 0.1113627283
H   H109      1.0  0.72326  0.59711  0.41513  1.0000 0.1290153922
H   H110      1.0  0.40289  0.12615  0.41513  1.0000 0.1290153922
H   H111      1.0  0.87385  0.27674  0.41513  1.0000 0.1290153922
H   H112      1.0  0.27674  0.40289  0.91513  1.0000 0.1290153922
H   H113      1.0  0.59711  0.87385  0.91513  1.0000 0.1290153922
H   H114      1.0  0.12615  0.72326  0.91513  1.0000 0.1290153922
H   H115      1.0  0.89505  0.57795  0.44854  1.0000 0.1290153922
H   H116      1.0  0.42205  0.31710  0.44854  1.0000 0.1290153922
H   H117      1.0  0.68290  0.10495  0.44854  1.0000 0.1290153922
H   H118      1.0  0.10495  0.42205  0.94854  1.0000 0.1290153922
H   H119      1.0  0.57795  0.68290  0.94854  1.0000 0.1290153922
H   H120      1.0  0.31710  0.89505  0.94854  1.0000 0.1290153922
H   H121      1.0  0.12629  0.67383  0.20856  1.0000 0.1017568705
H   H122      1.0  0.32617  0.45246  0.20856  1.0000 0.1017568705
H   H123      1.0  0.54754  0.87371  0.20856  1.0000 0.1017568705
H   H124      1.0  0.87371  0.32617  0.70856  1.0000 0.1017568705
H   H125      1.0  0.67383  0.54754  0.70856  1.0000 0.1017568705
H   H126      1.0  0.45246  0.12629  0.70856  1.0000 0.1017568705
H   H127      1.0  0.83532  0.68676  0.54953  1.0000 0.1290153922
H   H128      1.0  0.31324  0.14856  0.54953  1.0000 0.1290153922
H   H129      1.0  0.85144  0.16468  0.54953  1.0000 0.1290153922
H   H130      1.0  0.16468  0.31324  0.04953  1.0000 0.1290153922
H   H131      1.0  0.68676  0.85144  0.04953  1.0000 0.1290153922
H   H132      1.0  0.14856  0.83532  0.04953  1.0000 0.1290153922
H   H133      1.0  0.71818  0.98161  0.46085  1.0000 0.1113627283
H   H134      1.0  0.01839  0.73657  0.46085  1.0000 0.1113627283
H   H135      1.0  0.26343  0.28182  0.46085  1.0000 0.1113627283
H   H136      1.0  0.28182  0.01839  0.96085  1.0000 0.1113627283
H   H137      1.0  0.98161  0.26343  0.96085  1.0000 0.1113627283
H   H138      1.0  0.73657  0.71818  0.96085  1.0000 0.1113627283
H   H139      1.0  0.32447  0.04500  0.34864  1.0000 0.1017568705
H   H140      1.0  0.95500  0.27947  0.34864  1.0000 0.1017568705
H   H141      1.0  0.72053  0.67553  0.34864  1.0000 0.1017568705
H   H142      1.0  0.67553  0.95500  0.84864  1.0000 0.1017568705
H   H143      1.0  0.04500  0.72053  0.84864  1.0000 0.1017568705
H   H144      1.0  0.27947  0.32447  0.84864  1.0000 0.1017568705
H   H145      1.0  0.04405  0.61297  0.63047  1.0000 0.1113627283
H   H146      1.0  0.38703  0.43108  0.63047  1.0000 0.1113627283
H   H147      1.0  0.56892  0.95595  0.63047  1.0000 0.1113627283
H   H148      1.0  0.95595  0.38703  0.13047  1.0000 0.1113627283
H   H149      1.0  0.61297  0.56892  0.13047  1.0000 0.1113627283
H   H150      1.0  0.43108  0.04405  0.13047  1.0000 0.1113627283
H   H151      1.0  0.41151  0.93490  0.64006  1.0000 0.1198135144
H   H152      1.0  0.06510  0.47661  0.64006  1.0000 0.1198135144
H   H153      1.0  0.52339  0.58849  0.64006  1.0000 0.1198135144
H   H154      1.0  0.58849  0.06510  0.14006  1.0000 0.1198135144
H   H155      1.0  0.93490  0.52339  0.14006  1.0000 0.1198135144
H   H156      1.0  0.47661  0.41151  0.14006  1.0000 0.1198135144
H   H157      1.0  0.11114  0.63899  0.69462  1.0000 0.1401397229
H   H158      1.0  0.36101  0.47215  0.69462  1.0000 0.1401397229
H   H159      1.0  0.52785  0.88886  0.69462  1.0000 0.1401397229
H   H160      1.0  0.88886  0.36101  0.19462  1.0000 0.1401397229
H   H161      1.0  0.63899  0.52785  0.19462  1.0000 0.1401397229
H   H162      1.0  0.47215  0.11114  0.19462  1.0000 0.1401397229
H   H163      1.0  0.20096  0.72613  0.14599  1.0000 0.1113627283
H   H164      1.0  0.27387  0.47483  0.14599  1.0000 0.1113627283
H   H165      1.0  0.52517  0.79904  0.14599  1.0000 0.1113627283
H   H166      1.0  0.79904  0.27387  0.64599  1.0000 0.1113627283
H   H167      1.0  0.72613  0.52517  0.64599  1.0000 0.1113627283
H   H168      1.0  0.47483  0.20096  0.64599  1.0000 0.1113627283
H   H169      1.0  0.89268  0.70363  0.61779  1.0000 0.1113627283
H   H170      1.0  0.29637  0.18905  0.61779  1.0000 0.1113627283
H   H171      1.0  0.81095  0.10732  0.61779  1.0000 0.1113627283
H   H172      1.0  0.10732  0.29637  0.11779  1.0000 0.1113627283
H   H173      1.0  0.70363  0.81095  0.11779  1.0000 0.1113627283
H   H174      1.0  0.18905  0.89268  0.11779  1.0000 0.1113627283
H   H175      1.0  0.74313  0.62574  0.49247  1.0000 0.1290153922
H   H176      1.0  0.37426  0.11739  0.49247  1.0000 0.1290153922
H   H177      1.0  0.88261  0.25687  0.49247  1.0000 0.1290153922
H   H178      1.0  0.25687  0.37426  0.99247  1.0000 0.1290153922
H   H179      1.0  0.62574  0.88261  0.99247  1.0000 0.1290153922
H   H180      1.0  0.11739  0.74313  0.99247  1.0000 0.1290153922
H   H181      1.0  0.45241  0.06148  0.63709  1.0000 0.1113627283
H   H182      1.0  0.93852  0.39093  0.63709  1.0000 0.1113627283
H   H183      1.0  0.60907  0.54759  0.63709  1.0000 0.1113627283
H   H184      1.0  0.54759  0.93852  0.13709  1.0000 0.1113627283
H   H185      1.0  0.06148  0.60907  0.13709  1.0000 0.1113627283
H   H186      1.0  0.39093  0.45241  0.13709  1.0000 0.1113627283
H   H187      1.0  0.48525  0.12245  0.57083  1.0000 0.1113627283
H   H188      1.0  0.87755  0.36280  0.57083  1.0000 0.1113627283
H   H189      1.0  0.63720  0.51475  0.57083  1.0000 0.1113627283
H   H190      1.0  0.51475  0.87755  0.07083  1.0000 0.1113627283
H   H191      1.0  0.12245  0.63720  0.07083  1.0000 0.1113627283
H   H192      1.0  0.36280  0.48525  0.07083  1.0000 0.1113627283
H   H193      1.0  0.89161  0.53216  0.52117  1.0000 0.1290153922
H   H194      1.0  0.46784  0.35945  0.52117  1.0000 0.1290153922
H   H195      1.0  0.64055  0.10839  0.52117  1.0000 0.1290153922
H   H196      1.0  0.10839  0.46784  0.02117  1.0000 0.1290153922
H   H197      1.0  0.53216  0.64055  0.02117  1.0000 0.1290153922
H   H198      1.0  0.35945  0.89161  0.02117  1.0000 0.1290153922
H   H199      1.0  0.02711  0.81091  0.34702  1.0000 0.1198135144
H   H200      1.0  0.18909  0.21620  0.34702  1.0000 0.1198135144
H   H201      1.0  0.78380  0.97289  0.34702  1.0000 0.1198135144
H   H202      1.0  0.97289  0.18909  0.84702  1.0000 0.1198135144
H   H203      1.0  0.81091  0.78380  0.84702  1.0000 0.1198135144
H   H204      1.0  0.21620  0.02711  0.84702  1.0000 0.1198135144
H   H205      1.0  0.91263  0.68138  0.68540  1.0000 0.1113627283
H   H206      1.0  0.31862  0.23125  0.68540  1.0000 0.1113627283
H   H207      1.0  0.76875  0.08737  0.68540  1.0000 0.1113627283
H   H208      1.0  0.08737  0.31862  0.18540  1.0000 0.1113627283
H   H209      1.0  0.68138  0.76875  0.18540  1.0000 0.1113627283
H   H210      1.0  0.23125  0.91263  0.18540  1.0000 0.1113627283
H   H211      1.0  0.98034  0.70509  0.75167  1.0000 0.1290153922
H   H212      1.0  0.29491  0.27525  0.75167  1.0000 0.1290153922
H   H213      1.0  0.72475  0.01966  0.75167  1.0000 0.1290153922
H   H214      1.0  0.01966  0.29491  0.25167  1.0000 0.1290153922
H   H215      1.0  0.70509  0.72475  0.25167  1.0000 0.1290153922
H   H216      1.0  0.27525  0.98034  0.25167  1.0000 0.1290153922
H   H217      1.0  0.74157  0.90627  0.57643  1.0000 0.1198135144
H   H218      1.0  0.09373  0.83530  0.57643  1.0000 0.1198135144
H   H219      1.0  0.16470  0.25843  0.57643  1.0000 0.1198135144
H   H220      1.0  0.25843  0.09373  0.07643  1.0000 0.1198135144
H   H221      1.0  0.90627  0.16470  0.07643  1.0000 0.1198135144
H   H222      1.0  0.83530  0.74157  0.07643  1.0000 0.1198135144
H   H223      1.0  0.95307  0.55548  0.58812  1.0000 0.1113627283
H   H224      1.0  0.44452  0.39759  0.58812  1.0000 0.1113627283
H   H225      1.0  0.60241  0.04693  0.58812  1.0000 0.1113627283
H   H226      1.0  0.04693  0.44452  0.08812  1.0000 0.1113627283
H   H227      1.0  0.55548  0.60241  0.08812  1.0000 0.1113627283
H   H228      1.0  0.39759  0.95307  0.08812  1.0000 0.1113627283
H   H229      1.0  0.79473  0.97717  0.51465  1.0000 0.1113627283
H   H230      1.0  0.02283  0.81756  0.51465  1.0000 0.1113627283
H   H231      1.0  0.18244  0.20527  0.51465  1.0000 0.1113627283
H   H232      1.0  0.20527  0.02283  0.01465  1.0000 0.1113627283
H   H233      1.0  0.97717  0.18244  0.01465  1.0000 0.1113627283
H   H234      1.0  0.81756  0.79473  0.01465  1.0000 0.1113627283
H   H235      1.0  0.10277  0.94694  0.34765  1.0000 0.1113627283
H   H236      1.0  0.05306  0.15583  0.34765  1.0000 0.1113627283
H   H237      1.0  0.84417  0.89723  0.34765  1.0000 0.1113627283
H   H238      1.0  0.89723  0.05306  0.84765  1.0000 0.1113627283
H   H239      1.0  0.94694  0.84417  0.84765  1.0000 0.1113627283
H   H240      1.0  0.15583  0.10277  0.84765  1.0000 0.1113627283
H   H241      1.0  0.21866  0.05423  0.34433  1.0000 0.1198135144
H   H242      1.0  0.94577  0.16443  0.34433  1.0000 0.1198135144
H   H243      1.0  0.83557  0.78134  0.34433  1.0000 0.1198135144
H   H244      1.0  0.78134  0.94577  0.84433  1.0000 0.1198135144
H   H245      1.0  0.05423  0.83557  0.84433  1.0000 0.1198135144
H   H246      1.0  0.16443  0.21866  0.84433  1.0000 0.1198135144
H   H247      1.0  0.30011  0.20432  0.17346  1.0000 0.1198135144
H   H248      1.0  0.36975  0.22134  0.20202  1.0000 0.1401397229
H   H249      1.0  0.28908  0.16926  0.22019  1.0000 0.1113627283
H   H250      1.0  0.22796  0.21864  0.25556  1.0000 0.1290153922
H   H251      1.0  0.22070  0.24415  0.20848  1.0000 0.1290153922
H   H252      1.0  0.25435  0.30278  0.24639  1.0000 0.1290153922
H   H253      1.0  0.33694  0.30882  0.20060  1.0000 0.2622532928
H   H254      1.0  0.35128  0.28851  0.24291  1.0000 0.2505596252
H   H255      1.0  0.90421  0.69989  0.17346  1.0000 0.1198135144
H   H256      1.0  0.85159  0.63025  0.20202  1.0000 0.1401397229
H   H257      1.0  0.88018  0.71092  0.22019  1.0000 0.1113627283
H   H258      1.0  0.99068  0.77204  0.25556  1.0000 0.1290153922
H   H259      1.0  0.02345  0.77930  0.20848  1.0000 0.1290153922
H   H260      1.0  0.04843  0.74565  0.24639  1.0000 0.1290153922
H   H261      1.0  0.97188  0.66306  0.20060  1.0000 0.2622532928
H   H262      1.0  0.93723  0.64872  0.24291  1.0000 0.2505596252
H   H263      1.0  0.79568  0.09579  0.17346  1.0000 0.1198135144
H   H264      1.0  0.77866  0.14841  0.20202  1.0000 0.1401397229
H   H265      1.0  0.83074  0.11982  0.22019  1.0000 0.1113627283
H   H266      1.0  0.78136  0.00932  0.25556  1.0000 0.1290153922
H   H267      1.0  0.75585  0.97655  0.20848  1.0000 0.1290153922
H   H268      1.0  0.69722  0.95157  0.24639  1.0000 0.1290153922
H   H269      1.0  0.69118  0.02812  0.20060  1.0000 0.2622532928
H   H270      1.0  0.71149  0.06277  0.24291  1.0000 0.2505596252
H   H271      1.0  0.69989  0.79568  0.67346  1.0000 0.1198135144
H   H272      1.0  0.63025  0.77866  0.70202  1.0000 0.1401397229
H   H273      1.0  0.71092  0.83074  0.72019  1.0000 0.1113627283
H   H274      1.0  0.77204  0.78136  0.75556  1.0000 0.1290153922
H   H275      1.0  0.77930  0.75585  0.70848  1.0000 0.1290153922
H   H276      1.0  0.74565  0.69722  0.74639  1.0000 0.1290153922
H   H277      1.0  0.66306  0.69118  0.70060  1.0000 0.2622532928
H   H278      1.0  0.64872  0.71149  0.74291  1.0000 0.2505596252
H   H279      1.0  0.09579  0.30011  0.67346  1.0000 0.1198135144
H   H280      1.0  0.14841  0.36975  0.70202  1.0000 0.1401397229
H   H281      1.0  0.11982  0.28908  0.72019  1.0000 0.1113627283
H   H282      1.0  0.00932  0.22796  0.75556  1.0000 0.1290153922
H   H283      1.0  0.97655  0.22070  0.70848  1.0000 0.1290153922
H   H284      1.0  0.95157  0.25435  0.74639  1.0000 0.1290153922
H   H285      1.0  0.02812  0.33694  0.70060  1.0000 0.2622532928
H   H286      1.0  0.06277  0.35128  0.74291  1.0000 0.2505596252
H   H287      1.0  0.20432  0.90421  0.67346  1.0000 0.1198135144
H   H288      1.0  0.22134  0.85159  0.70202  1.0000 0.1401397229
H   H289      1.0  0.16926  0.88018  0.72019  1.0000 0.1113627283
H   H290      1.0  0.21864  0.99068  0.75556  1.0000 0.1290153922
H   H291      1.0  0.24415  0.02345  0.70848  1.0000 0.1290153922
H   H292      1.0  0.30278  0.04843  0.74639  1.0000 0.1290153922
H   H293      1.0  0.30882  0.97188  0.70060  1.0000 0.2622532928
H   H294      1.0  0.28851  0.93723  0.74291  1.0000 0.2505596252
C   C1        1.0  0.28090  0.79170  0.25850  1.0000 0.0438362475
C   C2        1.0  0.20830  0.48920  0.25850  1.0000 0.0438362475
C   C3        1.0  0.51080  0.71910  0.25850  1.0000 0.0438362475
C   C4        1.0  0.71910  0.20830  0.75850  1.0000 0.0438362475
C   C5        1.0  0.79170  0.51080  0.75850  1.0000 0.0438362475
C   C6        1.0  0.48920  0.28090  0.75850  1.0000 0.0438362475
C   C7        1.0  0.52890  0.08040  0.41500  1.0000 0.5880589619
C   C8        1.0  0.91960  0.44850  0.41500  1.0000 0.5880589619
C   C9        1.0  0.55150  0.47110  0.41500  1.0000 0.5880589619
C   C10       1.0  0.47110  0.91960  0.91500  1.0000 0.5880589619
C   C11       1.0  0.08040  0.55150  0.91500  1.0000 0.5880589619
C   C12       1.0  0.44850  0.52890  0.91500  1.0000 0.5880589619
C   C13       1.0  0.48970  0.96190  0.46004  1.0000 0.242037142
C   C14       1.0  0.03810  0.52780  0.46004  1.0000 0.242037142
C   C15       1.0  0.47220  0.51030  0.46004  1.0000 0.242037142
C   C16       1.0  0.51030  0.03810  0.96004  1.0000 0.242037142
C   C17       1.0  0.96190  0.47220  0.96004  1.0000 0.242037142
C   C18       1.0  0.52780  0.48970  0.96004  1.0000 0.242037142
C   C19       1.0  0.32430  0.82370  0.22070  1.0000 0.060424793
C   C20       1.0  0.17630  0.50060  0.22070  1.0000 0.060424793
C   C21       1.0  0.49940  0.67570  0.22070  1.0000 0.060424793
C   C22       1.0  0.67570  0.17630  0.72070  1.0000 0.060424793
C   C23       1.0  0.82370  0.49940  0.72070  1.0000 0.060424793
C   C24       1.0  0.50060  0.32430  0.72070  1.0000 0.060424793
C   C25       1.0  0.51090  0.96780  0.26670  1.0000 0.5880589619
C   C26       1.0  0.03220  0.54310  0.26670  1.0000 0.5880589619
C   C27       1.0  0.45690  0.48910  0.26670  1.0000 0.5880589619
C   C28       1.0  0.48910  0.03220  0.76670  1.0000 0.5880589619
C   C29       1.0  0.96780  0.45690  0.76670  1.0000 0.5880589619
C   C30       1.0  0.54310  0.51090  0.76670  1.0000 0.5880589619
C   C31       1.0  0.99000  0.67190  0.35700  1.0000 0.6056047017
C   C32       1.0  0.32810  0.31810  0.35700  1.0000 0.6056047017
C   C33       1.0  0.68190  0.01000  0.35700  1.0000 0.6056047017
C   C34       1.0  0.01000  0.32810  0.85700  1.0000 0.6056047017
C   C35       1.0  0.67190  0.68190  0.85700  1.0000 0.6056047017
C   C36       1.0  0.31810  0.99000  0.85700  1.0000 0.6056047017
C   C37       1.0  0.40000  0.88090  0.22530  1.0000 -0.149292688
C   C38       1.0  0.11910  0.51910  0.22530  1.0000 -0.149292688
C   C39       1.0  0.48090  0.60000  0.22530  1.0000 -0.149292688
C   C40       1.0  0.60000  0.11910  0.72530  1.0000 -0.149292688
C   C41       1.0  0.88090  0.48090  0.72530  1.0000 -0.149292688
C   C42       1.0  0.51910  0.40000  0.72530  1.0000 -0.149292688
C   C43       1.0  0.13020  0.73310  0.35120  1.0000 0.2505596252
C   C44       1.0  0.26690  0.39710  0.35120  1.0000 0.2505596252
C   C45       1.0  0.60290  0.86980  0.35120  1.0000 0.2505596252
C   C46       1.0  0.86980  0.26690  0.85120  1.0000 0.2505596252
C   C47       1.0  0.73310  0.60290  0.85120  1.0000 0.2505596252
C   C48       1.0  0.39710  0.13020  0.85120  1.0000 0.2505596252
C   C49       1.0  0.50550  0.03790  0.45750  1.0000 -0.1581262084
C   C50       1.0  0.96210  0.46760  0.45750  1.0000 -0.1581262084
C   C51       1.0  0.53240  0.49450  0.45750  1.0000 -0.1581262084
C   C52       1.0  0.49450  0.96210  0.95750  1.0000 -0.1581262084
C   C53       1.0  0.03790  0.53240  0.95750  1.0000 -0.1581262084
C   C54       1.0  0.46760  0.50550  0.95750  1.0000 -0.1581262084
C   C55       1.0  0.38800  0.87220  0.30361  1.0000 0.242037142
C   C56       1.0  0.12780  0.51580  0.30361  1.0000 0.242037142
C   C57       1.0  0.48420  0.61200  0.30361  1.0000 0.242037142
C   C58       1.0  0.61200  0.12780  0.80361  1.0000 0.242037142
C   C59       1.0  0.87220  0.48420  0.80361  1.0000 0.242037142
C   C60       1.0  0.51580  0.38800  0.80361  1.0000 0.242037142
C   C61       1.0  0.43120  0.90520  0.26530  1.0000 -0.149292688
C   C62       1.0  0.09480  0.52600  0.26530  1.0000 -0.149292688
C   C63       1.0  0.47400  0.56880  0.26530  1.0000 -0.149292688
C   C64       1.0  0.56880  0.09480  0.76530  1.0000 -0.149292688
C   C65       1.0  0.90520  0.47400  0.76530  1.0000 -0.149292688
C   C66       1.0  0.52600  0.43120  0.76530  1.0000 -0.149292688
C   C67       1.0  0.20000  0.79450  0.34640  1.0000 -0.0303352255
C   C68       1.0  0.20550  0.40550  0.34640  1.0000 -0.0303352255
C   C69       1.0  0.59450  0.80000  0.34640  1.0000 -0.0303352255
C   C70       1.0  0.80000  0.20550  0.84640  1.0000 -0.0356810491
C   C71       1.0  0.79450  0.59450  0.84640  1.0000 -0.0303352255
C   C72       1.0  0.40550  0.20000  0.84640  1.0000 -0.0303352255
C   C73       1.0  0.58620  0.87500  0.52740  1.0000 0.0438362475
C   C74       1.0  0.12500  0.71120  0.52740  1.0000 0.0438362475
C   C75       1.0  0.28880  0.41380  0.52740  1.0000 0.0438362475
C   C76       1.0  0.41380  0.12500  0.02740  1.0000 0.0438362475
C   C77       1.0  0.87500  0.28880  0.02740  1.0000 0.0438362475
C   C78       1.0  0.71120  0.58620  0.02740  1.0000 0.0438362475
C   C79       1.0  0.47630  0.78800  0.56870  1.0000 0.2622532928
C   C80       1.0  0.21200  0.68830  0.56870  1.0000 0.2622532928
C   C81       1.0  0.31170  0.52370  0.56870  1.0000 0.2622532928
C   C82       1.0  0.52370  0.21200  0.06870  1.0000 0.2622532928
C   C83       1.0  0.78800  0.31170  0.06870  1.0000 0.2622532928
C   C84       1.0  0.68830  0.47630  0.06870  1.0000 0.2622532928
C   C85       1.0  0.31260  0.81810  0.30068  1.0000 -0.0303352255
C   C86       1.0  0.18190  0.49450  0.30068  1.0000 -0.0303352255
C   C87       1.0  0.50550  0.68740  0.30068  1.0000 -0.0303352255
C   C88       1.0  0.68740  0.18190  0.80068  1.0000 -0.0303352255
C   C89       1.0  0.81810  0.50550  0.80068  1.0000 -0.0303352255
C   C90       1.0  0.49450  0.31260  0.80068  1.0000 -0.0303352255
C   C91       1.0  0.43290  0.92260  0.57730  1.0000 -0.1388266723
C   C92       1.0  0.07740  0.51030  0.57730  1.0000 -0.1388266723
C   C93       1.0  0.48970  0.56710  0.57730  1.0000 -0.1388266723
C   C94       1.0  0.56710  0.07740  0.07730  1.0000 -0.1388266723
C   C95       1.0  0.92260  0.48970  0.07730  1.0000 -0.1388266723
C   C96       1.0  0.51030  0.43290  0.07730  1.0000 -0.1388266723
C   C97       1.0  0.47810  0.03610  0.53460  1.0000 0.0489718081
C   C98       1.0  0.96390  0.44200  0.53460  1.0000 0.0489718081
C   C99       1.0  0.55800  0.52190  0.53460  1.0000 0.0489718081
C   C100      1.0  0.52190  0.96390  0.03460  1.0000 0.0489718081
C   C101      1.0  0.03610  0.55800  0.03460  1.0000 0.0489718081
C   C102      1.0  0.44200  0.47810  0.03460  1.0000 0.0489718081
C   C103      1.0  0.45540  0.84460  0.50140  1.0000 -0.2498093287
C   C104      1.0  0.15540  0.61080  0.50140  1.0000 -0.2498093287
C   C105      1.0  0.38920  0.54460  0.50140  1.0000 -0.2498093287
C   C106      1.0  0.54460  0.15540  0.00140  1.0000 -0.2498093287
C   C107      1.0  0.84460  0.38920  0.00140  1.0000 -0.2498093287
C   C108      1.0  0.61080  0.45540  0.00140  1.0000 -0.2498093287
C   C109      1.0  0.20520  0.86740  0.34660  1.0000 0.0489718081
C   C110      1.0  0.13260  0.33780  0.34660  1.0000 0.0489718081
C   C111      1.0  0.66220  0.79480  0.34660  1.0000 0.0489718081
C   C112      1.0  0.79480  0.13260  0.84660  1.0000 0.0489718081
C   C113      1.0  0.86740  0.66220  0.84660  1.0000 0.0489718081
C   C114      1.0  0.33780  0.20520  0.84660  1.0000 0.0489718081
C   C115      1.0  0.26820  0.78710  0.34224  1.0000 -0.2498093287
C   C116      1.0  0.21290  0.48110  0.34224  1.0000 -0.2498093287
C   C117      1.0  0.51890  0.73180  0.34224  1.0000 -0.2498093287
C   C118      1.0  0.73180  0.21290  0.84224  1.0000 -0.2498093287
C   C119      1.0  0.78710  0.51890  0.84224  1.0000 -0.2498093287
C   C120      1.0  0.48110  0.26820  0.84224  1.0000 -0.2498093287
C   C121      1.0  0.62140  0.91570  0.48950  1.0000 -0.1302559217
C   C122      1.0  0.08430  0.70570  0.48950  1.0000 -0.1302559217
C   C123      1.0  0.29430  0.37860  0.48950  1.0000 -0.1302559217
C   C124      1.0  0.37860  0.08430  0.98950  1.0000 -0.1302559217
C   C125      1.0  0.91570  0.29430  0.98950  1.0000 -0.1302559217
C   C126      1.0  0.70570  0.62140  0.98950  1.0000 -0.1302559217
C   C127      1.0  0.86120  0.61070  0.52850  1.0000 0.1613391771
C   C128      1.0  0.38930  0.25050  0.52850  1.0000 0.1613391771
C   C129      1.0  0.74950  0.13880  0.52850  1.0000 0.1613391771
C   C130      1.0  0.13880  0.38930  0.02850  1.0000 0.1613391771
C   C131      1.0  0.61070  0.74950  0.02850  1.0000 0.1613391771
C   C132      1.0  0.25050  0.86120  0.02850  1.0000 0.1613391771
C   C133      1.0  0.49260  0.73610  0.64160  1.0000 0.6020980611
C   C134      1.0  0.26390  0.75650  0.64160  1.0000 0.6020980611
C   C135      1.0  0.24350  0.50740  0.64160  1.0000 0.6020980611
C   C136      1.0  0.50740  0.26390  0.14160  1.0000 0.6020980611
C   C137      1.0  0.73610  0.24350  0.14160  1.0000 0.6020980611
C   C138      1.0  0.75650  0.49260  0.14160  1.0000 0.6020980611
C   C139      1.0  0.05740  0.68230  0.72710  1.0000 0.1501769706
C   C140      1.0  0.31770  0.37510  0.72710  1.0000 0.1501769706
C   C141      1.0  0.62490  0.94260  0.72710  1.0000 0.1501769706
C   C142      1.0  0.94260  0.31770  0.22710  1.0000 0.1501769706
C   C143      1.0  0.68230  0.62490  0.22710  1.0000 0.1501769706
C   C144      1.0  0.37510  0.05740  0.22710  1.0000 0.1501769706
C   C145      1.0  0.20620  0.73300  0.25350  1.0000 -0.1302559217
C   C146      1.0  0.26700  0.47320  0.25350  1.0000 -0.1302559217
C   C147      1.0  0.52680  0.79380  0.25350  1.0000 -0.1302559217
C   C148      1.0  0.79380  0.26700  0.75350  1.0000 -0.1302559217
C   C149      1.0  0.73300  0.52680  0.75350  1.0000 -0.1302559217
C   C150      1.0  0.47320  0.20620  0.75350  1.0000 -0.1302559217
C   C151      1.0  0.14970  0.68580  0.82680  1.0000 -0.0455062703
C   C152      1.0  0.31420  0.46390  0.82680  1.0000 -0.0455062703
C   C153      1.0  0.53610  0.85030  0.82680  1.0000 -0.0455062703
C   C154      1.0  0.85030  0.31420  0.32680  1.0000 -0.0455062703
C   C155      1.0  0.68580  0.53610  0.32680  1.0000 -0.0455062703
C   C156      1.0  0.46390  0.14970  0.32680  1.0000 -0.0455062703
C   C157      1.0  0.63170  0.86840  0.56000  1.0000 0.060424793
C   C158      1.0  0.13160  0.76330  0.56000  1.0000 0.060424793
C   C159      1.0  0.23670  0.36830  0.56000  1.0000 0.060424793
C   C160      1.0  0.36830  0.13160  0.06000  1.0000 0.060424793
C   C161      1.0  0.86840  0.23670  0.06000  1.0000 0.060424793
C   C162      1.0  0.76330  0.63170  0.06000  1.0000 0.060424793
C   C163      1.0  0.46860  0.92310  0.49914  1.0000 -0.0356810491
C   C164      1.0  0.07690  0.54550  0.49914  1.0000 -0.0356810491
C   C165      1.0  0.45450  0.53140  0.49914  1.0000 -0.0356810491
C   C166      1.0  0.53140  0.07690  0.99914  1.0000 -0.0356810491
C   C167      1.0  0.92310  0.45450  0.99914  1.0000 -0.0356810491
C   C168      1.0  0.54550  0.46860  0.99914  1.0000 -0.0356810491
C   C169      1.0  0.97550  0.65030  0.65080  1.0000 0.0668579027
C   C170      1.0  0.34970  0.32520  0.65080  1.0000 0.0668579027
C   C171      1.0  0.67480  0.02450  0.65080  1.0000 0.0668579027
C   C172      1.0  0.02450  0.34970  0.15080  1.0000 0.0668579027
C   C173      1.0  0.65030  0.67480  0.15080  1.0000 0.0668579027
C   C174      1.0  0.32520  0.97550  0.15080  1.0000 0.0668579027
C   C175      1.0  0.27510  0.93450  0.34750  1.0000 -0.1302559217
C   C176      1.0  0.06550  0.34060  0.34750  1.0000 -0.1302559217
C   C177      1.0  0.65940  0.72490  0.34750  1.0000 -0.1302559217
C   C178      1.0  0.72490  0.06550  0.84750  1.0000 -0.1302559217
C   C179      1.0  0.93450  0.65940  0.84750  1.0000 -0.1302559217
C   C180      1.0  0.34060  0.27510  0.84750  1.0000 -0.1302559217
C   C181      1.0  0.50830  0.83670  0.53290  1.0000 -0.0238637043
C   C182      1.0  0.16330  0.67160  0.53290  1.0000 -0.0238637043
C   C183      1.0  0.32840  0.49170  0.53290  1.0000 -0.0238637043
C   C184      1.0  0.49170  0.16330  0.03290  1.0000 -0.0238637043
C   C185      1.0  0.83670  0.32840  0.03290  1.0000 -0.0238637043
C   C186      1.0  0.67160  0.50830  0.03290  1.0000 -0.0238637043
C   C187      1.0  0.52280  0.78110  0.60190  1.0000 -0.1802188273
C   C188      1.0  0.21890  0.74170  0.60190  1.0000 -0.1802188273
C   C189      1.0  0.25830  0.47720  0.60190  1.0000 -0.1802188273
C   C190      1.0  0.47720  0.21890  0.10190  1.0000 -0.1802188273
C   C191      1.0  0.78110  0.25830  0.10190  1.0000 -0.1802188273
C   C192      1.0  0.74170  0.52280  0.10190  1.0000 -0.1802188273
C   C193      1.0  0.06360  0.73880  0.35240  1.0000 -0.1581262084
C   C194      1.0  0.26120  0.32480  0.35240  1.0000 -0.1581262084
C   C195      1.0  0.67520  0.93640  0.35240  1.0000 -0.1581262084
C   C196      1.0  0.93640  0.26120  0.85240  1.0000 -0.1581262084
C   C197      1.0  0.73880  0.67520  0.85240  1.0000 -0.1581262084
C   C198      1.0  0.32480  0.06360  0.85240  1.0000 -0.1581262084
C   C199      1.0  0.59910  0.82280  0.59650  1.0000 -0.149292688
C   C200      1.0  0.17720  0.77630  0.59650  1.0000 -0.149292688
C   C201      1.0  0.22370  0.40090  0.59650  1.0000 -0.149292688
C   C202      1.0  0.40090  0.17720  0.09650  1.0000 -0.149292688
C   C203      1.0  0.82280  0.22370  0.09650  1.0000 -0.149292688
C   C204      1.0  0.77630  0.59910  0.09650  1.0000 -0.149292688
C   C205      1.0  0.45970  0.95980  0.53690  1.0000 0.0489718081
C   C206      1.0  0.04020  0.49990  0.53690  1.0000 0.0489718081
C   C207      1.0  0.50010  0.54030  0.53690  1.0000 0.0489718081
C   C208      1.0  0.54030  0.04020  0.03690  1.0000 0.0489718081
C   C209      1.0  0.95980  0.50010  0.03690  1.0000 0.0489718081
C   C210      1.0  0.49990  0.45970  0.03690  1.0000 0.0489718081
C   C211      1.0  0.15050  0.76570  0.78170  1.0000 0.0786607635
C   C212      1.0  0.23430  0.38480  0.78170  1.0000 0.0786607635
C   C213      1.0  0.61520  0.84950  0.78170  1.0000 0.0786607635
C   C214      1.0  0.84950  0.23430  0.28170  1.0000 0.0786607635
C   C215      1.0  0.76570  0.61520  0.28170  1.0000 0.0786607635
C   C216      1.0  0.38480  0.15050  0.28170  1.0000 0.0786607635
C   C217      1.0  0.29420  0.79720  0.17800  1.0000 -0.149292688
C   C218      1.0  0.20280  0.49700  0.17800  1.0000 -0.149292688
C   C219      1.0  0.50300  0.70580  0.17800  1.0000 -0.149292688
C   C220      1.0  0.70580  0.20280  0.67800  1.0000 -0.149292688
C   C221      1.0  0.79720  0.50300  0.67800  1.0000 -0.149292688
C   C222      1.0  0.49700  0.29420  0.67800  1.0000 -0.149292688
C   C223      1.0  0.09910  0.64750  0.79450  1.0000 -0.0560244076
C   C224      1.0  0.35250  0.45160  0.79450  1.0000 -0.0560244076
C   C225      1.0  0.54840  0.90090  0.79450  1.0000 -0.0560244076
C   C226      1.0  0.90090  0.35250  0.29450  1.0000 -0.0560244076
C   C227      1.0  0.64750  0.54840  0.29450  1.0000 -0.0560244076
C   C228      1.0  0.45160  0.09910  0.29450  1.0000 -0.0560244076
C   C229      1.0  0.50110  0.07330  0.49420  1.0000 -0.1673166718
C   C230      1.0  0.92670  0.42780  0.49420  1.0000 -0.1673166718
C   C231      1.0  0.57220  0.49890  0.49420  1.0000 -0.1673166718
C   C232      1.0  0.49890  0.92670  0.99420  1.0000 -0.1673166718
C   C233      1.0  0.07330  0.57220  0.99420  1.0000 -0.1673166718
C   C234      1.0  0.42780  0.50110  0.99420  1.0000 -0.1673166718
C   C235      1.0  0.93340  0.63490  0.60890  1.0000 0.060424793
C   C236      1.0  0.36510  0.29850  0.60890  1.0000 0.060424793
C   C237      1.0  0.70150  0.06660  0.60890  1.0000 0.060424793
C   C238      1.0  0.06660  0.36510  0.10890  1.0000 0.060424793
C   C239      1.0  0.63490  0.70150  0.10890  1.0000 0.060424793
C   C240      1.0  0.29850  0.93340  0.10890  1.0000 0.060424793
C   C241      1.0  0.76060  0.59680  0.43190  1.0000 -0.0238637043
C   C242      1.0  0.40320  0.16380  0.43190  1.0000 -0.0238637043
C   C243      1.0  0.83620  0.23940  0.43190  1.0000 -0.0238637043
C   C244      1.0  0.23940  0.40320  0.93190  1.0000 -0.0238637043
C   C245      1.0  0.59680  0.83620  0.93190  1.0000 -0.0238637043
C   C246      1.0  0.16380  0.76060  0.93190  1.0000 -0.0238637043
C   C247      1.0  0.85410  0.58500  0.44970  1.0000 0.1290153922
C   C248      1.0  0.41500  0.26910  0.44970  1.0000 0.1290153922
C   C249      1.0  0.73090  0.14590  0.44970  1.0000 0.1290153922
C   C250      1.0  0.14590  0.41500  0.94970  1.0000 0.1290153922
C   C251      1.0  0.58500  0.73090  0.94970  1.0000 0.1290153922
C   C252      1.0  0.26910  0.85410  0.94970  1.0000 0.1290153922
C   C253      1.0  0.17620  0.71030  0.21170  1.0000 -0.111031675
C   C254      1.0  0.28970  0.46590  0.21170  1.0000 -0.111031675
C   C255      1.0  0.53410  0.82380  0.21170  1.0000 -0.111031675
C   C256      1.0  0.82380  0.28970  0.71170  1.0000 -0.111031675
C   C257      1.0  0.71030  0.53410  0.71170  1.0000 -0.111031675
C   C258      1.0  0.46590  0.17620  0.71170  1.0000 -0.111031675
C   C259      1.0  0.85940  0.66050  0.55690  1.0000 -0.1802188273
C   C260      1.0  0.33950  0.19890  0.55690  1.0000 -0.1802188273
C   C261      1.0  0.80110  0.14060  0.55690  1.0000 -0.1802188273
C   C262      1.0  0.14060  0.33950  0.05690  1.0000 -0.1802188273
C   C263      1.0  0.66050  0.80110  0.05690  1.0000 -0.1802188273
C   C264      1.0  0.19890  0.85940  0.05690  1.0000 -0.1802188273
C   C265      1.0  0.69670  0.95320  0.48580  1.0000 -0.1029214456
C   C266      1.0  0.04680  0.74350  0.48580  1.0000 -0.1029214456
C   C267      1.0  0.25650  0.30330  0.48580  1.0000 -0.1029214456
C   C268      1.0  0.30330  0.04680  0.98580  1.0000 -0.1029214456
C   C269      1.0  0.95320  0.25650  0.98580  1.0000 -0.1029214456
C   C270      1.0  0.74350  0.69670  0.98580  1.0000 -0.1029214456
C   C271      1.0  0.27810  0.00170  0.34750  1.0000 -0.1029214456
C   C272      1.0  0.99830  0.27640  0.34750  1.0000 -0.1029214456
C   C273      1.0  0.72360  0.72190  0.34750  1.0000 -0.1029214456
C   C274      1.0  0.72190  0.99830  0.84750  1.0000 -0.1029214456
C   C275      1.0  0.00170  0.72360  0.84750  1.0000 -0.1029214456
C   C276      1.0  0.27640  0.27810  0.84750  1.0000 -0.1029214456
C   C277      1.0  0.03280  0.63420  0.65390  1.0000 -0.1194955427
C   C278      1.0  0.36580  0.39860  0.65390  1.0000 -0.1194955427
C   C279      1.0  0.60140  0.96720  0.65390  1.0000 -0.1194955427
C   C280      1.0  0.96720  0.36580  0.15390  1.0000 -0.1194955427
C   C281      1.0  0.63420  0.60140  0.15390  1.0000 -0.1194955427
C   C282      1.0  0.39860  0.03280  0.15390  1.0000 -0.1194955427
C   C283      1.0  0.42930  0.96050  0.61380  1.0000 -0.0872009337
C   C284      1.0  0.03950  0.46880  0.61380  1.0000 -0.0872009337
C   C285      1.0  0.53120  0.57070  0.61380  1.0000 -0.0872009337
C   C286      1.0  0.57070  0.03950  0.11380  1.0000 -0.0872009337
C   C287      1.0  0.96050  0.53120  0.11380  1.0000 -0.0872009337
C   C288      1.0  0.46880  0.42930  0.11380  1.0000 -0.0872009337
C   C289      1.0  0.13880  0.87180  0.34690  1.0000 0.0489718081
C   C290      1.0  0.12820  0.26700  0.34690  1.0000 0.0489718081
C   C291      1.0  0.73300  0.86120  0.34690  1.0000 0.0489718081
C   C292      1.0  0.86120  0.12820  0.84690  1.0000 0.0489718081
C   C293      1.0  0.87180  0.73300  0.84690  1.0000 0.0489718081
C   C294      1.0  0.26700  0.13880  0.84690  1.0000 0.0489718081
C   C295      1.0  0.07300  0.65010  0.69230  1.0000 -0.149292688
C   C296      1.0  0.34990  0.42290  0.69230  1.0000 -0.149292688
C   C297      1.0  0.57710  0.92700  0.69230  1.0000 -0.149292688
C   C298      1.0  0.92700  0.34990  0.19230  1.0000 -0.149292688
C   C299      1.0  0.65010  0.57710  0.19230  1.0000 -0.149292688
C   C300      1.0  0.42290  0.07300  0.19230  1.0000 -0.149292688
C   C301      1.0  0.22130  0.74250  0.17360  1.0000 -0.1194955427
C   C302      1.0  0.25750  0.47880  0.17360  1.0000 -0.1194955427
C   C303      1.0  0.52120  0.77870  0.17360  1.0000 -0.1194955427
C   C304      1.0  0.77870  0.25750  0.67360  1.0000 -0.1194955427
C   C305      1.0  0.74250  0.52120  0.67360  1.0000 -0.1194955427
C   C306      1.0  0.47880  0.22130  0.67360  1.0000 -0.1194955427
C   C307      1.0  0.89510  0.67110  0.59770  1.0000 -0.1388266723
C   C308      1.0  0.32890  0.22400  0.59770  1.0000 -0.1388266723
C   C309      1.0  0.77600  0.10490  0.59770  1.0000 -0.1388266723
C   C310      1.0  0.10490  0.32890  0.09770  1.0000 -0.1388266723
C   C311      1.0  0.67110  0.77600  0.09770  1.0000 -0.1388266723
C   C312      1.0  0.22400  0.89510  0.09770  1.0000 -0.1388266723
C   C313      1.0  0.77000  0.61140  0.47450  1.0000 -0.1194955427
C   C314      1.0  0.38860  0.15860  0.47450  1.0000 -0.1194955427
C   C315      1.0  0.84140  0.23000  0.47450  1.0000 -0.1194955427
C   C316      1.0  0.23000  0.38860  0.97450  1.0000 -0.1194955427
C   C317      1.0  0.61140  0.84140  0.97450  1.0000 -0.1194955427
C   C318      1.0  0.15860  0.77000  0.97450  1.0000 -0.1194955427
C   C319      1.0  0.45190  0.03600  0.61190  1.0000 -0.111031675
C   C320      1.0  0.96400  0.41590  0.61190  1.0000 -0.111031675
C   C321      1.0  0.58410  0.54810  0.61190  1.0000 -0.111031675
C   C322      1.0  0.54810  0.96400  0.11190  1.0000 -0.111031675
C   C323      1.0  0.03600  0.58410  0.11190  1.0000 -0.111031675
C   C324      1.0  0.41590  0.45190  0.11190  1.0000 -0.111031675
C   C325      1.0  0.47350  0.07290  0.57260  1.0000 -0.1673166718
C   C326      1.0  0.92710  0.40060  0.57260  1.0000 -0.1673166718
C   C327      1.0  0.59940  0.52650  0.57260  1.0000 -0.1673166718
C   C328      1.0  0.52650  0.92710  0.07260  1.0000 -0.1673166718
C   C329      1.0  0.07290  0.59940  0.07260  1.0000 -0.1673166718
C   C330      1.0  0.40060  0.47350  0.07260  1.0000 -0.1673166718
C   C331      1.0  0.89380  0.56870  0.53990  1.0000 -0.1673166718
C   C332      1.0  0.43130  0.32510  0.53990  1.0000 -0.1673166718
C   C333      1.0  0.67490  0.10620  0.53990  1.0000 -0.1673166718
C   C334      1.0  0.10620  0.43130  0.03990  1.0000 -0.1673166718
C   C335      1.0  0.56870  0.67490  0.03990  1.0000 -0.1673166718
C   C336      1.0  0.32510  0.89380  0.03990  1.0000 -0.1673166718
C   C337      1.0  0.07010  0.80740  0.34860  1.0000 -0.149292688
C   C338      1.0  0.19260  0.26270  0.34860  1.0000 -0.149292688
C   C339      1.0  0.73730  0.92990  0.34860  1.0000 -0.149292688
C   C340      1.0  0.92990  0.19260  0.84860  1.0000 -0.149292688
C   C341      1.0  0.80740  0.73730  0.84860  1.0000 -0.149292688
C   C342      1.0  0.26270  0.07010  0.84860  1.0000 -0.149292688
C   C343      1.0  0.95390  0.67490  0.68700  1.0000 -0.1302559217
C   C344      1.0  0.32510  0.27900  0.68700  1.0000 -0.1302559217
C   C345      1.0  0.72100  0.04610  0.68700  1.0000 -0.1302559217
C   C346      1.0  0.04610  0.32510  0.18700  1.0000 -0.1302559217
C   C347      1.0  0.67490  0.72100  0.18700  1.0000 -0.1302559217
C   C348      1.0  0.27900  0.95390  0.18700  1.0000 -0.1302559217
C   C349      1.0  0.99510  0.69020  0.72670  1.0000 -0.1802188273
C   C350      1.0  0.30980  0.30490  0.72670  1.0000 -0.1802188273
C   C351      1.0  0.69510  0.00490  0.72670  1.0000 -0.1802188273
C   C352      1.0  0.00490  0.30980  0.22670  1.0000 -0.1802188273
C   C353      1.0  0.69020  0.69510  0.22670  1.0000 -0.1802188273
C   C354      1.0  0.30490  0.99510  0.22670  1.0000 -0.1802188273
C   C355      1.0  0.71140  0.90870  0.55480  1.0000 -0.1581262084
C   C356      1.0  0.09130  0.80270  0.55480  1.0000 -0.1581262084
C   C357      1.0  0.19730  0.28860  0.55480  1.0000 -0.1581262084
C   C358      1.0  0.28860  0.09130  0.05480  1.0000 -0.1581262084
C   C359      1.0  0.90870  0.19730  0.05480  1.0000 -0.1581262084
C   C360      1.0  0.80270  0.71140  0.05480  1.0000 -0.1581262084
C   C361      1.0  0.93020  0.58280  0.58040  1.0000 -0.1194955427
C   C362      1.0  0.41720  0.34740  0.58040  1.0000 -0.1194955427
C   C363      1.0  0.65260  0.06980  0.58040  1.0000 -0.1194955427
C   C364      1.0  0.06980  0.41720  0.08040  1.0000 -0.1194955427
C   C365      1.0  0.58280  0.65260  0.08040  1.0000 -0.1194955427
C   C366      1.0  0.34740  0.93020  0.08040  1.0000 -0.1194955427
C   C367      1.0  0.74320  0.95080  0.51800  1.0000 -0.1029214456
C   C368      1.0  0.04920  0.79240  0.51800  1.0000 -0.1029214456
C   C369      1.0  0.20760  0.25680  0.51800  1.0000 -0.1029214456
C   C370      1.0  0.25680  0.04920  0.01800  1.0000 -0.1029214456
C   C371      1.0  0.95080  0.20760  0.01800  1.0000 -0.1029214456
C   C372      1.0  0.79240  0.74320  0.01800  1.0000 -0.1029214456
C   C373      1.0  0.14560  0.94310  0.34700  1.0000 -0.149292688
C   C374      1.0  0.05690  0.20250  0.34700  1.0000 -0.149292688
C   C375      1.0  0.79750  0.85440  0.34700  1.0000 -0.149292688
C   C376      1.0  0.85440  0.05690  0.84700  1.0000 -0.149292688
C   C377      1.0  0.94310  0.79750  0.84700  1.0000 -0.149292688
C   C378      1.0  0.20250  0.14560  0.84700  1.0000 -0.149292688
C   C379      1.0  0.21500  0.00760  0.34600  1.0000 -0.111031675
C   C380      1.0  0.99240  0.20740  0.34600  1.0000 -0.111031675
C   C381      1.0  0.79260  0.78500  0.34600  1.0000 -0.111031675
C   C382      1.0  0.78500  0.99240  0.84600  1.0000 -0.111031675
C   C383      1.0  0.00760  0.79260  0.84600  1.0000 -0.111031675
C   C384      1.0  0.20740  0.21500  0.84600  1.0000 -0.111031675
C   C385      1.0  0.31960  0.21250  0.20270  1.0000 -0.272203735
C   C386      1.0  0.25060  0.25810  0.23450  1.0000 -0.2857491464
C   C387      1.0  0.89290  0.68040  0.20270  1.0000 -0.272203735
C   C388      1.0  0.00750  0.74940  0.23450  1.0000 -0.2857491464
C   C389      1.0  0.78750  0.10710  0.20270  1.0000 -0.272203735
C   C390      1.0  0.74190  0.99250  0.23450  1.0000 -0.2857491464
C   C391      1.0  0.68040  0.78750  0.70270  1.0000 -0.272203735
C   C392      1.0  0.74940  0.74190  0.73450  1.0000 -0.2857491464
C   C393      1.0  0.10710  0.31960  0.70270  1.0000 -0.272203735
C   C394      1.0  0.99250  0.25060  0.73450  1.0000 -0.2857491464
C   C395      1.0  0.21250  0.89290  0.70270  1.0000 -0.272203735
C   C396      1.0  0.25810  0.00750  0.73450  1.0000 -0.2857491464
N   N1        1.0  0.18020  0.76040  0.81817  1.0000 -0.2857491464
N   N2        1.0  0.23960  0.41980  0.81817  1.0000 -0.2857491464
N   N3        1.0  0.58020  0.81980  0.81817  1.0000 -0.2857491464
N   N4        1.0  0.81980  0.23960  0.31817  1.0000 -0.2857491464
N   N5        1.0  0.76040  0.58020  0.31817  1.0000 -0.2857491464
N   N6        1.0  0.41980  0.18020  0.31817  1.0000 -0.2857491464
N   N7        1.0  0.81390  0.58100  0.41580  1.0000 -0.280502609
N   N8        1.0  0.41900  0.23290  0.41580  1.0000 -0.280502609
N   N9        1.0  0.76710  0.18610  0.41580  1.0000 -0.280502609
N   N10       1.0  0.18610  0.41900  0.91580  1.0000 -0.280502609
N   N11       1.0  0.58100  0.76710  0.91580  1.0000 -0.280502609
N   N12       1.0  0.23290  0.81390  0.91580  1.0000 -0.280502609
N   N13       1.0  0.09960  0.69640  0.76630  1.0000 0.0153217536
N   N14       1.0  0.30360  0.40320  0.76630  1.0000 0.0153217536
N   N15       1.0  0.59680  0.90040  0.76630  1.0000 0.0153217536
N   N16       1.0  0.90040  0.30360  0.26630  1.0000 0.0153217536
N   N17       1.0  0.69640  0.59680  0.26630  1.0000 0.0153217536
N   N18       1.0  0.40320  0.09960  0.26630  1.0000 0.0153217536
N   N19       1.0  0.84040  0.48880  0.32990  1.0000 -0.7878545886
N   N20       1.0  0.51120  0.35160  0.32990  1.0000 -0.7878545886
N   N21       1.0  0.64840  0.15960  0.32990  1.0000 -0.7878545886
N   N22       1.0  0.15960  0.51120  0.82990  1.0000 -0.7878545886
N   N23       1.0  0.48880  0.64840  0.82990  1.0000 -0.7878545886
N   N24       1.0  0.35160  0.84040  0.82990  1.0000 -0.7878545886
N   N25       1.0  0.82910  0.60060  0.48640  1.0000 0.0040034562
N   N26       1.0  0.39940  0.22850  0.48640  1.0000 0.0040034562
N   N27       1.0  0.77150  0.17090  0.48640  1.0000 0.0040034562
N   N28       1.0  0.17090  0.39940  0.98640  1.0000 0.0040034562
N   N29       1.0  0.60060  0.77150  0.98640  1.0000 0.0040034562
N   N30       1.0  0.22850  0.82910  0.98640  1.0000 0.0040034562
N   N31       1.0  0.31990  0.27240  0.22040  1.0000 -0.0729119644
N   N32       1.0  0.95250  0.68010  0.22040  1.0000 -0.0729119644
N   N33       1.0  0.72760  0.04750  0.22040  1.0000 -0.0729119644
N   N34       1.0  0.68010  0.72760  0.72040  1.0000 -0.0729119644
N   N35       1.0  0.04750  0.31990  0.72040  1.0000 -0.0729119644
N   N36       1.0  0.27240  0.95250  0.72040  1.0000 -0.0729119644
O   O1        1.0  0.51600  0.04360  0.37892  1.0000 -0.6375878949
O   O2        1.0  0.95640  0.47240  0.37892  1.0000 -0.6375878949
O   O3        1.0  0.52760  0.48400  0.37892  1.0000 -0.6375878949
O   O4        1.0  0.48400  0.95640  0.87892  1.0000 -0.6375878949
O   O5        1.0  0.04360  0.52760  0.87892  1.0000 -0.6375878949
O   O6        1.0  0.47240  0.51600  0.87892  1.0000 -0.6375878949
O   O7        1.0  0.49430  0.92720  0.42408  1.0000 -0.6291589156
O   O8        1.0  0.07280  0.56710  0.42408  1.0000 -0.6291589156
O   O9        1.0  0.43290  0.50570  0.42408  1.0000 -0.6291589156
O   O10       1.0  0.50570  0.07280  0.92408  1.0000 -0.6291589156
O   O11       1.0  0.92720  0.43290  0.92408  1.0000 -0.6291589156
O   O12       1.0  0.56710  0.49430  0.92408  1.0000 -0.6291589156
O   O13       1.0  0.41820  0.89460  0.34329  1.0000 -0.6133236056
O   O14       1.0  0.10540  0.52360  0.34329  1.0000 -0.6133236056
O   O15       1.0  0.47640  0.58180  0.34329  1.0000 -0.6133236056
O   O16       1.0  0.58180  0.10540  0.84329  1.0000 -0.6133236056
O   O17       1.0  0.89460  0.47640  0.84329  1.0000 -0.6133236056
O   O18       1.0  0.52360  0.41820  0.84329  1.0000 -0.6133236056
O   O19       1.0  0.12370  0.66460  0.35306  1.0000 -0.6375878949
O   O20       1.0  0.33540  0.45910  0.35306  1.0000 -0.6375878949
O   O21       1.0  0.54090  0.87630  0.35306  1.0000 -0.6375878949
O   O22       1.0  0.87630  0.33540  0.85306  1.0000 -0.6375878949
O   O23       1.0  0.66460  0.54090  0.85306  1.0000 -0.6375878949
O   O24       1.0  0.45910  0.12370  0.85306  1.0000 -0.6375878949
O   O25       1.0  0.54230  0.99220  0.30395  1.0000 -0.6375878949
O   O26       1.0  0.00780  0.55010  0.30395  1.0000 -0.6375878949
O   O27       1.0  0.44990  0.45770  0.30395  1.0000 -0.6375878949
O   O28       1.0  0.45770  0.00780  0.80395  1.0000 -0.6375878949
O   O29       1.0  0.99220  0.44990  0.80395  1.0000 -0.6375878949
O   O30       1.0  0.55010  0.54230  0.80395  1.0000 -0.6375878949
O   O31       1.0  0.42020  0.69490  0.64613  1.0000 -0.6217395232
O   O32       1.0  0.30510  0.72530  0.64613  1.0000 -0.6217395232
O   O33       1.0  0.27470  0.57980  0.64613  1.0000 -0.6217395232
O   O34       1.0  0.57980  0.30510  0.14613  1.0000 -0.6217395232
O   O35       1.0  0.69490  0.27470  0.14613  1.0000 -0.6217395232
O   O36       1.0  0.72530  0.42020  0.14613  1.0000 -0.6217395232
O   O37       1.0  0.93220  0.67450  0.34579  1.0000 -0.5323519623
O   O38       1.0  0.32550  0.25770  0.34579  1.0000 -0.5323519623
O   O39       1.0  0.74230  0.06780  0.34579  1.0000 -0.5323519623
O   O40       1.0  0.06780  0.32550  0.84579  1.0000 -0.5323519623
O   O41       1.0  0.67450  0.74230  0.84579  1.0000 -0.5323519623
O   O42       1.0  0.25770  0.93220  0.84579  1.0000 -0.5323519623
O   O43       1.0  0.40190  0.74880  0.57274  1.0000 -0.6025878654
O   O44       1.0  0.25120  0.65310  0.57274  1.0000 -0.6025878654
O   O45       1.0  0.34690  0.59810  0.57274  1.0000 -0.6025878654
O   O46       1.0  0.59810  0.25120  0.07274  1.0000 -0.6025878654
O   O47       1.0  0.74880  0.34690  0.07274  1.0000 -0.6025878654
O   O48       1.0  0.65310  0.40190  0.07274  1.0000 -0.6025878654
O   O49       1.0  0.54280  0.99490  0.23190  1.0000 -0.5417504674
O   O50       1.0  0.00510  0.54790  0.23190  1.0000 -0.5417504674
O   O51       1.0  0.45210  0.45720  0.23190  1.0000 -0.5417504674
O   O52       1.0  0.45720  0.00510  0.73190  1.0000 -0.5417504674
O   O53       1.0  0.99490  0.45210  0.73190  1.0000 -0.5417504674
O   O54       1.0  0.54790  0.54280  0.73190  1.0000 -0.5417504674
O   O55       1.0  0.98250  0.61190  0.37454  1.0000 -0.6291589156
O   O56       1.0  0.38810  0.37060  0.37454  1.0000 -0.6291589156
O   O57       1.0  0.62940  0.01750  0.37454  1.0000 -0.6291589156
O   O58       1.0  0.01750  0.38810  0.87454  1.0000 -0.6291589156
O   O59       1.0  0.61190  0.62940  0.87454  1.0000 -0.6291589156
O   O60       1.0  0.37060  0.98250  0.87454  1.0000 -0.6291589156
O   O61       1.0  0.55550  0.14850  0.41523  1.0000 -0.5147344436
O   O62       1.0  0.85150  0.40700  0.41523  1.0000 -0.5147344436
O   O63       1.0  0.59300  0.44450  0.41523  1.0000 -0.5147344436
O   O64       1.0  0.44450  0.85150  0.91523  1.0000 -0.5147344436
O   O65       1.0  0.14850  0.59300  0.91523  1.0000 -0.5147344436
O   O66       1.0  0.40700  0.55550  0.91523  1.0000 -0.5147344436
O   O67       1.0  0.53540  0.73800  0.67080  1.0000 -0.5323519623
O   O68       1.0  0.26200  0.79740  0.67080  1.0000 -0.5323519623
O   O69       1.0  0.20260  0.46460  0.67080  1.0000 -0.5323519623
O   O70       1.0  0.46460  0.26200  0.17080  1.0000 -0.5323519623
O   O71       1.0  0.73800  0.20260  0.17080  1.0000 -0.5323519623
O   O72       1.0  0.79740  0.53540  0.17080  1.0000 -0.5323519623
