# DDEC6 charges by PACMAN v1.1 (https://github.com/mtap-research/PACMAN-charge/)
data_2023[Ni][dia]3[ION]3
_chemical_formula_sum              "Ni4 H72 C76 N16 O24"
_cell_length_a       9.8777
_cell_length_b       11.9911
_cell_length_c       21.0983
_cell_angle_alpha    90
_cell_angle_beta     90
_cell_angle_gamma    90

_symmetry_space_group_name_H-M    "P 1"
_symmetry_Int_Tables_number       1

loop_
  _symmetry_equiv_pos_as_xyz
  'x, y, z'

loop_
  _atom_site_type_symbol
  _atom_site_label
  _atom_site_symmetry_multiplicity
  _atom_site_fract_x
  _atom_site_fract_y
  _atom_site_fract_z
  _atom_site_occupancy
  _atom_site_charge
Ni  Ni1       1.0  0.19266  0.25940  0.54694  1.0000 0.6887833208
Ni  Ni2       1.0  0.30734  0.74060  0.04694  1.0000 0.6887833208
Ni  Ni3       1.0  0.80734  0.75940  0.95306  1.0000 0.6887833208
Ni  Ni4       1.0  0.69266  0.24060  0.45306  1.0000 0.6887833208
H   H1        1.0  0.24206  0.46621  0.51775  1.0000 0.3438435078
H   H2        1.0  0.25794  0.53379  0.01775  1.0000 0.3438435078
H   H3        1.0  0.75794  0.96621  0.98225  1.0000 0.3438435078
H   H4        1.0  0.74206  0.03379  0.48225  1.0000 0.3438435078
H   H5        1.0  0.17769  0.42003  0.46457  1.0000 0.3438435078
H   H6        1.0  0.32231  0.57997  0.96457  1.0000 0.3438435078
H   H7        1.0  0.82231  0.92003  0.03543  1.0000 0.3438435078
H   H8        1.0  0.67769  0.07997  0.53543  1.0000 0.3438435078
H   H9        1.0  0.81279  0.30400  0.55522  1.0000 0.2676371292
H   H10       1.0  0.68721  0.69600  0.05522  1.0000 0.2676371292
H   H11       1.0  0.18721  0.80400  0.94478  1.0000 0.2676371292
H   H12       1.0  0.31279  0.19600  0.44478  1.0000 0.2676371292
H   H13       1.0  0.05439  0.62284  0.92400  1.0000 0.1099563974
H   H14       1.0  0.44561  0.37716  0.42400  1.0000 0.1099563974
H   H15       1.0  0.94561  0.12284  0.57600  1.0000 0.1099563974
H   H16       1.0  0.55439  0.87716  0.07600  1.0000 0.1099563974
H   H17       1.0  0.88740  0.51336  0.66906  1.0000 0.1298531627
H   H18       1.0  0.61260  0.48664  0.16906  1.0000 0.1298531627
H   H19       1.0  0.11260  0.01336  0.83094  1.0000 0.1298531627
H   H20       1.0  0.38740  0.98664  0.33094  1.0000 0.1298531627
H   H21       1.0  0.88650  0.46858  0.46120  1.0000 0.1298531627
H   H22       1.0  0.61350  0.53142  0.96120  1.0000 0.1298531627
H   H23       1.0  0.11350  0.96858  0.03880  1.0000 0.1298531627
H   H24       1.0  0.38650  0.03142  0.53880  1.0000 0.1298531627
H   H25       1.0  0.68654  0.59605  0.85272  1.0000 0.1099563974
H   H26       1.0  0.81346  0.40395  0.35272  1.0000 0.1099563974
H   H27       1.0  0.31346  0.09605  0.64728  1.0000 0.1099563974
H   H28       1.0  0.18654  0.90395  0.14728  1.0000 0.1099563974
H   H29       1.0  0.76947  0.50159  0.76533  1.0000 0.1298531627
H   H30       1.0  0.73053  0.49841  0.26533  1.0000 0.1298531627
H   H31       1.0  0.23053  0.00159  0.73467  1.0000 0.1298531627
H   H32       1.0  0.26947  0.99841  0.23467  1.0000 0.1298531627
H   H33       1.0  0.98454  0.43235  0.58126  1.0000 0.0991211787
H   H34       1.0  0.51546  0.56765  0.08126  1.0000 0.0991211787
H   H35       1.0  0.01546  0.93235  0.91874  1.0000 0.0991211787
H   H36       1.0  0.48454  0.06765  0.41874  1.0000 0.0991211787
H   H37       1.0  0.48679  0.44593  0.61264  1.0000 0.1298531627
H   H38       1.0  0.01321  0.55407  0.11264  1.0000 0.1298531627
H   H39       1.0  0.51321  0.94593  0.88736  1.0000 0.1298531627
H   H40       1.0  0.98679  0.05407  0.38736  1.0000 0.1298531627
H   H41       1.0  0.61556  0.43067  0.65886  1.0000 0.1298531627
H   H42       1.0  0.88444  0.56933  0.15886  1.0000 0.1298531627
H   H43       1.0  0.38444  0.93067  0.84114  1.0000 0.1298531627
H   H44       1.0  0.11556  0.06933  0.34114  1.0000 0.1298531627
H   H45       1.0  0.64844  0.26069  0.61553  1.0000 0.1099563974
H   H46       1.0  0.85156  0.73931  0.11553  1.0000 0.1099563974
H   H47       1.0  0.35156  0.76069  0.88447  1.0000 0.1099563974
H   H48       1.0  0.14844  0.23931  0.38447  1.0000 0.1099563974
H   H49       1.0  0.19267  0.38608  0.77472  1.0000 0.1298531627
H   H50       1.0  0.30733  0.61392  0.27472  1.0000 0.1298531627
H   H51       1.0  0.80733  0.88608  0.72528  1.0000 0.1298531627
H   H52       1.0  0.69267  0.11392  0.22528  1.0000 0.1298531627
H   H53       1.0  0.28000  0.30924  0.68363  1.0000 0.1099563974
H   H54       1.0  0.22000  0.69076  0.18363  1.0000 0.1099563974
H   H55       1.0  0.72000  0.80924  0.81637  1.0000 0.1099563974
H   H56       1.0  0.78000  0.19076  0.31637  1.0000 0.1099563974
H   H57       1.0  0.14533  0.52904  0.83889  1.0000 0.1298531627
H   H58       1.0  0.35467  0.47096  0.33889  1.0000 0.1298531627
H   H59       1.0  0.85467  0.02904  0.66111  1.0000 0.1298531627
H   H60       1.0  0.64533  0.97096  0.16111  1.0000 0.1298531627
H   H61       1.0  0.90327  0.66405  0.46896  1.0000 0.1099563974
H   H62       1.0  0.59673  0.33595  0.96896  1.0000 0.1099563974
H   H63       1.0  0.09673  0.16405  0.03104  1.0000 0.1099563974
H   H64       1.0  0.40327  0.83595  0.53104  1.0000 0.1099563974
H   H65       1.0  0.76273  0.76191  0.53924  1.0000 0.1099563974
H   H66       1.0  0.73727  0.23809  0.03924  1.0000 0.1099563974
H   H67       1.0  0.23727  0.26191  0.96076  1.0000 0.1099563974
H   H68       1.0  0.26273  0.73809  0.46076  1.0000 0.1099563974
H   H69       1.0  0.61372  0.66643  0.60636  1.0000 0.1298531627
H   H70       1.0  0.88628  0.33357  0.10636  1.0000 0.1298531627
H   H71       1.0  0.38628  0.16643  0.89364  1.0000 0.1298531627
H   H72       1.0  0.11372  0.83357  0.39364  1.0000 0.1298531627
C   C1        1.0  0.74560  0.45330  0.53140  1.0000 0.1456016258
C   C2        1.0  0.75440  0.54670  0.03140  1.0000 0.144916679
C   C3        1.0  0.25440  0.95330  0.96860  1.0000 0.1456016258
C   C4        1.0  0.24560  0.04670  0.46860  1.0000 0.1456016258
C   C5        1.0  0.49300  0.26700  0.54910  1.0000 0.5732383982
C   C6        1.0  0.00700  0.73300  0.04910  1.0000 0.5732383982
C   C7        1.0  0.50700  0.76700  0.95090  1.0000 0.5732383982
C   C8        1.0  0.99300  0.23300  0.45090  1.0000 0.5732383982
C   C9        1.0  0.96850  0.50990  0.79020  1.0000 0.1099563974
C   C10       1.0  0.53150  0.49010  0.29020  1.0000 0.1099563974
C   C11       1.0  0.03150  0.00990  0.70980  1.0000 0.1099563974
C   C12       1.0  0.46850  0.99010  0.20980  1.0000 0.1099563974
C   C13       1.0  0.99630  0.60010  0.89050  1.0000 0.0722560732
C   C14       1.0  0.50370  0.39990  0.39050  1.0000 0.0722560732
C   C15       1.0  0.00370  0.10010  0.60950  1.0000 0.0722560732
C   C16       1.0  0.49630  0.89990  0.10950  1.0000 0.0809532718
C   C17       1.0  0.02720  0.45730  0.73270  1.0000 0.1208123819
C   C18       1.0  0.47280  0.54270  0.23270  1.0000 0.1208123819
C   C19       1.0  0.97280  0.95730  0.76730  1.0000 0.1208123819
C   C20       1.0  0.52720  0.04270  0.26730  1.0000 0.1208123819
C   C21       1.0  0.96770  0.47050  0.67350  1.0000 -0.1876358017
C   C22       1.0  0.53230  0.52950  0.17350  1.0000 -0.1876358017
C   C23       1.0  0.03230  0.97050  0.82650  1.0000 -0.1876358017
C   C24       1.0  0.46770  0.02950  0.32650  1.0000 -0.1876358017
C   C25       1.0  0.83320  0.50860  0.49100  1.0000 -0.1876358017
C   C26       1.0  0.66680  0.49140  0.99100  1.0000 -0.1876358017
C   C27       1.0  0.16680  0.00860  0.00900  1.0000 -0.1876358017
C   C28       1.0  0.33320  0.99140  0.50900  1.0000 -0.1876358017
C   C29       1.0  0.78140  0.58460  0.84900  1.0000 0.0809532718
C   C30       1.0  0.71860  0.41540  0.34900  1.0000 0.0809532718
C   C31       1.0  0.21860  0.08460  0.65100  1.0000 0.0809532718
C   C32       1.0  0.28140  0.91540  0.15100  1.0000 0.0809532718
C   C33       1.0  0.83030  0.52810  0.79680  1.0000 -0.180802454
C   C34       1.0  0.66970  0.47190  0.29680  1.0000 -0.180802454
C   C35       1.0  0.16970  0.02810  0.70320  1.0000 -0.1876358017
C   C36       1.0  0.33030  0.97190  0.20320  1.0000 -0.1876358017
C   C37       1.0  0.02570  0.42120  0.62150  1.0000 0.0722560732
C   C38       1.0  0.47430  0.57880  0.12150  1.0000 0.0722560732
C   C39       1.0  0.97430  0.92120  0.87850  1.0000 0.0722560732
C   C40       1.0  0.52570  0.07880  0.37850  1.0000 0.0722560732
C   C41       1.0  0.58490  0.42920  0.61420  1.0000 -0.2500569865
C   C42       1.0  0.91510  0.57080  0.11420  1.0000 -0.2500569865
C   C43       1.0  0.41510  0.92920  0.88580  1.0000 -0.2500569865
C   C44       1.0  0.08490  0.07080  0.38580  1.0000 -0.2500569865
C   C45       1.0  0.61680  0.31450  0.58250  1.0000 -0.0015807866
C   C46       1.0  0.88320  0.68550  0.08250  1.0000 -0.0015807866
C   C47       1.0  0.38320  0.81450  0.91750  1.0000 -0.0015807866
C   C48       1.0  0.11680  0.18550  0.41750  1.0000 -0.0015807866
C   C49       1.0  0.66350  0.50920  0.57470  1.0000 0.0456894052
C   C50       1.0  0.83650  0.49080  0.07470  1.0000 0.0456894052
C   C51       1.0  0.33650  0.00920  0.92530  1.0000 0.0456894052
C   C52       1.0  0.16350  0.99080  0.42530  1.0000 0.0456894052
C   C53       1.0  0.14680  0.39590  0.73550  1.0000 -0.180802454
C   C54       1.0  0.35320  0.60410  0.23550  1.0000 -0.180802454
C   C55       1.0  0.85320  0.89590  0.76450  1.0000 -0.180802454
C   C56       1.0  0.64680  0.10410  0.26450  1.0000 -0.180802454
C   C57       1.0  0.19750  0.34970  0.68110  1.0000 0.0870770824
C   C58       1.0  0.30250  0.65030  0.18110  1.0000 0.0870770824
C   C59       1.0  0.80250  0.84970  0.81890  1.0000 0.0870770824
C   C60       1.0  0.69750  0.15030  0.31890  1.0000 0.0870770824
C   C61       1.0  0.05100  0.54430  0.84000  1.0000 -0.180802454
C   C62       1.0  0.44900  0.45570  0.34000  1.0000 -0.180802454
C   C63       1.0  0.94900  0.04430  0.66000  1.0000 -0.180802454
C   C64       1.0  0.55100  0.95570  0.16000  1.0000 -0.180802454
C   C65       1.0  0.84130  0.62450  0.49510  1.0000 -0.0906052634
C   C66       1.0  0.65870  0.37550  0.99510  1.0000 -0.0906052634
C   C67       1.0  0.15870  0.12450  0.00490  1.0000 -0.0906052634
C   C68       1.0  0.34130  0.87550  0.50490  1.0000 -0.0906052634
C   C69       1.0  0.75830  0.68280  0.53770  1.0000 -0.0906052634
C   C70       1.0  0.74170  0.31720  0.03770  1.0000 -0.0906052634
C   C71       1.0  0.24170  0.18280  0.96230  1.0000 -0.0906052634
C   C72       1.0  0.25830  0.81720  0.46230  1.0000 -0.0906052634
C   C73       1.0  0.66950  0.62640  0.57760  1.0000 -0.155389671
C   C74       1.0  0.83050  0.37360  0.07760  1.0000 -0.155389671
C   C75       1.0  0.33050  0.12640  0.92240  1.0000 -0.155389671
C   C76       1.0  0.16950  0.87360  0.42240  1.0000 -0.155389671
N   N1        1.0  0.86330  0.62410  0.89470  1.0000 -0.2227204188
N   N2        1.0  0.63670  0.37590  0.39470  1.0000 -0.2227204188
N   N3        1.0  0.13670  0.12410  0.60530  1.0000 -0.2227204188
N   N4        1.0  0.36330  0.87590  0.10530  1.0000 -0.2227204188
N   N5        1.0  0.13720  0.35840  0.62450  1.0000 -0.2283532068
N   N6        1.0  0.36280  0.64160  0.12450  1.0000 -0.2283532068
N   N7        1.0  0.86280  0.85840  0.87550  1.0000 -0.2283532068
N   N8        1.0  0.63720  0.14160  0.37550  1.0000 -0.2283532068
N   N9        1.0  0.72810  0.33430  0.53574  1.0000 -0.3843456402
N   N10       1.0  0.77190  0.66570  0.03574  1.0000 -0.3843456402
N   N11       1.0  0.27190  0.83430  0.96426  1.0000 -0.3843456402
N   N12       1.0  0.22810  0.16570  0.46426  1.0000 -0.3843456402
N   N13       1.0  0.58070  0.96510  0.64270  1.0000 0.6887833208
N   N14       1.0  0.91930  0.03490  0.14270  1.0000 0.6887833208
N   N15       1.0  0.41930  0.46510  0.85730  1.0000 0.6887833208
N   N16       1.0  0.08070  0.53490  0.35730  1.0000 0.6887833208
O   O1        1.0  0.50430  0.23250  0.49255  1.0000 -0.5599620088
O   O2        1.0  0.99570  0.76750  0.99255  1.0000 -0.5599620088
O   O3        1.0  0.49570  0.73250  0.00745  1.0000 -0.5599620088
O   O4        1.0  0.00430  0.26750  0.50745  1.0000 -0.5599620088
O   O5        1.0  0.38510  0.26360  0.58089  1.0000 -0.5380685075
O   O6        1.0  0.11490  0.73640  0.08089  1.0000 -0.5380685075
O   O7        1.0  0.61490  0.76360  0.91911  1.0000 -0.5380685075
O   O8        1.0  0.88510  0.23640  0.41911  1.0000 -0.5380685075
O   O9        1.0  0.24230  0.40510  0.49322  1.0000 -0.6702274725
O   O10       1.0  0.25770  0.59490  0.99322  1.0000 -0.6702274725
O   O11       1.0  0.75770  0.90510  0.00678  1.0000 -0.6702274725
O   O12       1.0  0.74230  0.09490  0.50678  1.0000 -0.6702274725
O   O13       1.0  0.58730  0.05780  0.61570  1.0000 -0.4608340978
O   O14       1.0  0.65330  0.88800  0.62450  1.0000 -0.4371119707
O   O15       1.0  0.50570  0.95230  0.68880  1.0000 -0.4294624894
O   O16       1.0  0.91270  0.94220  0.11570  1.0000 -0.4608340978
O   O17       1.0  0.84670  0.11200  0.12450  1.0000 -0.4371119707
O   O18       1.0  0.99430  0.04770  0.18880  1.0000 -0.4294624894
O   O19       1.0  0.41270  0.55780  0.88430  1.0000 -0.4608340978
O   O20       1.0  0.34670  0.38800  0.87550  1.0000 -0.4371119707
O   O21       1.0  0.49430  0.45230  0.81120  1.0000 -0.4294624894
O   O22       1.0  0.08730  0.44220  0.38430  1.0000 -0.4608340978
O   O23       1.0  0.15330  0.61200  0.37550  1.0000 -0.4371119707
O   O24       1.0  0.00570  0.54770  0.31120  1.0000 -0.4294624894
