# DDEC6 charges by PACMAN v1.1 (https://github.com/mtap-research/PACMAN-charge/)
data_2023[ZnTi][nan]3[ION]5
_chemical_formula_sum              "Ti8 Zn8 H290 C384 N40 O78"
_cell_length_a       20.8311
_cell_length_b       20.8311
_cell_length_c       30.6498
_cell_angle_alpha    90
_cell_angle_beta     90
_cell_angle_gamma    120

_symmetry_space_group_name_H-M    "P 1"
_symmetry_Int_Tables_number       1

loop_
  _symmetry_equiv_pos_as_xyz
  'x, y, z'

loop_
  _atom_site_type_symbol
  _atom_site_label
  _atom_site_symmetry_multiplicity
  _atom_site_fract_x
  _atom_site_fract_y
  _atom_site_fract_z
  _atom_site_occupancy
  _atom_site_charge
Ti  Ti1       1.0  0.66667  0.33333  0.60318  1.0000 1.8991961518
Ti  Ti2       1.0  0.33333  0.66667  0.10318  1.0000 1.8991961518
Ti  Ti3       1.0  0.94661  0.43405  0.36222  1.0000 1.9101656714
Ti  Ti4       1.0  0.56595  0.51256  0.36222  1.0000 1.9101656714
Ti  Ti5       1.0  0.48744  0.05339  0.36222  1.0000 1.9101656714
Ti  Ti6       1.0  0.05339  0.56595  0.86222  1.0000 1.9101656714
Ti  Ti7       1.0  0.43405  0.48744  0.86222  1.0000 1.9101656714
Ti  Ti8       1.0  0.51256  0.94661  0.86222  1.0000 1.9101656714
Zn  Zn1       1.0  0.66667  0.33333  0.75960  1.0000 0.7249115148
Zn  Zn2       1.0  0.33333  0.66667  0.25960  1.0000 0.7255668083
Zn  Zn3       1.0  0.57548  0.73279  0.35392  1.0000 0.74815073
Zn  Zn4       1.0  0.26721  0.84269  0.35392  1.0000 0.74815073
Zn  Zn5       1.0  0.15731  0.42452  0.35392  1.0000 0.74815073
Zn  Zn6       1.0  0.42452  0.26721  0.85392  1.0000 0.74815073
Zn  Zn7       1.0  0.73279  0.15731  0.85392  1.0000 0.74815073
Zn  Zn8       1.0  0.84269  0.57548  0.85392  1.0000 0.74815073
H   H1        1.0  0.90018  0.49598  0.72274  1.0000 0.3205800095
H   H2        1.0  0.50402  0.40420  0.72274  1.0000 0.3205800095
H   H3        1.0  0.59580  0.09982  0.72274  1.0000 0.3205800095
H   H4        1.0  0.09982  0.50402  0.22274  1.0000 0.3205800095
H   H5        1.0  0.49598  0.59580  0.22274  1.0000 0.3205800095
H   H6        1.0  0.40420  0.90018  0.22274  1.0000 0.3205800095
H   H7        1.0  0.84466  0.51048  0.71728  1.0000 0.3205800095
H   H8        1.0  0.48952  0.33418  0.71728  1.0000 0.3205800095
H   H9        1.0  0.66582  0.15534  0.71728  1.0000 0.3205800095
H   H10       1.0  0.15534  0.48952  0.21728  1.0000 0.3205800095
H   H11       1.0  0.51048  0.66582  0.21728  1.0000 0.3205800095
H   H12       1.0  0.33418  0.84466  0.21728  1.0000 0.3205800095
H   H13       1.0  0.62767  0.41975  0.74823  1.0000 0.2855621317
H   H14       1.0  0.58025  0.20792  0.74823  1.0000 0.2855621317
H   H15       1.0  0.79208  0.37233  0.74823  1.0000 0.2855621317
H   H16       1.0  0.37233  0.58025  0.24823  1.0000 0.2855621317
H   H17       1.0  0.41975  0.79208  0.24823  1.0000 0.2855621317
H   H18       1.0  0.20792  0.62767  0.24823  1.0000 0.2855621317
H   H19       1.0  0.70734  0.45959  0.75518  1.0000 0.2700525362
H   H20       1.0  0.54041  0.24775  0.75518  1.0000 0.2700525362
H   H21       1.0  0.75225  0.29266  0.75518  1.0000 0.2700525362
H   H22       1.0  0.29266  0.54041  0.25518  1.0000 0.2700525362
H   H23       1.0  0.45959  0.75225  0.25518  1.0000 0.2700525362
H   H24       1.0  0.24775  0.70734  0.25518  1.0000 0.2700525362
H   H25       1.0  0.67726  0.42665  0.71291  1.0000 0.2999524339
H   H26       1.0  0.57335  0.25061  0.71291  1.0000 0.2999524339
H   H27       1.0  0.74939  0.32274  0.71291  1.0000 0.2999524339
H   H28       1.0  0.32274  0.57335  0.21291  1.0000 0.2999524339
H   H29       1.0  0.42665  0.74939  0.21291  1.0000 0.2999524339
H   H30       1.0  0.25061  0.67726  0.21291  1.0000 0.2999524339
H   H31       1.0  0.62642  0.33329  0.85978  1.0000 0.2625493794
H   H32       1.0  0.66667  0.29313  0.85978  1.0000 0.2625493794
H   H33       1.0  0.70687  0.37358  0.85978  1.0000 0.2625493794
H   H34       1.0  0.37358  0.66667  0.35978  1.0000 0.2625493794
H   H35       1.0  0.33329  0.70687  0.35978  1.0000 0.2625493794
H   H36       1.0  0.29313  0.62642  0.35978  1.0000 0.2625493794
H   H37       1.0  0.45022  0.65362  0.32891  1.0000 0.2700525362
H   H38       1.0  0.34638  0.79660  0.32891  1.0000 0.2700525362
H   H39       1.0  0.20340  0.54978  0.32891  1.0000 0.2700525362
H   H40       1.0  0.54978  0.34638  0.82891  1.0000 0.2700525362
H   H41       1.0  0.65362  0.20340  0.82891  1.0000 0.2700525362
H   H42       1.0  0.79660  0.45022  0.82891  1.0000 0.2700525362
H   H43       1.0  0.47670  0.60592  0.34594  1.0000 0.2999524339
H   H44       1.0  0.39408  0.87078  0.34594  1.0000 0.2999524339
H   H45       1.0  0.12922  0.52330  0.34594  1.0000 0.2999524339
H   H46       1.0  0.52330  0.39408  0.84594  1.0000 0.2999524339
H   H47       1.0  0.60592  0.12922  0.84594  1.0000 0.2999524339
H   H48       1.0  0.87078  0.47670  0.84594  1.0000 0.2999524339
H   H49       1.0  0.49784  0.63696  0.30234  1.0000 0.313810253
H   H50       1.0  0.36304  0.86088  0.30234  1.0000 0.313810253
H   H51       1.0  0.13912  0.50216  0.30234  1.0000 0.313810253
H   H52       1.0  0.50216  0.36304  0.80234  1.0000 0.313810253
H   H53       1.0  0.63696  0.13912  0.80234  1.0000 0.313810253
H   H54       1.0  0.86088  0.49784  0.80234  1.0000 0.313810253
H   H55       1.0  0.82804  0.36510  0.47018  1.0000 0.1294631514
H   H56       1.0  0.63490  0.46294  0.47018  1.0000 0.1294631514
H   H57       1.0  0.53706  0.17196  0.47018  1.0000 0.1294631514
H   H58       1.0  0.17196  0.63490  0.97018  1.0000 0.1294631514
H   H59       1.0  0.36510  0.53706  0.97018  1.0000 0.1294631514
H   H60       1.0  0.46294  0.82804  0.97018  1.0000 0.1294631514
H   H61       1.0  0.80941  0.40414  0.50777  1.0000 0.1294631514
H   H62       1.0  0.59586  0.40527  0.50777  1.0000 0.1294631514
H   H63       1.0  0.59473  0.19059  0.50777  1.0000 0.1294631514
H   H64       1.0  0.19059  0.59586  0.00777  1.0000 0.1294631514
H   H65       1.0  0.40414  0.59473  0.00777  1.0000 0.1294631514
H   H66       1.0  0.40527  0.80941  0.00777  1.0000 0.1294631514
H   H67       1.0  0.90873  0.48739  0.19758  1.0000 0.1123195371
H   H68       1.0  0.51261  0.42134  0.19758  1.0000 0.1123195371
H   H69       1.0  0.57866  0.09127  0.19758  1.0000 0.1123195371
H   H70       1.0  0.09127  0.51261  0.69758  1.0000 0.1123195371
H   H71       1.0  0.48739  0.57866  0.69758  1.0000 0.1123195371
H   H72       1.0  0.42134  0.90873  0.69758  1.0000 0.1123195371
H   H73       1.0  0.12061  0.60174  0.49028  1.0000 0.1123195371
H   H74       1.0  0.39826  0.51887  0.49028  1.0000 0.1123195371
H   H75       1.0  0.48113  0.87939  0.49028  1.0000 0.1123195371
H   H76       1.0  0.87939  0.39826  0.99028  1.0000 0.1123195371
H   H77       1.0  0.60174  0.48113  0.99028  1.0000 0.1123195371
H   H78       1.0  0.51887  0.12061  0.99028  1.0000 0.1123195371
H   H79       1.0  0.91595  0.32329  0.46441  1.0000 0.1294631514
H   H80       1.0  0.67671  0.59266  0.46441  1.0000 0.1190949817
H   H81       1.0  0.40734  0.08405  0.46441  1.0000 0.1294631514
H   H82       1.0  0.08405  0.67671  0.96441  1.0000 0.1294631514
H   H83       1.0  0.32329  0.40734  0.96441  1.0000 0.1294631514
H   H84       1.0  0.59266  0.91595  0.96441  1.0000 0.1294631514
H   H85       1.0  0.97417  0.25592  0.45808  1.0000 0.1123195371
H   H86       1.0  0.74408  0.71825  0.45808  1.0000 0.1123195371
H   H87       1.0  0.28175  0.02583  0.45808  1.0000 0.1123195371
H   H88       1.0  0.02583  0.74408  0.95808  1.0000 0.1123195371
H   H89       1.0  0.25592  0.28175  0.95808  1.0000 0.1123195371
H   H90       1.0  0.71825  0.97417  0.95808  1.0000 0.1123195371
H   H91       1.0  0.86947  0.44806  0.57810  1.0000 0.1190949817
H   H92       1.0  0.55194  0.42141  0.57810  1.0000 0.1190949817
H   H93       1.0  0.57859  0.13053  0.57810  1.0000 0.1190949817
H   H94       1.0  0.13053  0.55194  0.07810  1.0000 0.1190949817
H   H95       1.0  0.44806  0.57859  0.07810  1.0000 0.1190949817
H   H96       1.0  0.42141  0.86947  0.07810  1.0000 0.1190949817
H   H97       1.0  0.73225  0.48158  0.33942  1.0000 0.1294631514
H   H98       1.0  0.51842  0.25067  0.33942  1.0000 0.1294631514
H   H99       1.0  0.74933  0.26775  0.33942  1.0000 0.1294631514
H   H100      1.0  0.26775  0.51842  0.83942  1.0000 0.1294631514
H   H101      1.0  0.48158  0.74933  0.83942  1.0000 0.1294631514
H   H102      1.0  0.25067  0.73225  0.83942  1.0000 0.1294631514
H   H103      1.0  0.80632  0.50651  0.36459  1.0000 0.1294631514
H   H104      1.0  0.49349  0.29981  0.36459  1.0000 0.1294631514
H   H105      1.0  0.70019  0.19368  0.36459  1.0000 0.1294631514
H   H106      1.0  0.19368  0.49349  0.86459  1.0000 0.1294631514
H   H107      1.0  0.50651  0.70019  0.86459  1.0000 0.1294631514
H   H108      1.0  0.29981  0.80632  0.86459  1.0000 0.1294631514
H   H109      1.0  0.59382  0.68496  0.44732  1.0000 0.1294631514
H   H110      1.0  0.31504  0.90886  0.44732  1.0000 0.1294631514
H   H111      1.0  0.09114  0.40618  0.44732  1.0000 0.1294631514
H   H112      1.0  0.40618  0.31504  0.94732  1.0000 0.1190949817
H   H113      1.0  0.68496  0.09114  0.94732  1.0000 0.1190949817
H   H114      1.0  0.90886  0.59382  0.94732  1.0000 0.1294631514
H   H115      1.0  0.81518  0.18774  0.61510  1.0000 0.1190949817
H   H116      1.0  0.81226  0.62744  0.61510  1.0000 0.1190949817
H   H117      1.0  0.37256  0.18482  0.61510  1.0000 0.1190949817
H   H118      1.0  0.18482  0.81226  0.11510  1.0000 0.1190949817
H   H119      1.0  0.18774  0.37256  0.11510  1.0000 0.1190949817
H   H120      1.0  0.62744  0.81518  0.11510  1.0000 0.1190949817
H   H121      1.0  0.66729  0.50538  0.85087  1.0000 0.1380914637
H   H122      1.0  0.49462  0.16191  0.85087  1.0000 0.1380914637
H   H123      1.0  0.83809  0.33271  0.85087  1.0000 0.1380914637
H   H124      1.0  0.33271  0.49462  0.35087  1.0000 0.1380914637
H   H125      1.0  0.50538  0.83809  0.35087  1.0000 0.1380914637
H   H126      1.0  0.16191  0.66729  0.35087  1.0000 0.1380914637
H   H127      1.0  0.71196  0.53566  0.27541  1.0000 0.1190949817
H   H128      1.0  0.46434  0.17630  0.27541  1.0000 0.1190949817
H   H129      1.0  0.82370  0.28804  0.27541  1.0000 0.1190949817
H   H130      1.0  0.28804  0.46434  0.77541  1.0000 0.1190949817
H   H131      1.0  0.53566  0.82370  0.77541  1.0000 0.1190949817
H   H132      1.0  0.17630  0.71196  0.77541  1.0000 0.1190949817
H   H133      1.0  0.60079  0.53061  0.79349  1.0000 0.1486520326
H   H134      1.0  0.46939  0.07018  0.79349  1.0000 0.1486520326
H   H135      1.0  0.92982  0.39921  0.79349  1.0000 0.1486520326
H   H136      1.0  0.39921  0.46939  0.29349  1.0000 0.1486520326
H   H137      1.0  0.53061  0.92982  0.29349  1.0000 0.1486520326
H   H138      1.0  0.07018  0.60079  0.29349  1.0000 0.1486520326
H   H139      1.0  0.93333  0.51709  0.63830  1.0000 0.1190949817
H   H140      1.0  0.48291  0.41624  0.63830  1.0000 0.1190949817
H   H141      1.0  0.58376  0.06667  0.63830  1.0000 0.1190949817
H   H142      1.0  0.06667  0.48291  0.13830  1.0000 0.1190949817
H   H143      1.0  0.51709  0.58376  0.13830  1.0000 0.1190949817
H   H144      1.0  0.41624  0.93333  0.13830  1.0000 0.1190949817
H   H145      1.0  0.62351  0.52675  0.70228  1.0000 0.1380914637
H   H146      1.0  0.47325  0.09676  0.70228  1.0000 0.1380914637
H   H147      1.0  0.90324  0.37649  0.70228  1.0000 0.1380914637
H   H148      1.0  0.37649  0.47325  0.20228  1.0000 0.1380914637
H   H149      1.0  0.52675  0.90324  0.20228  1.0000 0.1380914637
H   H150      1.0  0.09676  0.62351  0.20228  1.0000 0.1380914637
H   H151      1.0  0.60218  0.56753  0.63737  1.0000 0.1190949817
H   H152      1.0  0.43247  0.03465  0.63737  1.0000 0.1190949817
H   H153      1.0  0.96535  0.39782  0.63737  1.0000 0.1190949817
H   H154      1.0  0.39782  0.43247  0.13737  1.0000 0.1190949817
H   H155      1.0  0.56753  0.96535  0.13737  1.0000 0.1190949817
H   H156      1.0  0.03465  0.60218  0.13737  1.0000 0.1190949817
H   H157      1.0  0.73089  0.77626  0.67548  1.0000 0.1190949817
H   H158      1.0  0.22374  0.95463  0.67548  1.0000 0.1190949817
H   H159      1.0  0.04537  0.26911  0.67548  1.0000 0.1190949817
H   H160      1.0  0.26911  0.22374  0.17548  1.0000 0.1190949817
H   H161      1.0  0.77626  0.04537  0.17548  1.0000 0.1190949817
H   H162      1.0  0.95463  0.73089  0.17548  1.0000 0.1190949817
H   H163      1.0  0.75218  0.73538  0.74049  1.0000 0.1294631514
H   H164      1.0  0.26462  0.01680  0.74049  1.0000 0.1294631514
H   H165      1.0  0.98320  0.24782  0.74049  1.0000 0.1294631514
H   H166      1.0  0.24782  0.26462  0.24049  1.0000 0.1294631514
H   H167      1.0  0.73538  0.98320  0.24049  1.0000 0.1294631514
H   H168      1.0  0.01680  0.75218  0.24049  1.0000 0.1294631514
H   H169      1.0  0.68472  0.84705  0.55112  1.0000 0.1294631514
H   H170      1.0  0.15295  0.83767  0.55112  1.0000 0.1294631514
H   H171      1.0  0.16233  0.31528  0.55112  1.0000 0.1294631514
H   H172      1.0  0.31528  0.15295  0.05112  1.0000 0.1294631514
H   H173      1.0  0.84705  0.16233  0.05112  1.0000 0.1294631514
H   H174      1.0  0.83767  0.68472  0.05112  1.0000 0.1294631514
H   H175      1.0  0.11936  0.62786  0.57024  1.0000 0.1123195371
H   H176      1.0  0.37214  0.49150  0.57024  1.0000 0.1123195371
H   H177      1.0  0.50850  0.88064  0.57024  1.0000 0.1123195371
H   H178      1.0  0.88064  0.37214  0.07024  1.0000 0.1123195371
H   H179      1.0  0.62786  0.50850  0.07024  1.0000 0.1123195371
H   H180      1.0  0.49150  0.11936  0.07024  1.0000 0.1123195371
H   H181      1.0  0.83381  0.52151  0.15174  1.0000 0.1123195371
H   H182      1.0  0.47849  0.31230  0.15174  1.0000 0.1123195371
H   H183      1.0  0.68770  0.16619  0.15174  1.0000 0.1123195371
H   H184      1.0  0.16619  0.47849  0.65174  1.0000 0.1123195371
H   H185      1.0  0.52151  0.68770  0.65174  1.0000 0.1123195371
H   H186      1.0  0.31230  0.83381  0.65174  1.0000 0.1123195371
H   H187      1.0  0.89638  0.15777  0.57229  1.0000 0.1190949817
H   H188      1.0  0.84223  0.73861  0.57229  1.0000 0.1190949817
H   H189      1.0  0.26139  0.10362  0.57229  1.0000 0.1190949817
H   H190      1.0  0.10362  0.84223  0.07229  1.0000 0.1190949817
H   H191      1.0  0.15777  0.26139  0.07229  1.0000 0.1190949817
H   H192      1.0  0.73861  0.89638  0.07229  1.0000 0.1190949817
H   H193      1.0  0.73512  0.54153  0.14493  1.0000 0.1123195371
H   H194      1.0  0.45847  0.19359  0.14493  1.0000 0.1123195371
H   H195      1.0  0.80641  0.26488  0.14493  1.0000 0.1123195371
H   H196      1.0  0.26488  0.45847  0.64493  1.0000 0.1123195371
H   H197      1.0  0.54153  0.80641  0.64493  1.0000 0.1123195371
H   H198      1.0  0.19359  0.73512  0.64493  1.0000 0.1123195371
H   H199      1.0  0.92870  0.60883  0.34734  1.0000 0.1190949817
H   H200      1.0  0.39117  0.31987  0.34734  1.0000 0.1190949817
H   H201      1.0  0.68013  0.07130  0.34734  1.0000 0.1190949817
H   H202      1.0  0.07130  0.39117  0.84734  1.0000 0.1190949817
H   H203      1.0  0.60883  0.68013  0.84734  1.0000 0.1190949817
H   H204      1.0  0.31987  0.92870  0.84734  1.0000 0.1190949817
H   H205      1.0  0.81603  0.65051  0.77070  1.0000 0.1294631514
H   H206      1.0  0.34949  0.16552  0.77070  1.0000 0.1294631514
H   H207      1.0  0.83448  0.18397  0.77070  1.0000 0.1294631514
H   H208      1.0  0.18397  0.34949  0.27070  1.0000 0.1294631514
H   H209      1.0  0.65051  0.83448  0.27070  1.0000 0.1294631514
H   H210      1.0  0.16552  0.81603  0.27070  1.0000 0.1294631514
H   H211      1.0  0.96543  0.17422  0.51126  1.0000 0.1190949817
H   H212      1.0  0.82578  0.79121  0.51126  1.0000 0.1190949817
H   H213      1.0  0.20879  0.03457  0.51126  1.0000 0.1190949817
H   H214      1.0  0.03457  0.82578  0.01126  1.0000 0.1190949817
H   H215      1.0  0.17422  0.20879  0.01126  1.0000 0.1190949817
H   H216      1.0  0.79121  0.96543  0.01126  1.0000 0.1190949817
H   H217      1.0  0.04109  0.71328  0.35517  1.0000 0.1009276672
H   H218      1.0  0.28672  0.32781  0.35517  1.0000 0.1009276672
H   H219      1.0  0.67219  0.95891  0.35517  1.0000 0.1009276672
H   H220      1.0  0.95891  0.28672  0.85517  1.0000 0.1009276672
H   H221      1.0  0.71328  0.67219  0.85517  1.0000 0.1009276672
H   H222      1.0  0.32781  0.04109  0.85517  1.0000 0.1009276672
H   H223      1.0  0.55386  0.63530  0.51814  1.0000 0.1190949817
H   H224      1.0  0.36470  0.91856  0.51814  1.0000 0.1190949817
H   H225      1.0  0.08144  0.44614  0.51814  1.0000 0.1190949817
H   H226      1.0  0.44614  0.36470  0.01814  1.0000 0.1190949817
H   H227      1.0  0.63530  0.08144  0.01814  1.0000 0.1190949817
H   H228      1.0  0.91856  0.55386  0.01814  1.0000 0.1190949817
H   H229      1.0  0.67766  0.55180  0.20622  1.0000 0.1190949817
H   H230      1.0  0.44820  0.12586  0.20622  1.0000 0.1190949817
H   H231      1.0  0.87414  0.32234  0.20622  1.0000 0.1190949817
H   H232      1.0  0.32234  0.44820  0.70622  1.0000 0.1190949817
H   H233      1.0  0.55180  0.87414  0.70622  1.0000 0.1190949817
H   H234      1.0  0.12586  0.67766  0.70622  1.0000 0.1190949817
H   H235      1.0  0.58037  0.86122  0.41787  1.0000 0.1294631514
H   H236      1.0  0.13878  0.71915  0.41787  1.0000 0.1294631514
H   H237      1.0  0.28085  0.41963  0.41787  1.0000 0.1294631514
H   H238      1.0  0.41963  0.13878  0.91787  1.0000 0.1294631514
H   H239      1.0  0.86122  0.28085  0.91787  1.0000 0.1294631514
H   H240      1.0  0.71915  0.58037  0.91787  1.0000 0.1294631514
H   H241      1.0  0.70914  0.81005  0.61656  1.0000 0.1190949817
H   H242      1.0  0.18995  0.89909  0.61656  1.0000 0.1190949817
H   H243      1.0  0.10091  0.29086  0.61656  1.0000 0.1190949817
H   H244      1.0  0.29086  0.18995  0.11656  1.0000 0.1190949817
H   H245      1.0  0.81005  0.10091  0.11656  1.0000 0.1190949817
H   H246      1.0  0.89909  0.70914  0.11656  1.0000 0.1190949817
H   H247      1.0  0.05878  0.60421  0.63436  1.0000 0.1190949817
H   H248      1.0  0.39579  0.45457  0.63436  1.0000 0.1190949817
H   H249      1.0  0.54543  0.94122  0.63436  1.0000 0.1190949817
H   H250      1.0  0.94122  0.39579  0.13436  1.0000 0.1190949817
H   H251      1.0  0.60421  0.54543  0.13436  1.0000 0.1190949817
H   H252      1.0  0.45457  0.05878  0.13436  1.0000 0.1190949817
H   H253      1.0  0.61204  0.86902  0.49566  1.0000 0.1294631514
H   H254      1.0  0.13098  0.74302  0.49566  1.0000 0.1294631514
H   H255      1.0  0.25698  0.38796  0.49566  1.0000 0.1294631514
H   H256      1.0  0.38796  0.13098  0.99566  1.0000 0.1294631514
H   H257      1.0  0.86902  0.25698  0.99566  1.0000 0.1294631514
H   H258      1.0  0.74302  0.61204  0.99566  1.0000 0.1294631514
H   H259      1.0  0.80833  0.77979  0.35520  1.0000 0.1190949817
H   H260      1.0  0.22021  0.02854  0.35520  1.0000 0.1190949817
H   H261      1.0  0.97146  0.19167  0.35520  1.0000 0.1190949817
H   H262      1.0  0.19167  0.22021  0.85520  1.0000 0.1190949817
H   H263      1.0  0.77979  0.97146  0.85520  1.0000 0.1190949817
H   H264      1.0  0.02854  0.80833  0.85520  1.0000 0.1190949817
H   H265      1.0  0.58152  0.59914  0.58348  1.0000 0.1123195371
H   H266      1.0  0.40086  0.98238  0.58348  1.0000 0.1123195371
H   H267      1.0  0.01762  0.41848  0.58348  1.0000 0.1123195371
H   H268      1.0  0.41848  0.40086  0.08348  1.0000 0.1123195371
H   H269      1.0  0.59914  0.01762  0.08348  1.0000 0.1123195371
H   H270      1.0  0.98238  0.58152  0.08348  1.0000 0.1123195371
H   H271      1.0  0.05021  0.83229  0.35716  1.0000 0.1190949817
H   H272      1.0  0.16771  0.21792  0.35716  1.0000 0.1190949817
H   H273      1.0  0.78208  0.94979  0.35716  1.0000 0.1190949817
H   H274      1.0  0.94979  0.16771  0.85716  1.0000 0.1190949817
H   H275      1.0  0.83229  0.78208  0.85716  1.0000 0.1190949817
H   H276      1.0  0.21792  0.05021  0.85716  1.0000 0.1190949817
H   H277      1.0  0.94568  0.83981  0.35835  1.0000 0.1190949817
H   H278      1.0  0.16019  0.10587  0.35835  1.0000 0.1190949817
H   H279      1.0  0.89413  0.05432  0.35835  1.0000 0.1190949817
H   H280      1.0  0.05432  0.16019  0.85835  1.0000 0.1190949817
H   H281      1.0  0.83981  0.89413  0.85835  1.0000 0.1190949817
H   H282      1.0  0.10587  0.94568  0.85835  1.0000 0.1190949817
H   H283      1.0  0.33333  0.66667  0.88554  1.0000 0.1970002411
H   H284      1.0  0.30042  0.62164  0.92411  1.0000 0.1970002411
H   H285      1.0  0.37836  0.67878  0.92411  1.0000 0.1970002411
H   H286      1.0  0.32122  0.69958  0.92411  1.0000 0.1970002411
H   H287      1.0  0.66667  0.33333  0.38554  1.0000 0.1970002411
H   H288      1.0  0.69958  0.37836  0.42411  1.0000 0.1970002411
H   H289      1.0  0.62164  0.32122  0.42411  1.0000 0.1970002411
H   H290      1.0  0.67878  0.30042  0.42411  1.0000 0.1970002411
C   C1        1.0  0.07640  0.54970  0.41300  1.0000 0.5940663655
C   C2        1.0  0.45030  0.52670  0.41300  1.0000 0.5940663655
C   C3        1.0  0.47330  0.92360  0.41300  1.0000 0.5940663655
C   C4        1.0  0.92360  0.45030  0.91300  1.0000 0.5940663655
C   C5        1.0  0.54970  0.47330  0.91300  1.0000 0.5940663655
C   C6        1.0  0.52670  0.07640  0.91300  1.0000 0.5940663655
C   C7        1.0  0.83270  0.32500  0.53091  1.0000 -0.0269584823
C   C8        1.0  0.67500  0.50770  0.53091  1.0000 -0.0269584823
C   C9        1.0  0.49230  0.16730  0.53091  1.0000 -0.0269584823
C   C10       1.0  0.16730  0.67500  0.03091  1.0000 -0.0269584823
C   C11       1.0  0.32500  0.49230  0.03091  1.0000 -0.0269584823
C   C12       1.0  0.50770  0.83270  0.03091  1.0000 -0.0269584823
C   C13       1.0  0.67030  0.67930  0.35770  1.0000 0.6188209294
C   C14       1.0  0.32070  0.99100  0.35770  1.0000 0.6188209294
C   C15       1.0  0.00900  0.32970  0.35770  1.0000 0.6188209294
C   C16       1.0  0.32970  0.32070  0.85770  1.0000 0.6188209294
C   C17       1.0  0.67930  0.00900  0.85770  1.0000 0.6188209294
C   C18       1.0  0.99100  0.67030  0.85770  1.0000 0.6188209294
C   C19       1.0  0.78540  0.30940  0.56645  1.0000 0.250189338
C   C20       1.0  0.69060  0.47600  0.56645  1.0000 0.250189338
C   C21       1.0  0.52400  0.21460  0.56645  1.0000 0.250189338
C   C22       1.0  0.21460  0.69060  0.06645  1.0000 0.250189338
C   C23       1.0  0.30940  0.52400  0.06645  1.0000 0.250189338
C   C24       1.0  0.47600  0.78540  0.06645  1.0000 0.250189338
C   C25       1.0  0.86900  0.28400  0.52495  1.0000 0.0494158332
C   C26       1.0  0.71600  0.58500  0.52495  1.0000 0.0494158332
C   C27       1.0  0.41500  0.13100  0.52495  1.0000 0.0494158332
C   C28       1.0  0.13100  0.71600  0.02495  1.0000 0.0494158332
C   C29       1.0  0.28400  0.41500  0.02495  1.0000 0.0494158332
C   C30       1.0  0.58500  0.86900  0.02495  1.0000 0.0494158332
C   C31       1.0  0.81920  0.50840  0.29874  1.0000 -0.0269584823
C   C32       1.0  0.49160  0.31080  0.29874  1.0000 -0.0269584823
C   C33       1.0  0.68920  0.18080  0.29874  1.0000 -0.0269584823
C   C34       1.0  0.18080  0.49160  0.79874  1.0000 -0.0269584823
C   C35       1.0  0.50840  0.68920  0.79874  1.0000 -0.0269584823
C   C36       1.0  0.31080  0.81920  0.79874  1.0000 -0.0269584823
C   C37       1.0  0.03410  0.52820  0.45506  1.0000 -0.159742616
C   C38       1.0  0.47180  0.50590  0.45506  1.0000 -0.159742616
C   C39       1.0  0.49410  0.96590  0.45506  1.0000 -0.159742616
C   C40       1.0  0.96590  0.47180  0.95506  1.0000 -0.159742616
C   C41       1.0  0.52820  0.49410  0.95506  1.0000 -0.159742616
C   C42       1.0  0.50590  0.03410  0.95506  1.0000 -0.159742616
C   C43       1.0  0.84240  0.38610  0.49919  1.0000 -0.2500492197
C   C44       1.0  0.61390  0.45630  0.49919  1.0000 -0.2500492197
C   C45       1.0  0.54370  0.15760  0.49919  1.0000 -0.2500492197
C   C46       1.0  0.15760  0.61390  0.99919  1.0000 -0.2500492197
C   C47       1.0  0.38610  0.54370  0.99919  1.0000 -0.2500492197
C   C48       1.0  0.45630  0.84240  0.99919  1.0000 -0.2500492197
C   C49       1.0  0.77900  0.25760  0.59935  1.0000 -0.159742616
C   C50       1.0  0.74240  0.52140  0.59935  1.0000 -0.159742616
C   C51       1.0  0.47860  0.22100  0.59935  1.0000 -0.159742616
C   C52       1.0  0.22100  0.74240  0.09935  1.0000 -0.159742616
C   C53       1.0  0.25760  0.47860  0.09935  1.0000 -0.159742616
C   C54       1.0  0.52140  0.77900  0.09935  1.0000 -0.159742616
C   C55       1.0  0.03350  0.55070  0.53280  1.0000 0.0494158332
C   C56       1.0  0.44930  0.48280  0.53280  1.0000 0.0494158332
C   C57       1.0  0.51720  0.96650  0.53280  1.0000 0.0494158332
C   C58       1.0  0.96650  0.44930  0.03280  1.0000 0.0494158332
C   C59       1.0  0.55070  0.51720  0.03280  1.0000 0.0494158332
C   C60       1.0  0.48280  0.03350  0.03280  1.0000 0.0494158332
C   C61       1.0  0.83000  0.51050  0.21808  1.0000 0.0602645259
C   C62       1.0  0.48950  0.31950  0.21808  1.0000 0.0602645259
C   C63       1.0  0.68050  0.17000  0.21808  1.0000 0.0602645259
C   C64       1.0  0.17000  0.48950  0.71808  1.0000 0.0602645259
C   C65       1.0  0.51050  0.68050  0.71808  1.0000 0.0602645259
C   C66       1.0  0.31950  0.83000  0.71808  1.0000 0.0602645259
C   C67       1.0  0.73120  0.60080  0.35128  1.0000 0.250189338
C   C68       1.0  0.39920  0.13040  0.35128  1.0000 0.250189338
C   C69       1.0  0.86960  0.26880  0.35128  1.0000 0.250189338
C   C70       1.0  0.26880  0.39920  0.85128  1.0000 0.250189338
C   C71       1.0  0.60080  0.86960  0.85128  1.0000 0.250189338
C   C72       1.0  0.13040  0.73120  0.85128  1.0000 0.250189338
C   C73       1.0  0.87130  0.48630  0.30092  1.0000 0.2288170843
C   C74       1.0  0.51370  0.38500  0.30092  1.0000 0.2288170843
C   C75       1.0  0.61500  0.12870  0.30092  1.0000 0.2288170843
C   C76       1.0  0.12870  0.51370  0.80092  1.0000 0.2288170843
C   C77       1.0  0.48630  0.61500  0.80092  1.0000 0.2288170843
C   C78       1.0  0.38500  0.87130  0.80092  1.0000 0.2288170843
C   C79       1.0  0.73340  0.24370  0.63935  1.0000 0.6007989981
C   C80       1.0  0.75630  0.48970  0.63935  1.0000 0.6007989981
C   C81       1.0  0.51030  0.26660  0.63935  1.0000 0.6007989981
C   C82       1.0  0.26660  0.75630  0.13935  1.0000 0.6007989981
C   C83       1.0  0.24370  0.51030  0.13935  1.0000 0.6007989981
C   C84       1.0  0.48970  0.73340  0.13935  1.0000 0.6007989981
C   C85       1.0  0.61650  0.74380  0.52815  1.0000 0.1486520326
C   C86       1.0  0.25620  0.87270  0.52815  1.0000 0.1486520326
C   C87       1.0  0.12730  0.38350  0.52815  1.0000 0.1486520326
C   C88       1.0  0.38350  0.25620  0.02815  1.0000 0.1486520326
C   C89       1.0  0.74380  0.12730  0.02815  1.0000 0.1486520326
C   C90       1.0  0.87270  0.61650  0.02815  1.0000 0.1486520326
C   C91       1.0  0.96600  0.45820  0.26464  1.0000 0.6007989981
C   C92       1.0  0.54180  0.50780  0.26464  1.0000 0.6007989981
C   C93       1.0  0.49220  0.03400  0.26464  1.0000 0.6007989981
C   C94       1.0  0.03400  0.54180  0.76464  1.0000 0.6007989981
C   C95       1.0  0.45820  0.49220  0.76464  1.0000 0.6007989981
C   C96       1.0  0.50780  0.96600  0.76464  1.0000 0.6007989981
C   C97       1.0  0.79470  0.51790  0.25636  1.0000 0.0494158332
C   C98       1.0  0.48210  0.27680  0.25636  1.0000 0.0494158332
C   C99       1.0  0.72320  0.20530  0.25636  1.0000 0.0494158332
C   C100      1.0  0.20530  0.48210  0.75636  1.0000 0.0494158332
C   C101      1.0  0.51790  0.72320  0.75636  1.0000 0.0494158332
C   C102      1.0  0.27680  0.79470  0.75636  1.0000 0.0494158332
C   C103      1.0  0.88520  0.49110  0.22246  1.0000 -0.1488661382
C   C104      1.0  0.50890  0.39410  0.22246  1.0000 -0.1488661382
C   C105      1.0  0.60590  0.11480  0.22246  1.0000 -0.1488661382
C   C106      1.0  0.11480  0.50890  0.72246  1.0000 -0.1488661382
C   C107      1.0  0.49110  0.60590  0.72246  1.0000 -0.1488661382
C   C108      1.0  0.39410  0.88520  0.72246  1.0000 -0.1488661382
C   C109      1.0  0.79340  0.59340  0.34680  1.0000 -0.0269584823
C   C110      1.0  0.40660  0.20000  0.34680  1.0000 -0.0269584823
C   C111      1.0  0.80000  0.20660  0.34680  1.0000 -0.0269584823
C   C112      1.0  0.20660  0.40660  0.84680  1.0000 -0.0269584823
C   C113      1.0  0.59340  0.80000  0.84680  1.0000 -0.0269584823
C   C114      1.0  0.20000  0.79340  0.84680  1.0000 -0.0269584823
C   C115      1.0  0.86250  0.23220  0.55780  1.0000 0.0602645259
C   C116      1.0  0.76780  0.63030  0.55780  1.0000 0.0602645259
C   C117      1.0  0.36970  0.13750  0.55780  1.0000 0.0602645259
C   C118      1.0  0.13750  0.76780  0.05780  1.0000 0.0602645259
C   C119      1.0  0.23220  0.36970  0.05780  1.0000 0.0602645259
C   C120      1.0  0.63030  0.86250  0.05780  1.0000 0.0602645259
C   C121      1.0  0.90570  0.47740  0.26295  1.0000 -0.159742616
C   C122      1.0  0.52260  0.42830  0.26295  1.0000 -0.159742616
C   C123      1.0  0.57170  0.09430  0.26295  1.0000 -0.159742616
C   C124      1.0  0.09430  0.52260  0.76295  1.0000 -0.159742616
C   C125      1.0  0.47740  0.57170  0.76295  1.0000 -0.159742616
C   C126      1.0  0.42830  0.90570  0.76295  1.0000 -0.159742616
C   C127      1.0  0.07070  0.56580  0.49196  1.0000 -0.1699430093
C   C128      1.0  0.43420  0.50490  0.49196  1.0000 -0.1699430093
C   C129      1.0  0.49510  0.92930  0.49196  1.0000 -0.1699430093
C   C130      1.0  0.92930  0.43420  0.99196  1.0000 -0.1699430093
C   C131      1.0  0.56580  0.49510  0.99196  1.0000 -0.1699430093
C   C132      1.0  0.50490  0.07070  0.99196  1.0000 -0.1699430093
C   C133      1.0  0.91180  0.29100  0.48660  1.0000 -0.1282869283
C   C134      1.0  0.70900  0.62080  0.48660  1.0000 -0.1282869283
C   C135      1.0  0.37920  0.08820  0.48660  1.0000 -0.1282869283
C   C136      1.0  0.08820  0.70900  0.98660  1.0000 -0.1282869283
C   C137      1.0  0.29100  0.37920  0.98660  1.0000 -0.1282869283
C   C138      1.0  0.62080  0.91180  0.98660  1.0000 -0.1282869283
C   C139      1.0  0.94620  0.25030  0.48290  1.0000 -0.1027615696
C   C140      1.0  0.74970  0.69590  0.48290  1.0000 -0.1027615696
C   C141      1.0  0.30410  0.05380  0.48290  1.0000 -0.1027615696
C   C142      1.0  0.05380  0.74970  0.98290  1.0000 -0.1027615696
C   C143      1.0  0.25030  0.30410  0.98290  1.0000 -0.1027615696
C   C144      1.0  0.69590  0.94620  0.98290  1.0000 -0.1027615696
C   C145      1.0  0.95910  0.46990  0.45755  1.0000 0.2440607288
C   C146      1.0  0.53010  0.48920  0.45755  1.0000 0.2440607288
C   C147      1.0  0.51080  0.04090  0.45755  1.0000 0.2440607288
C   C148      1.0  0.04090  0.53010  0.95755  1.0000 0.2440607288
C   C149      1.0  0.46990  0.51080  0.95755  1.0000 0.2440607288
C   C150      1.0  0.48920  0.95910  0.95755  1.0000 0.2440607288
C   C151      1.0  0.91960  0.48300  0.57584  1.0000 -0.1282869283
C   C152      1.0  0.51700  0.43660  0.57584  1.0000 -0.1282869283
C   C153      1.0  0.56340  0.08040  0.57584  1.0000 -0.1282869283
C   C154      1.0  0.08040  0.51700  0.07584  1.0000 -0.1282869283
C   C155      1.0  0.48300  0.56340  0.07584  1.0000 -0.1282869283
C   C156      1.0  0.43660  0.91960  0.07584  1.0000 -0.1282869283
C   C157      1.0  0.78480  0.51780  0.33978  1.0000 -0.2576900384
C   C158      1.0  0.48220  0.26700  0.33978  1.0000 -0.2576900384
C   C159      1.0  0.73300  0.21520  0.33978  1.0000 -0.2576900384
C   C160      1.0  0.21520  0.48220  0.83978  1.0000 -0.2576900384
C   C161      1.0  0.51780  0.73300  0.83978  1.0000 -0.2576900384
C   C162      1.0  0.26700  0.78480  0.83978  1.0000 -0.2576900384
C   C163      1.0  0.59090  0.72790  0.44970  1.0000 0.1190949817
C   C164      1.0  0.27210  0.86300  0.44970  1.0000 0.1190949817
C   C165      1.0  0.13700  0.40910  0.44970  1.0000 0.1190949817
C   C166      1.0  0.40910  0.27210  0.94970  1.0000 0.1190949817
C   C167      1.0  0.72790  0.13700  0.94970  1.0000 0.1190949817
C   C168      1.0  0.86300  0.59090  0.94970  1.0000 0.1190949817
C   C169      1.0  0.81850  0.22100  0.59380  1.0000 -0.1488661382
C   C170      1.0  0.77900  0.59750  0.59380  1.0000 -0.1488661382
C   C171      1.0  0.40250  0.18150  0.59380  1.0000 -0.1488661382
C   C172      1.0  0.18150  0.77900  0.09380  1.0000 -0.1488661382
C   C173      1.0  0.22100  0.40250  0.09380  1.0000 -0.1488661382
C   C174      1.0  0.59750  0.81850  0.09380  1.0000 -0.1488661382
C   C175      1.0  0.95750  0.49420  0.53492  1.0000 0.0394481645
C   C176      1.0  0.50580  0.46330  0.53492  1.0000 0.0394481645
C   C177      1.0  0.53670  0.04250  0.53492  1.0000 0.0394481645
C   C178      1.0  0.04250  0.50580  0.03492  1.0000 0.0394481645
C   C179      1.0  0.49420  0.53670  0.03492  1.0000 0.0394481645
C   C180      1.0  0.46330  0.95750  0.03492  1.0000 0.0394481645
C   C181      1.0  0.68890  0.53810  0.82768  1.0000 -0.043039667
C   C182      1.0  0.46190  0.15080  0.82768  1.0000 -0.043039667
C   C183      1.0  0.84920  0.31110  0.82768  1.0000 -0.043039667
C   C184      1.0  0.31110  0.46190  0.32768  1.0000 -0.043039667
C   C185      1.0  0.53810  0.84920  0.32768  1.0000 -0.043039667
C   C186      1.0  0.15080  0.68890  0.32768  1.0000 -0.043039667
C   C187      1.0  0.92150  0.45120  0.49756  1.0000 -0.0196967485
C   C188      1.0  0.54880  0.47030  0.49756  1.0000 -0.0196967485
C   C189      1.0  0.52970  0.07850  0.49756  1.0000 -0.0196967485
C   C190      1.0  0.07850  0.54880  0.99756  1.0000 -0.0196967485
C   C191      1.0  0.45120  0.52970  0.99756  1.0000 -0.0196967485
C   C192      1.0  0.47030  0.92150  0.99756  1.0000 -0.0196967485
C   C193      1.0  0.73690  0.53230  0.25110  1.0000 -0.1181738393
C   C194      1.0  0.46770  0.20460  0.25110  1.0000 -0.1181738393
C   C195      1.0  0.79540  0.26310  0.25110  1.0000 -0.1181738393
C   C196      1.0  0.26310  0.46770  0.75110  1.0000 -0.1181738393
C   C197      1.0  0.53230  0.79540  0.75110  1.0000 -0.1181738393
C   C198      1.0  0.20460  0.73690  0.75110  1.0000 -0.1181738393
C   C199      1.0  0.86450  0.65810  0.34940  1.0000 0.0494158332
C   C200      1.0  0.34190  0.20640  0.34940  1.0000 0.0494158332
C   C201      1.0  0.79360  0.13550  0.34940  1.0000 0.0494158332
C   C202      1.0  0.13550  0.34190  0.84940  1.0000 0.0494158332
C   C203      1.0  0.65810  0.79360  0.84940  1.0000 0.0494158332
C   C204      1.0  0.20640  0.86450  0.84940  1.0000 0.0494158332
C   C205      1.0  0.64870  0.70060  0.60740  1.0000 0.0726733619
C   C206      1.0  0.29940  0.94810  0.60740  1.0000 0.0726733619
C   C207      1.0  0.05190  0.35130  0.60740  1.0000 0.0726733619
C   C208      1.0  0.35130  0.29940  0.10740  1.0000 0.0726733619
C   C209      1.0  0.70060  0.05190  0.10740  1.0000 0.0726733619
C   C210      1.0  0.94810  0.64870  0.10740  1.0000 0.0726733619
C   C211      1.0  0.65190  0.55130  0.79578  1.0000 -0.0792970482
C   C212      1.0  0.44870  0.10060  0.79578  1.0000 -0.0792970482
C   C213      1.0  0.89940  0.34810  0.79578  1.0000 -0.0792970482
C   C214      1.0  0.34810  0.44870  0.29578  1.0000 -0.0792970482
C   C215      1.0  0.55130  0.89940  0.29578  1.0000 -0.0792970482
C   C216      1.0  0.10060  0.65190  0.29578  1.0000 -0.0792970482
C   C217      1.0  0.95810  0.52470  0.61190  1.0000 -0.0792970482
C   C218      1.0  0.47530  0.43340  0.61190  1.0000 -0.0792970482
C   C219      1.0  0.56660  0.04190  0.61190  1.0000 -0.0792970482
C   C220      1.0  0.04190  0.47530  0.11190  1.0000 -0.0792970482
C   C221      1.0  0.52470  0.56660  0.11190  1.0000 -0.0792970482
C   C222      1.0  0.43340  0.95810  0.11190  1.0000 -0.0792970482
C   C223      1.0  0.73740  0.67230  0.35330  1.0000 -0.1488661382
C   C224      1.0  0.32770  0.06510  0.35330  1.0000 -0.1488661382
C   C225      1.0  0.93490  0.26260  0.35330  1.0000 -0.1488661382
C   C226      1.0  0.26260  0.32770  0.85330  1.0000 -0.1488661382
C   C227      1.0  0.67230  0.93490  0.85330  1.0000 -0.1488661382
C   C228      1.0  0.06510  0.73740  0.85330  1.0000 -0.1488661382
C   C229      1.0  0.68980  0.62710  0.72755  1.0000 0.1486520326
C   C230      1.0  0.37290  0.06270  0.72755  1.0000 0.1486520326
C   C231      1.0  0.93730  0.31020  0.72755  1.0000 0.1486520326
C   C232      1.0  0.31020  0.37290  0.22755  1.0000 0.1486520326
C   C233      1.0  0.62710  0.93730  0.22755  1.0000 0.1486520326
C   C234      1.0  0.06270  0.68980  0.22755  1.0000 0.1486520326
C   C235      1.0  0.64530  0.57730  0.69687  1.0000 -0.1405085768
C   C236      1.0  0.42270  0.06800  0.69687  1.0000 -0.1405085768
C   C237      1.0  0.93200  0.35470  0.69687  1.0000 -0.1405085768
C   C238      1.0  0.35470  0.42270  0.19687  1.0000 -0.1405085768
C   C239      1.0  0.57730  0.93200  0.19687  1.0000 -0.1405085768
C   C240      1.0  0.06800  0.64530  0.19687  1.0000 -0.1405085768
C   C241      1.0  0.63260  0.60160  0.65825  1.0000 -0.1181738393
C   C242      1.0  0.39840  0.03100  0.65825  1.0000 -0.1097706373
C   C243      1.0  0.96900  0.36740  0.65825  1.0000 -0.1181738393
C   C244      1.0  0.36740  0.39840  0.15825  1.0000 -0.1181738393
C   C245      1.0  0.60160  0.96900  0.15825  1.0000 -0.1181738393
C   C246      1.0  0.03100  0.63260  0.15825  1.0000 -0.1181738393
C   C247      1.0  0.66460  0.67580  0.65020  1.0000 0.0602645259
C   C248      1.0  0.32420  0.98880  0.65020  1.0000 0.0602645259
C   C249      1.0  0.01120  0.33540  0.65020  1.0000 0.0602645259
C   C250      1.0  0.33540  0.32420  0.15020  1.0000 0.0602645259
C   C251      1.0  0.67580  0.01120  0.15020  1.0000 0.0602645259
C   C252      1.0  0.98880  0.66460  0.15020  1.0000 0.0602645259
C   C253      1.0  0.70910  0.72570  0.68090  1.0000 -0.1181738393
C   C254      1.0  0.27430  0.98340  0.68090  1.0000 -0.1181738393
C   C255      1.0  0.01660  0.29090  0.68090  1.0000 -0.1181738393
C   C256      1.0  0.29090  0.27430  0.18090  1.0000 -0.1181738393
C   C257      1.0  0.72570  0.01660  0.18090  1.0000 -0.1181738393
C   C258      1.0  0.98340  0.70910  0.18090  1.0000 -0.1181738393
C   C259      1.0  0.72180  0.70140  0.71960  1.0000 -0.1699430093
C   C260      1.0  0.29860  0.02040  0.71960  1.0000 -0.1699430093
C   C261      1.0  0.97960  0.27820  0.71960  1.0000 -0.1699430093
C   C262      1.0  0.27820  0.29860  0.21960  1.0000 -0.1699430093
C   C263      1.0  0.70140  0.97960  0.21960  1.0000 -0.1699430093
C   C264      1.0  0.02040  0.72180  0.21960  1.0000 -0.1699430093
C   C265      1.0  0.66350  0.79690  0.55760  1.0000 -0.1699430093
C   C266      1.0  0.20310  0.86660  0.55760  1.0000 -0.1699430093
C   C267      1.0  0.13340  0.33650  0.55760  1.0000 -0.1699430093
C   C268      1.0  0.33650  0.20310  0.05760  1.0000 -0.1699430093
C   C269      1.0  0.79690  0.13340  0.05760  1.0000 -0.1699430093
C   C270      1.0  0.86660  0.66350  0.05760  1.0000 -0.1699430093
C   C271      1.0  0.06970  0.59130  0.57160  1.0000 -0.159742616
C   C272      1.0  0.40870  0.47840  0.57160  1.0000 -0.159742616
C   C273      1.0  0.52160  0.93030  0.57160  1.0000 -0.159742616
C   C274      1.0  0.93030  0.40870  0.07160  1.0000 -0.159742616
C   C275      1.0  0.59130  0.52160  0.07160  1.0000 -0.159742616
C   C276      1.0  0.47840  0.06970  0.07160  1.0000 -0.159742616
C   C277      1.0  0.80860  0.52270  0.17650  1.0000 -0.1405085768
C   C278      1.0  0.47730  0.28590  0.17650  1.0000 -0.1405085768
C   C279      1.0  0.71410  0.19140  0.17650  1.0000 -0.1488661382
C   C280      1.0  0.19140  0.47730  0.67650  1.0000 -0.1405085768
C   C281      1.0  0.52270  0.71410  0.67650  1.0000 -0.1405085768
C   C282      1.0  0.28590  0.80860  0.67650  1.0000 -0.1405085768
C   C283      1.0  0.90000  0.19150  0.55120  1.0000 -0.1405085768
C   C284      1.0  0.80850  0.70850  0.55120  1.0000 -0.1405085768
C   C285      1.0  0.29150  0.10000  0.55120  1.0000 -0.1405085768
C   C286      1.0  0.10000  0.80850  0.05120  1.0000 -0.1405085768
C   C287      1.0  0.19150  0.29150  0.05120  1.0000 -0.1405085768
C   C288      1.0  0.70850  0.90000  0.05120  1.0000 -0.1405085768
C   C289      1.0  0.75080  0.53610  0.17240  1.0000 -0.1097706373
C   C290      1.0  0.46390  0.21470  0.17240  1.0000 -0.1097706373
C   C291      1.0  0.78530  0.24920  0.17240  1.0000 -0.1097706373
C   C292      1.0  0.24920  0.46390  0.67240  1.0000 -0.1097706373
C   C293      1.0  0.53610  0.78530  0.67240  1.0000 -0.1097706373
C   C294      1.0  0.21470  0.75080  0.67240  1.0000 -0.1097706373
C   C295      1.0  0.93130  0.65460  0.34980  1.0000 -0.1282869283
C   C296      1.0  0.34540  0.27670  0.34980  1.0000 -0.1282869283
C   C297      1.0  0.72330  0.06870  0.34980  1.0000 -0.1282869283
C   C298      1.0  0.06870  0.34540  0.84980  1.0000 -0.1282869283
C   C299      1.0  0.65460  0.72330  0.84980  1.0000 -0.1282869283
C   C300      1.0  0.27670  0.93130  0.84980  1.0000 -0.1282869283
C   C301      1.0  0.77100  0.61760  0.78364  1.0000 0.0935170962
C   C302      1.0  0.38240  0.15340  0.78364  1.0000 0.0935170962
C   C303      1.0  0.84660  0.22900  0.78364  1.0000 0.0935170962
C   C304      1.0  0.22900  0.38240  0.28364  1.0000 0.0935170962
C   C305      1.0  0.61760  0.84660  0.28364  1.0000 0.0935170962
C   C306      1.0  0.15340  0.77100  0.28364  1.0000 0.0935170962
C   C307      1.0  0.94100  0.20090  0.51480  1.0000 -0.1027615696
C   C308      1.0  0.79910  0.74010  0.51480  1.0000 -0.1027615696
C   C309      1.0  0.25990  0.05900  0.51480  1.0000 -0.1027615696
C   C310      1.0  0.05900  0.79910  0.01480  1.0000 -0.1027615696
C   C311      1.0  0.20090  0.25990  0.01480  1.0000 -0.1027615696
C   C312      1.0  0.74010  0.94100  0.01480  1.0000 -0.1027615696
C   C313      1.0  0.99840  0.71690  0.35380  1.0000 -0.0915311185
C   C314      1.0  0.28310  0.28150  0.35380  1.0000 -0.0915311185
C   C315      1.0  0.71850  0.00160  0.35380  1.0000 -0.0915311185
C   C316      1.0  0.00160  0.28310  0.85380  1.0000 -0.0915311185
C   C317      1.0  0.71690  0.71850  0.85380  1.0000 -0.0915311185
C   C318      1.0  0.28150  0.99840  0.85380  1.0000 -0.0915311185
C   C319      1.0  0.58590  0.67090  0.53780  1.0000 -0.1488661382
C   C320      1.0  0.32910  0.91500  0.53780  1.0000 -0.1488661382
C   C321      1.0  0.08500  0.41410  0.53780  1.0000 -0.1488661382
C   C322      1.0  0.41410  0.32910  0.03780  1.0000 -0.1488661382
C   C323      1.0  0.67090  0.08500  0.03780  1.0000 -0.1488661382
C   C324      1.0  0.91500  0.58590  0.03780  1.0000 -0.1488661382
C   C325      1.0  0.71610  0.54160  0.20920  1.0000 -0.0915311185
C   C326      1.0  0.45840  0.17450  0.20920  1.0000 -0.0915311185
C   C327      1.0  0.82550  0.28390  0.20920  1.0000 -0.0915311185
C   C328      1.0  0.28390  0.45840  0.70920  1.0000 -0.0915311185
C   C329      1.0  0.54160  0.82550  0.70920  1.0000 -0.0915311185
C   C330      1.0  0.17450  0.71610  0.70920  1.0000 -0.0915311185
C   C331      1.0  0.58520  0.82570  0.43360  1.0000 -0.0196967485
C   C332      1.0  0.17430  0.75950  0.43360  1.0000 -0.0196967485
C   C333      1.0  0.24050  0.41480  0.43360  1.0000 -0.0196967485
C   C334      1.0  0.41480  0.17430  0.93360  1.0000 -0.0196967485
C   C335      1.0  0.82570  0.24050  0.93360  1.0000 -0.0196967485
C   C336      1.0  0.75950  0.58520  0.93360  1.0000 -0.0196967485
C   C337      1.0  0.67810  0.77420  0.59660  1.0000 -0.1405085768
C   C338      1.0  0.22580  0.90390  0.59660  1.0000 -0.1405085768
C   C339      1.0  0.09610  0.32190  0.59660  1.0000 -0.1405085768
C   C340      1.0  0.32190  0.22580  0.09660  1.0000 -0.1405085768
C   C341      1.0  0.77420  0.09610  0.09660  1.0000 -0.1405085768
C   C342      1.0  0.90390  0.67810  0.09660  1.0000 -0.1405085768
C   C343      1.0  0.03370  0.57810  0.60950  1.0000 -0.0915311185
C   C344      1.0  0.42190  0.45560  0.60950  1.0000 -0.0915311185
C   C345      1.0  0.54440  0.96630  0.60950  1.0000 -0.0915311185
C   C346      1.0  0.96630  0.42190  0.10950  1.0000 -0.0915311185
C   C347      1.0  0.57810  0.54440  0.10950  1.0000 -0.0915311185
C   C348      1.0  0.45560  0.03370  0.10950  1.0000 -0.0915311185
C   C349      1.0  0.60190  0.83020  0.47680  1.0000 -0.1097706373
C   C350      1.0  0.16980  0.77170  0.47680  1.0000 -0.1097706373
C   C351      1.0  0.22830  0.39810  0.47680  1.0000 -0.1097706373
C   C352      1.0  0.39810  0.16980  0.97680  1.0000 -0.1097706373
C   C353      1.0  0.83020  0.22830  0.97680  1.0000 -0.1097706373
C   C354      1.0  0.77170  0.60190  0.97680  1.0000 -0.1097706373
C   C355      1.0  0.80470  0.73350  0.35400  1.0000 -0.1405085768
C   C356      1.0  0.26650  0.07120  0.35400  1.0000 -0.1405085768
C   C357      1.0  0.92880  0.19530  0.35400  1.0000 -0.1405085768
C   C358      1.0  0.19530  0.26650  0.85400  1.0000 -0.1405085768
C   C359      1.0  0.73350  0.92880  0.85400  1.0000 -0.1405085768
C   C360      1.0  0.07120  0.80470  0.85400  1.0000 -0.1405085768
C   C361      1.0  0.87110  0.72890  0.35290  1.0000 0.0494158332
C   C362      1.0  0.27110  0.14220  0.35290  1.0000 0.0494158332
C   C363      1.0  0.85780  0.12890  0.35290  1.0000 0.0494158332
C   C364      1.0  0.12890  0.27110  0.85290  1.0000 0.0494158332
C   C365      1.0  0.72890  0.85780  0.85290  1.0000 0.0494158332
C   C366      1.0  0.14220  0.87110  0.85290  1.0000 0.0494158332
C   C367      1.0  0.60240  0.64940  0.57730  1.0000 -0.1181738393
C   C368      1.0  0.35060  0.95300  0.57730  1.0000 -0.1181738393
C   C369      1.0  0.04700  0.39760  0.57730  1.0000 -0.1181738393
C   C370      1.0  0.39760  0.35060  0.07730  1.0000 -0.1181738393
C   C371      1.0  0.64940  0.04700  0.07730  1.0000 -0.1181738393
C   C372      1.0  0.95300  0.60240  0.07730  1.0000 -0.1181738393
C   C373      1.0  0.00400  0.78940  0.35590  1.0000 -0.1097706373
C   C374      1.0  0.21060  0.21460  0.35590  1.0000 -0.1097706373
C   C375      1.0  0.78540  0.99600  0.35590  1.0000 -0.1097706373
C   C376      1.0  0.99600  0.21060  0.85590  1.0000 -0.1097706373
C   C377      1.0  0.78940  0.78540  0.85590  1.0000 -0.1097706373
C   C378      1.0  0.21460  0.00400  0.85590  1.0000 -0.1097706373
C   C379      1.0  0.94220  0.79370  0.35610  1.0000 -0.1405085768
C   C380      1.0  0.20630  0.14850  0.35610  1.0000 -0.1405085768
C   C381      1.0  0.85150  0.05780  0.35610  1.0000 -0.1405085768
C   C382      1.0  0.05780  0.20630  0.85610  1.0000 -0.1405085768
C   C383      1.0  0.79370  0.85150  0.85610  1.0000 -0.1405085768
C   C384      1.0  0.14850  0.94220  0.85610  1.0000 -0.1405085768
N   N1        1.0  0.67000  0.42140  0.74160  1.0000 -0.8001603048
N   N2        1.0  0.57860  0.24860  0.74160  1.0000 -0.8001603048
N   N3        1.0  0.75140  0.33000  0.74160  1.0000 -0.8001603048
N   N4        1.0  0.33000  0.57860  0.24160  1.0000 -0.8001603048
N   N5        1.0  0.42140  0.75140  0.24160  1.0000 -0.8001603048
N   N6        1.0  0.24860  0.67000  0.24160  1.0000 -0.8001603048
N   N7        1.0  0.66667  0.33333  0.85010  1.0000 -0.8489741346
N   N8        1.0  0.33333  0.66667  0.35010  1.0000 -0.8489741346
N   N9        1.0  0.76340  0.58090  0.82003  1.0000 -0.2835622987
N   N10       1.0  0.41910  0.18250  0.82003  1.0000 -0.2835622987
N   N11       1.0  0.81750  0.23660  0.82003  1.0000 -0.2835622987
N   N12       1.0  0.23660  0.41910  0.32003  1.0000 -0.2835622987
N   N13       1.0  0.58090  0.81750  0.32003  1.0000 -0.2835622987
N   N14       1.0  0.18250  0.76340  0.32003  1.0000 -0.2835622987
N   N15       1.0  0.57630  0.75960  0.41631  1.0000 -0.2940544597
N   N16       1.0  0.24040  0.81670  0.41631  1.0000 -0.2940544597
N   N17       1.0  0.18330  0.42370  0.41631  1.0000 -0.2940544597
N   N18       1.0  0.42370  0.24040  0.91631  1.0000 -0.2940544597
N   N19       1.0  0.75960  0.18330  0.91631  1.0000 -0.2940544597
N   N20       1.0  0.81670  0.57630  0.91631  1.0000 -0.2940544597
N   N21       1.0  0.48820  0.64530  0.32936  1.0000 -0.8001603048
N   N22       1.0  0.35470  0.84290  0.32936  1.0000 -0.8001603048
N   N23       1.0  0.15710  0.51180  0.32936  1.0000 -0.8001603048
N   N24       1.0  0.51180  0.35470  0.82936  1.0000 -0.8001603048
N   N25       1.0  0.64530  0.15710  0.82936  1.0000 -0.8001603048
N   N26       1.0  0.84290  0.48820  0.82936  1.0000 -0.8001603048
N   N27       1.0  0.60060  0.76450  0.48665  1.0000 0.0079642932
N   N28       1.0  0.23550  0.83610  0.48665  1.0000 0.0079642932
N   N29       1.0  0.16390  0.39940  0.48665  1.0000 0.0079642932
N   N30       1.0  0.39940  0.23550  0.98665  1.0000 0.0079642932
N   N31       1.0  0.76450  0.16390  0.98665  1.0000 0.0079642932
N   N32       1.0  0.83610  0.60060  0.98665  1.0000 0.0079642932
N   N33       1.0  0.70370  0.60040  0.76782  1.0000 0.0079642932
N   N34       1.0  0.39960  0.10330  0.76782  1.0000 0.0079642932
N   N35       1.0  0.89670  0.29630  0.76782  1.0000 0.0079642932
N   N36       1.0  0.29630  0.39960  0.26782  1.0000 0.0079642932
N   N37       1.0  0.60040  0.89670  0.26782  1.0000 0.0079642932
N   N38       1.0  0.10330  0.70370  0.26782  1.0000 0.0079642932
N   N39       1.0  0.33333  0.66667  0.91460  1.0000 -0.6791351399
N   N40       1.0  0.66667  0.33333  0.41460  1.0000 -0.6791351399
O   O1        1.0  0.85770  0.48490  0.73250  1.0000 -0.6791351399
O   O2        1.0  0.51510  0.37280  0.73250  1.0000 -0.6791351399
O   O3        1.0  0.62720  0.14230  0.73250  1.0000 -0.6791351399
O   O4        1.0  0.14230  0.51510  0.23250  1.0000 -0.6791351399
O   O5        1.0  0.48490  0.62720  0.23250  1.0000 -0.6791351399
O   O6        1.0  0.37280  0.85770  0.23250  1.0000 -0.6791351399
O   O7        1.0  0.03970  0.52789  0.37720  1.0000 -0.6296125215
O   O8        1.0  0.47211  0.51181  0.37720  1.0000 -0.6296125215
O   O9        1.0  0.48819  0.96030  0.37720  1.0000 -0.6296125215
O   O10       1.0  0.96030  0.47211  0.87720  1.0000 -0.6296125215
O   O11       1.0  0.52789  0.48819  0.87720  1.0000 -0.6296125215
O   O12       1.0  0.51181  0.03970  0.87720  1.0000 -0.6296125215
O   O13       1.0  0.92404  0.43109  0.42162  1.0000 -0.6296125215
O   O14       1.0  0.56891  0.49295  0.42162  1.0000 -0.6296125215
O   O15       1.0  0.50705  0.07596  0.42162  1.0000 -0.6296125215
O   O16       1.0  0.07596  0.56891  0.92162  1.0000 -0.6296125215
O   O17       1.0  0.43109  0.50705  0.92162  1.0000 -0.6296125215
O   O18       1.0  0.49295  0.92404  0.92162  1.0000 -0.6296125215
O   O19       1.0  0.69300  0.27340  0.64365  1.0000 -0.6159920952
O   O20       1.0  0.72660  0.41960  0.64365  1.0000 -0.6159920952
O   O21       1.0  0.58040  0.30700  0.64365  1.0000 -0.6159920952
O   O22       1.0  0.30700  0.72660  0.14365  1.0000 -0.6159920952
O   O23       1.0  0.27340  0.58040  0.14365  1.0000 -0.6159920952
O   O24       1.0  0.41960  0.69300  0.14365  1.0000 -0.6159920952
O   O25       1.0  0.74775  0.34556  0.57050  1.0000 -0.6113516352
O   O26       1.0  0.65444  0.40219  0.57050  1.0000 -0.6113516352
O   O27       1.0  0.59781  0.25225  0.57050  1.0000 -0.6113516352
O   O28       1.0  0.25225  0.65444  0.07050  1.0000 -0.6113516352
O   O29       1.0  0.34556  0.59781  0.07050  1.0000 -0.6113516352
O   O30       1.0  0.40219  0.74775  0.07050  1.0000 -0.6113516352
O   O31       1.0  0.66402  0.53951  0.35038  1.0000 -0.6113516352
O   O32       1.0  0.46049  0.12451  0.35038  1.0000 -0.6113516352
O   O33       1.0  0.87549  0.33598  0.35038  1.0000 -0.6113516352
O   O34       1.0  0.33598  0.46049  0.85038  1.0000 -0.6113516352
O   O35       1.0  0.53951  0.87549  0.85038  1.0000 -0.6113516352
O   O36       1.0  0.12451  0.66402  0.85038  1.0000 -0.6113516352
O   O37       1.0  0.61028  0.62518  0.37299  1.0000 -0.6296125215
O   O38       1.0  0.37482  0.98510  0.37299  1.0000 -0.6296125215
O   O39       1.0  0.01490  0.38972  0.37299  1.0000 -0.6296125215
O   O40       1.0  0.38972  0.37482  0.87299  1.0000 -0.6296125215
O   O41       1.0  0.62518  0.01490  0.87299  1.0000 -0.6296125215
O   O42       1.0  0.98510  0.61028  0.87299  1.0000 -0.6296125215
O   O43       1.0  0.98989  0.45090  0.30143  1.0000 -0.6113516352
O   O44       1.0  0.54910  0.53899  0.30143  1.0000 -0.6113516352
O   O45       1.0  0.46101  0.01011  0.30143  1.0000 -0.6113516352
O   O46       1.0  0.01011  0.54910  0.80143  1.0000 -0.6113516352
O   O47       1.0  0.45090  0.46101  0.80143  1.0000 -0.6113516352
O   O48       1.0  0.53899  0.98989  0.80143  1.0000 -0.6113516352
O   O49       1.0  0.14460  0.58940  0.41329  1.0000 -0.5208108238
O   O50       1.0  0.41060  0.55520  0.41329  1.0000 -0.5208108238
O   O51       1.0  0.44480  0.85540  0.41329  1.0000 -0.5208108238
O   O52       1.0  0.85540  0.41060  0.91329  1.0000 -0.5208108238
O   O53       1.0  0.58940  0.44480  0.91329  1.0000 -0.5208108238
O   O54       1.0  0.55520  0.14460  0.91329  1.0000 -0.5208108238
O   O55       1.0  0.89167  0.47450  0.34079  1.0000 -0.6386104784
O   O56       1.0  0.52550  0.41717  0.34079  1.0000 -0.6386104784
O   O57       1.0  0.58283  0.10833  0.34079  1.0000 -0.6386104784
O   O58       1.0  0.10833  0.52550  0.84079  1.0000 -0.6386104784
O   O59       1.0  0.47450  0.58283  0.84079  1.0000 -0.6386104784
O   O60       1.0  0.41717  0.89167  0.84079  1.0000 -0.6386104784
O   O61       1.0  0.99340  0.45290  0.22957  1.0000 -0.5297019841
O   O62       1.0  0.54710  0.54050  0.22957  1.0000 -0.5297019841
O   O63       1.0  0.45950  0.00660  0.22957  1.0000 -0.5297019841
O   O64       1.0  0.00660  0.54710  0.72957  1.0000 -0.5297019841
O   O65       1.0  0.45290  0.45950  0.72957  1.0000 -0.5297019841
O   O66       1.0  0.54050  0.99340  0.72957  1.0000 -0.5297019841
O   O67       1.0  0.67330  0.73910  0.34651  1.0000 -0.5208108238
O   O68       1.0  0.26090  0.93420  0.34651  1.0000 -0.5208108238
O   O69       1.0  0.06580  0.32670  0.34651  1.0000 -0.5208108238
O   O70       1.0  0.32670  0.26090  0.84651  1.0000 -0.5208108238
O   O71       1.0  0.73910  0.06580  0.84651  1.0000 -0.5208108238
O   O72       1.0  0.93420  0.67330  0.84651  1.0000 -0.5208108238
O   O73       1.0  0.73750  0.20530  0.66937  1.0000 -0.5297019841
O   O74       1.0  0.79470  0.53220  0.66937  1.0000 -0.5297019841
O   O75       1.0  0.46780  0.26250  0.66937  1.0000 -0.5297019841
O   O76       1.0  0.26250  0.79470  0.16937  1.0000 -0.5297019841
O   O77       1.0  0.20530  0.46780  0.16937  1.0000 -0.5297019841
O   O78       1.0  0.53220  0.73750  0.16937  1.0000 -0.5297019841
