# DDEC6 charges by PACMAN v1.1 (https://github.com/mtap-research/PACMAN-charge/)
data_2023[ZnTi][nan]3[ION]3
_chemical_formula_sum              "Ti8 Zn6 H306 C396 N36 O78"
_cell_length_a       20.7681
_cell_length_b       20.7681
_cell_length_c       30.6404
_cell_angle_alpha    90
_cell_angle_beta     90
_cell_angle_gamma    120

_symmetry_space_group_name_H-M    "P 1"
_symmetry_Int_Tables_number       1

loop_
  _symmetry_equiv_pos_as_xyz
  'x, y, z'

loop_
  _atom_site_type_symbol
  _atom_site_label
  _atom_site_symmetry_multiplicity
  _atom_site_fract_x
  _atom_site_fract_y
  _atom_site_fract_z
  _atom_site_occupancy
  _atom_site_charge
Ti  Ti1       1.0  0.56576  0.05203  0.45757  1.0000 1.9088025253
Ti  Ti2       1.0  0.94797  0.51373  0.45757  1.0000 1.9088025253
Ti  Ti3       1.0  0.48627  0.43424  0.45757  1.0000 1.9088025253
Ti  Ti4       1.0  0.43424  0.94797  0.95757  1.0000 1.9088025253
Ti  Ti5       1.0  0.05203  0.48627  0.95757  1.0000 1.9088025253
Ti  Ti6       1.0  0.51373  0.56576  0.95757  1.0000 1.9088025253
Ti  Ti7       1.0  0.66667  0.33333  0.21665  1.0000 1.9234332403
Ti  Ti8       1.0  0.33333  0.66667  0.71665  1.0000 1.9234332403
Zn  Zn1       1.0  0.26527  0.42605  0.46902  1.0000 0.7382944882
Zn  Zn2       1.0  0.57395  0.83922  0.46902  1.0000 0.7382944882
Zn  Zn3       1.0  0.16078  0.73473  0.46902  1.0000 0.7382944882
Zn  Zn4       1.0  0.73473  0.57395  0.96902  1.0000 0.7382944882
Zn  Zn5       1.0  0.42605  0.16078  0.96902  1.0000 0.7382944882
Zn  Zn6       1.0  0.83922  0.26527  0.96902  1.0000 0.7382944882
H   H1        1.0  0.39616  0.49391  0.59399  1.0000 0.2993607345
H   H2        1.0  0.50609  0.90225  0.59399  1.0000 0.2993607345
H   H3        1.0  0.09775  0.60384  0.59399  1.0000 0.2993607345
H   H4        1.0  0.60384  0.50609  0.09399  1.0000 0.2993607345
H   H5        1.0  0.49391  0.09775  0.09399  1.0000 0.2993607345
H   H6        1.0  0.90225  0.39616  0.09399  1.0000 0.2993607345
H   H7        1.0  0.33443  0.49430  0.60681  1.0000 0.2993607345
H   H8        1.0  0.50570  0.84013  0.60681  1.0000 0.2993607345
H   H9        1.0  0.15987  0.66557  0.60681  1.0000 0.2993607345
H   H10       1.0  0.66557  0.50570  0.10681  1.0000 0.2993607345
H   H11       1.0  0.49430  0.15987  0.10681  1.0000 0.2993607345
H   H12       1.0  0.84013  0.33443  0.10681  1.0000 0.2993607345
H   H13       1.0  0.35817  0.50661  0.52092  1.0000 0.3096660386
H   H14       1.0  0.49339  0.85156  0.52092  1.0000 0.3096660386
H   H15       1.0  0.14844  0.64183  0.52092  1.0000 0.3096660386
H   H16       1.0  0.64183  0.49339  0.02092  1.0000 0.3096660386
H   H17       1.0  0.50661  0.14844  0.02092  1.0000 0.3096660386
H   H18       1.0  0.85156  0.35817  0.02092  1.0000 0.3096660386
H   H19       1.0  0.39478  0.51746  0.47892  1.0000 0.2993607345
H   H20       1.0  0.48254  0.87732  0.47892  1.0000 0.2993607345
H   H21       1.0  0.12268  0.60522  0.47892  1.0000 0.2993607345
H   H22       1.0  0.60522  0.48254  0.97892  1.0000 0.2993607345
H   H23       1.0  0.51746  0.12268  0.97892  1.0000 0.2993607345
H   H24       1.0  0.87732  0.39478  0.97892  1.0000 0.2993607345
H   H25       1.0  0.35176  0.55364  0.48811  1.0000 0.2993607345
H   H26       1.0  0.44636  0.79812  0.48811  1.0000 0.2993607345
H   H27       1.0  0.20188  0.64824  0.48811  1.0000 0.2993607345
H   H28       1.0  0.64824  0.44636  0.98811  1.0000 0.2993607345
H   H29       1.0  0.55364  0.20188  0.98811  1.0000 0.2993607345
H   H30       1.0  0.79812  0.35176  0.98811  1.0000 0.2993607345
H   H31       1.0  0.63054  0.17204  0.34975  1.0000 0.129289188
H   H32       1.0  0.82796  0.45850  0.34975  1.0000 0.129289188
H   H33       1.0  0.54150  0.36946  0.34975  1.0000 0.129289188
H   H34       1.0  0.36946  0.82796  0.84975  1.0000 0.129289188
H   H35       1.0  0.17204  0.54150  0.84975  1.0000 0.129289188
H   H36       1.0  0.45850  0.63054  0.84975  1.0000 0.129289188
H   H37       1.0  0.59160  0.18884  0.31122  1.0000 0.129289188
H   H38       1.0  0.81116  0.40276  0.31122  1.0000 0.129289188
H   H39       1.0  0.59724  0.40840  0.31122  1.0000 0.129289188
H   H40       1.0  0.40840  0.81116  0.81122  1.0000 0.129289188
H   H41       1.0  0.18884  0.59724  0.81122  1.0000 0.129289188
H   H42       1.0  0.40276  0.59160  0.81122  1.0000 0.129289188
H   H43       1.0  0.51660  0.26555  0.47793  1.0000 0.129289188
H   H44       1.0  0.73445  0.25105  0.47793  1.0000 0.129289188
H   H45       1.0  0.74895  0.48340  0.47793  1.0000 0.129289188
H   H46       1.0  0.48340  0.73445  0.97793  1.0000 0.129289188
H   H47       1.0  0.26555  0.74895  0.97793  1.0000 0.129289188
H   H48       1.0  0.25105  0.51660  0.97793  1.0000 0.129289188
H   H49       1.0  0.48740  0.18862  0.45489  1.0000 0.129289188
H   H50       1.0  0.81138  0.29878  0.45489  1.0000 0.129289188
H   H51       1.0  0.70122  0.51260  0.45489  1.0000 0.129289188
H   H52       1.0  0.51260  0.81138  0.95489  1.0000 0.129289188
H   H53       1.0  0.18862  0.70122  0.95489  1.0000 0.129289188
H   H54       1.0  0.29878  0.48740  0.95489  1.0000 0.129289188
H   H55       1.0  0.51950  0.09459  0.62204  1.0000 0.1116371114
H   H56       1.0  0.90541  0.42491  0.62204  1.0000 0.1116371114
H   H57       1.0  0.57509  0.48050  0.62204  1.0000 0.1116371114
H   H58       1.0  0.48050  0.90541  0.12204  1.0000 0.1116371114
H   H59       1.0  0.09459  0.57509  0.12204  1.0000 0.1116371114
H   H60       1.0  0.42491  0.51950  0.12204  1.0000 0.1116371114
H   H61       1.0  0.15631  0.49319  0.47103  1.0000 0.1408688796
H   H62       1.0  0.50681  0.66312  0.47103  1.0000 0.1408688796
H   H63       1.0  0.33688  0.84369  0.47103  1.0000 0.1408688796
H   H64       1.0  0.84369  0.50681  0.97103  1.0000 0.1408688796
H   H65       1.0  0.49319  0.33688  0.97103  1.0000 0.1408688796
H   H66       1.0  0.66312  0.15631  0.97103  1.0000 0.1408688796
H   H67       1.0  0.39355  0.87798  0.32952  1.0000 0.1116371114
H   H68       1.0  0.12202  0.51557  0.32952  1.0000 0.1116371114
H   H69       1.0  0.48443  0.60645  0.32952  1.0000 0.1116371114
H   H70       1.0  0.60645  0.12202  0.82952  1.0000 0.1116371114
H   H71       1.0  0.87798  0.48443  0.82952  1.0000 0.1116371114
H   H72       1.0  0.51557  0.39355  0.82952  1.0000 0.1116371114
H   H73       1.0  0.54816  0.12835  0.24176  1.0000 0.1198560082
H   H74       1.0  0.87165  0.41981  0.24176  1.0000 0.1198560082
H   H75       1.0  0.58019  0.45184  0.24176  1.0000 0.1198560082
H   H76       1.0  0.45184  0.87165  0.74176  1.0000 0.1198560082
H   H77       1.0  0.12835  0.58019  0.74176  1.0000 0.1198560082
H   H78       1.0  0.41981  0.54816  0.74176  1.0000 0.1198560082
H   H79       1.0  0.06453  0.46697  0.52748  1.0000 0.1483191511
H   H80       1.0  0.53303  0.59756  0.52748  1.0000 0.1483191511
H   H81       1.0  0.40244  0.93547  0.52748  1.0000 0.1483191511
H   H82       1.0  0.93547  0.53303  0.02748  1.0000 0.1483191511
H   H83       1.0  0.46697  0.40244  0.02748  1.0000 0.1483191511
H   H84       1.0  0.59756  0.06453  0.02748  1.0000 0.1483191511
H   H85       1.0  0.81073  0.18181  0.20692  1.0000 0.1116371114
H   H86       1.0  0.81819  0.62892  0.20692  1.0000 0.1116371114
H   H87       1.0  0.37108  0.18927  0.20692  1.0000 0.1116371114
H   H88       1.0  0.18927  0.81819  0.70692  1.0000 0.1116371114
H   H89       1.0  0.18181  0.37108  0.70692  1.0000 0.1116371114
H   H90       1.0  0.62892  0.81073  0.70692  1.0000 0.1116371114
H   H91       1.0  0.16517  0.35307  0.55450  1.0000 0.1009857144
H   H92       1.0  0.64693  0.81210  0.55450  1.0000 0.1009857144
H   H93       1.0  0.18790  0.83483  0.55450  1.0000 0.1009857144
H   H94       1.0  0.83483  0.64693  0.05450  1.0000 0.1009857144
H   H95       1.0  0.35307  0.18790  0.05450  1.0000 0.1009857144
H   H96       1.0  0.81210  0.16517  0.05450  1.0000 0.1009857144
H   H97       1.0  0.67428  0.08479  0.35756  1.0000 0.1198560082
H   H98       1.0  0.91521  0.58949  0.35756  1.0000 0.1198560082
H   H99       1.0  0.41051  0.32572  0.35756  1.0000 0.1198560082
H   H100      1.0  0.32572  0.91521  0.85756  1.0000 0.1198560082
H   H101      1.0  0.08479  0.41051  0.85756  1.0000 0.1198560082
H   H102      1.0  0.58949  0.67428  0.85756  1.0000 0.1198560082
H   H103      1.0  0.27642  0.95724  0.47439  1.0000 0.1009857144
H   H104      1.0  0.04276  0.31918  0.47439  1.0000 0.1009857144
H   H105      1.0  0.68082  0.72358  0.47439  1.0000 0.1009857144
H   H106      1.0  0.72358  0.04276  0.97439  1.0000 0.1009857144
H   H107      1.0  0.95724  0.68082  0.97439  1.0000 0.1009857144
H   H108      1.0  0.31918  0.27642  0.97439  1.0000 0.1009857144
H   H109      1.0  0.92790  0.22372  0.64073  1.0000 0.1116371114
H   H110      1.0  0.77628  0.70418  0.64073  1.0000 0.1116371114
H   H111      1.0  0.29582  0.07210  0.64073  1.0000 0.1116371114
H   H112      1.0  0.07210  0.77628  0.14073  1.0000 0.1116371114
H   H113      1.0  0.22372  0.29582  0.14073  1.0000 0.1116371114
H   H114      1.0  0.70418  0.92790  0.14073  1.0000 0.1116371114
H   H115      1.0  0.99328  0.26545  0.57575  1.0000 0.129289188
H   H116      1.0  0.73455  0.72783  0.57575  1.0000 0.129289188
H   H117      1.0  0.27217  0.00672  0.57575  1.0000 0.129289188
H   H118      1.0  0.00672  0.73455  0.07575  1.0000 0.129289188
H   H119      1.0  0.26545  0.27217  0.07575  1.0000 0.129289188
H   H120      1.0  0.72783  0.99328  0.07575  1.0000 0.129289188
H   H121      1.0  0.10804  0.47204  0.62507  1.0000 0.1408688796
H   H122      1.0  0.52796  0.63600  0.62507  1.0000 0.1408688796
H   H123      1.0  0.36400  0.89196  0.62507  1.0000 0.1408688796
H   H124      1.0  0.89196  0.52796  0.12507  1.0000 0.1408688796
H   H125      1.0  0.47204  0.36400  0.12507  1.0000 0.1408688796
H   H126      1.0  0.63600  0.10804  0.12507  1.0000 0.1408688796
H   H127      1.0  0.04266  0.43032  0.69005  1.0000 0.1116371114
H   H128      1.0  0.56968  0.61234  0.69005  1.0000 0.1116371114
H   H129      1.0  0.38766  0.95734  0.69005  1.0000 0.1116371114
H   H130      1.0  0.95734  0.56968  0.19005  1.0000 0.1116371114
H   H131      1.0  0.43032  0.38766  0.19005  1.0000 0.1116371114
H   H132      1.0  0.61234  0.04266  0.19005  1.0000 0.1116371114
H   H133      1.0  0.47911  0.06379  0.18157  1.0000 0.1116371114
H   H134      1.0  0.93621  0.41532  0.18157  1.0000 0.1116371114
H   H135      1.0  0.58468  0.52089  0.18157  1.0000 0.1116371114
H   H136      1.0  0.52089  0.93621  0.68157  1.0000 0.1116371114
H   H137      1.0  0.06379  0.58468  0.68157  1.0000 0.1116371114
H   H138      1.0  0.41532  0.47911  0.68157  1.0000 0.1116371114
H   H139      1.0  0.46722  0.29070  0.54477  1.0000 0.1198560082
H   H140      1.0  0.70930  0.17652  0.54477  1.0000 0.1198560082
H   H141      1.0  0.82348  0.53278  0.54477  1.0000 0.1198560082
H   H142      1.0  0.53278  0.70930  0.04477  1.0000 0.1198560082
H   H143      1.0  0.29070  0.82348  0.04477  1.0000 0.1198560082
H   H144      1.0  0.17652  0.46722  0.04477  1.0000 0.1198560082
H   H145      1.0  0.38359  0.06716  0.47500  1.0000 0.1198560082
H   H146      1.0  0.93284  0.31643  0.47500  1.0000 0.1198560082
H   H147      1.0  0.68357  0.61641  0.47500  1.0000 0.1198560082
H   H148      1.0  0.61641  0.93284  0.97500  1.0000 0.1198560082
H   H149      1.0  0.06716  0.68357  0.97500  1.0000 0.1198560082
H   H150      1.0  0.31643  0.38359  0.97500  1.0000 0.1198560082
H   H151      1.0  0.21759  0.19384  0.47758  1.0000 0.1198560082
H   H152      1.0  0.80616  0.02375  0.47758  1.0000 0.1198560082
H   H153      1.0  0.97625  0.78241  0.47758  1.0000 0.1198560082
H   H154      1.0  0.78241  0.80616  0.97758  1.0000 0.1198560082
H   H155      1.0  0.19384  0.97625  0.97758  1.0000 0.1198560082
H   H156      1.0  0.02375  0.21759  0.97758  1.0000 0.1198560082
H   H157      1.0  0.90106  0.31611  0.87477  1.0000 0.129289188
H   H158      1.0  0.68389  0.58495  0.87477  1.0000 0.129289188
H   H159      1.0  0.41505  0.09894  0.87477  1.0000 0.129289188
H   H160      1.0  0.09894  0.68389  0.37477  1.0000 0.129289188
H   H161      1.0  0.31611  0.41505  0.37477  1.0000 0.129289188
H   H162      1.0  0.58495  0.90106  0.37477  1.0000 0.129289188
H   H163      1.0  0.44728  0.32248  0.61340  1.0000 0.1009857144
H   H164      1.0  0.67752  0.12480  0.61340  1.0000 0.1009857144
H   H165      1.0  0.87520  0.55272  0.61340  1.0000 0.1009857144
H   H166      1.0  0.55272  0.67752  0.11340  1.0000 0.1009857144
H   H167      1.0  0.32248  0.87520  0.11340  1.0000 0.1009857144
H   H168      1.0  0.12480  0.44728  0.11340  1.0000 0.1009857144
H   H169      1.0  0.74223  0.02910  0.36604  1.0000 0.1116371114
H   H170      1.0  0.97090  0.71313  0.36604  1.0000 0.1116371114
H   H171      1.0  0.28687  0.25777  0.36604  1.0000 0.1116371114
H   H172      1.0  0.25777  0.97090  0.86604  1.0000 0.1116371114
H   H173      1.0  0.02910  0.28687  0.86604  1.0000 0.1116371114
H   H174      1.0  0.71313  0.74223  0.86604  1.0000 0.1116371114
H   H175      1.0  0.49617  0.17718  0.66816  1.0000 0.1116371114
H   H176      1.0  0.82282  0.31899  0.66816  1.0000 0.1116371114
H   H177      1.0  0.68101  0.50383  0.66816  1.0000 0.1116371114
H   H178      1.0  0.50383  0.82282  0.16816  1.0000 0.1116371114
H   H179      1.0  0.17718  0.68101  0.16816  1.0000 0.1116371114
H   H180      1.0  0.31899  0.49617  0.16816  1.0000 0.1116371114
H   H181      1.0  0.36828  0.87853  0.25036  1.0000 0.1116371114
H   H182      1.0  0.12147  0.48975  0.25036  1.0000 0.1116371114
H   H183      1.0  0.51025  0.63172  0.25036  1.0000 0.1116371114
H   H184      1.0  0.63172  0.12147  0.75036  1.0000 0.1116371114
H   H185      1.0  0.87853  0.51025  0.75036  1.0000 0.1116371114
H   H186      1.0  0.48975  0.36828  0.75036  1.0000 0.1116371114
H   H187      1.0  0.74696  0.11999  0.82993  1.0000 0.129289188
H   H188      1.0  0.88001  0.62697  0.82993  1.0000 0.129289188
H   H189      1.0  0.37303  0.25304  0.82993  1.0000 0.129289188
H   H190      1.0  0.25304  0.88001  0.32993  1.0000 0.129289188
H   H191      1.0  0.11999  0.37303  0.32993  1.0000 0.129289188
H   H192      1.0  0.62697  0.74696  0.32993  1.0000 0.129289188
H   H193      1.0  0.39491  0.93800  0.18468  1.0000 0.1116371114
H   H194      1.0  0.06200  0.45691  0.18468  1.0000 0.1116371114
H   H195      1.0  0.54309  0.60509  0.18468  1.0000 0.1116371114
H   H196      1.0  0.60509  0.06200  0.68468  1.0000 0.1116371114
H   H197      1.0  0.93800  0.54309  0.68468  1.0000 0.1116371114
H   H198      1.0  0.45691  0.39491  0.68468  1.0000 0.1116371114
H   H199      1.0  0.83456  0.14907  0.77181  1.0000 0.129289188
H   H200      1.0  0.85093  0.68549  0.77181  1.0000 0.129289188
H   H201      1.0  0.31451  0.16544  0.77181  1.0000 0.129289188
H   H202      1.0  0.16544  0.85093  0.27181  1.0000 0.129289188
H   H203      1.0  0.14907  0.31451  0.27181  1.0000 0.129289188
H   H204      1.0  0.68549  0.83456  0.27181  1.0000 0.129289188
H   H205      1.0  0.47003  0.27091  0.67514  1.0000 0.1116371114
H   H206      1.0  0.72909  0.19912  0.67514  1.0000 0.1116371114
H   H207      1.0  0.80088  0.52997  0.67514  1.0000 0.1116371114
H   H208      1.0  0.52997  0.72909  0.17514  1.0000 0.1116371114
H   H209      1.0  0.27091  0.80088  0.17514  1.0000 0.1116371114
H   H210      1.0  0.19912  0.47003  0.17514  1.0000 0.1116371114
H   H211      1.0  0.72413  0.12638  0.90630  1.0000 0.129289188
H   H212      1.0  0.87362  0.59775  0.90630  1.0000 0.129289188
H   H213      1.0  0.40225  0.27587  0.90630  1.0000 0.129289188
H   H214      1.0  0.27587  0.87362  0.40630  1.0000 0.129289188
H   H215      1.0  0.12638  0.40225  0.40630  1.0000 0.129289188
H   H216      1.0  0.59775  0.72413  0.40630  1.0000 0.129289188
H   H217      1.0  0.89469  0.18717  0.70518  1.0000 0.1116371114
H   H218      1.0  0.81283  0.70752  0.70518  1.0000 0.1116371114
H   H219      1.0  0.29248  0.10531  0.70518  1.0000 0.1116371114
H   H220      1.0  0.10531  0.81283  0.20518  1.0000 0.1116371114
H   H221      1.0  0.18717  0.29248  0.20518  1.0000 0.1116371114
H   H222      1.0  0.70752  0.89469  0.20518  1.0000 0.1116371114
H   H223      1.0  0.84075  0.10154  0.25094  1.0000 0.1198560082
H   H224      1.0  0.89846  0.73921  0.25094  1.0000 0.1198560082
H   H225      1.0  0.26079  0.15925  0.25094  1.0000 0.1198560082
H   H226      1.0  0.15925  0.89846  0.75094  1.0000 0.1198560082
H   H227      1.0  0.10154  0.26079  0.75094  1.0000 0.1198560082
H   H228      1.0  0.73921  0.84075  0.75094  1.0000 0.1198560082
H   H229      1.0  0.15359  0.05768  0.47872  1.0000 0.1198560082
H   H230      1.0  0.94232  0.09591  0.47872  1.0000 0.1198560082
H   H231      1.0  0.90409  0.84641  0.47872  1.0000 0.1198560082
H   H232      1.0  0.84641  0.94232  0.97872  1.0000 0.1198560082
H   H233      1.0  0.05768  0.90409  0.97872  1.0000 0.1198560082
H   H234      1.0  0.09591  0.15359  0.97872  1.0000 0.1198560082
H   H235      1.0  0.91092  0.35886  0.80557  1.0000 0.129289188
H   H236      1.0  0.64114  0.55206  0.80557  1.0000 0.129289188
H   H237      1.0  0.44794  0.08908  0.80557  1.0000 0.129289188
H   H238      1.0  0.08908  0.64114  0.30557  1.0000 0.129289188
H   H239      1.0  0.35886  0.44794  0.30557  1.0000 0.129289188
H   H240      1.0  0.55206  0.91092  0.30557  1.0000 0.129289188
H   H241      1.0  0.82149  0.03175  0.31307  1.0000 0.1116371114
H   H242      1.0  0.96825  0.78974  0.31307  1.0000 0.1116371114
H   H243      1.0  0.21026  0.17851  0.31307  1.0000 0.1116371114
H   H244      1.0  0.17851  0.96825  0.81307  1.0000 0.1116371114
H   H245      1.0  0.03175  0.21026  0.81307  1.0000 0.1116371114
H   H246      1.0  0.78974  0.82149  0.81307  1.0000 0.1116371114
H   H247      1.0  0.16120  0.94947  0.48099  1.0000 0.1116371114
H   H248      1.0  0.05053  0.21173  0.48099  1.0000 0.1116371114
H   H249      1.0  0.78827  0.83880  0.48099  1.0000 0.1116371114
H   H250      1.0  0.83880  0.05053  0.98099  1.0000 0.1116371114
H   H251      1.0  0.94947  0.78827  0.98099  1.0000 0.1116371114
H   H252      1.0  0.21173  0.16120  0.98099  1.0000 0.1116371114
H   H253      1.0  0.97165  0.39698  0.74006  1.0000 0.1116371114
H   H254      1.0  0.60302  0.57467  0.74006  1.0000 0.1116371114
H   H255      1.0  0.42533  0.02835  0.74006  1.0000 0.1116371114
H   H256      1.0  0.02835  0.60302  0.24006  1.0000 0.1116371114
H   H257      1.0  0.39698  0.42533  0.24006  1.0000 0.1116371114
H   H258      1.0  0.57467  0.97165  0.24006  1.0000 0.1116371114
H   H259      1.0  0.90281  0.19956  0.14921  1.0000 0.129289188
H   H260      1.0  0.88117  0.16862  0.10156  1.0000 0.1198560082
H   H261      1.0  0.85198  0.21914  0.12097  1.0000 0.1408688796
H   H262      1.0  0.94416  0.29163  0.08101  1.0000 0.2409854585
H   H263      1.0  0.97407  0.30964  0.12442  1.0000 0.2409854585
H   H264      1.0  0.02161  0.27170  0.06127  1.0000 0.129289188
H   H265      1.0  0.05673  0.29792  0.10769  1.0000 0.1198560082
H   H266      1.0  0.00120  0.21346  0.09886  1.0000 0.129289188
H   H267      1.0  0.29675  0.09719  0.14921  1.0000 0.129289188
H   H268      1.0  0.28745  0.11883  0.10156  1.0000 0.1198560082
H   H269      1.0  0.36716  0.14802  0.12097  1.0000 0.1408688796
H   H270      1.0  0.34747  0.05584  0.08101  1.0000 0.2409854585
H   H271      1.0  0.33557  0.02593  0.12442  1.0000 0.2409854585
H   H272      1.0  0.25009  0.97839  0.06127  1.0000 0.129289188
H   H273      1.0  0.24119  0.94327  0.10769  1.0000 0.1198560082
H   H274      1.0  0.21226  0.99880  0.09886  1.0000 0.129289188
H   H275      1.0  0.80044  0.70325  0.14921  1.0000 0.129289188
H   H276      1.0  0.83138  0.71255  0.10156  1.0000 0.1198560082
H   H277      1.0  0.78086  0.63284  0.12097  1.0000 0.1408688796
H   H278      1.0  0.70837  0.65253  0.08101  1.0000 0.2409854585
H   H279      1.0  0.69036  0.66443  0.12442  1.0000 0.2409854585
H   H280      1.0  0.72830  0.74991  0.06127  1.0000 0.129289188
H   H281      1.0  0.70208  0.75881  0.10769  1.0000 0.1198560082
H   H282      1.0  0.78654  0.78774  0.09886  1.0000 0.129289188
H   H283      1.0  0.09719  0.80044  0.64921  1.0000 0.129289188
H   H284      1.0  0.11883  0.83138  0.60156  1.0000 0.1198560082
H   H285      1.0  0.14802  0.78086  0.62097  1.0000 0.1408688796
H   H286      1.0  0.05584  0.70837  0.58101  1.0000 0.2409854585
H   H287      1.0  0.02593  0.69036  0.62442  1.0000 0.2409854585
H   H288      1.0  0.97839  0.72830  0.56127  1.0000 0.129289188
H   H289      1.0  0.94327  0.70208  0.60769  1.0000 0.1198560082
H   H290      1.0  0.99880  0.78654  0.59886  1.0000 0.129289188
H   H291      1.0  0.70325  0.90281  0.64921  1.0000 0.129289188
H   H292      1.0  0.71255  0.88117  0.60156  1.0000 0.1198560082
H   H293      1.0  0.63284  0.85198  0.62097  1.0000 0.1408688796
H   H294      1.0  0.65253  0.94416  0.58101  1.0000 0.2409854585
H   H295      1.0  0.66443  0.97407  0.62442  1.0000 0.2409854585
H   H296      1.0  0.74991  0.02161  0.56127  1.0000 0.129289188
H   H297      1.0  0.75881  0.05673  0.60769  1.0000 0.1198560082
H   H298      1.0  0.78774  0.00120  0.59886  1.0000 0.129289188
H   H299      1.0  0.19956  0.29675  0.64921  1.0000 0.129289188
H   H300      1.0  0.16862  0.28745  0.60156  1.0000 0.1198560082
H   H301      1.0  0.21914  0.36716  0.62097  1.0000 0.1408688796
H   H302      1.0  0.29163  0.34747  0.58101  1.0000 0.2409854585
H   H303      1.0  0.30964  0.33557  0.62442  1.0000 0.2409854585
H   H304      1.0  0.27170  0.25009  0.56127  1.0000 0.129289188
H   H305      1.0  0.29792  0.24119  0.60769  1.0000 0.1198560082
H   H306      1.0  0.21346  0.21226  0.59886  1.0000 0.129289188
C   C1        1.0  0.31990  0.33110  0.46561  1.0000 0.6010755261
C   C2        1.0  0.66890  0.98880  0.46561  1.0000 0.6010755261
C   C3        1.0  0.01120  0.68010  0.46561  1.0000 0.6010755261
C   C4        1.0  0.68010  0.66890  0.96561  1.0000 0.6010755261
C   C5        1.0  0.33110  0.01120  0.96561  1.0000 0.6010755261
C   C6        1.0  0.98880  0.31990  0.96561  1.0000 0.6010755261
C   C7        1.0  0.39770  0.26840  0.47097  1.0000 0.2564004323
C   C8        1.0  0.73160  0.12930  0.47097  1.0000 0.2564004323
C   C9        1.0  0.87070  0.60230  0.47097  1.0000 0.2564004323
C   C10       1.0  0.60230  0.73160  0.97097  1.0000 0.2564004323
C   C11       1.0  0.26840  0.87070  0.97097  1.0000 0.2564004323
C   C12       1.0  0.12930  0.39770  0.97097  1.0000 0.2564004323
C   C13       1.0  0.44870  0.92180  0.40726  1.0000 0.5840355118
C   C14       1.0  0.07820  0.52690  0.40726  1.0000 0.5840355118
C   C15       1.0  0.47310  0.55130  0.40726  1.0000 0.5840355118
C   C16       1.0  0.55130  0.07820  0.90726  1.0000 0.5840355118
C   C17       1.0  0.92180  0.47310  0.90726  1.0000 0.5840355118
C   C18       1.0  0.52690  0.44870  0.90726  1.0000 0.5840355118
C   C19       1.0  0.49650  0.17390  0.60163  1.0000 0.0607402756
C   C20       1.0  0.82610  0.32260  0.60163  1.0000 0.0607402756
C   C21       1.0  0.67740  0.50350  0.60163  1.0000 0.0607402756
C   C22       1.0  0.50350  0.82610  0.10163  1.0000 0.0607402756
C   C23       1.0  0.17390  0.67740  0.10163  1.0000 0.0607402756
C   C24       1.0  0.32260  0.49650  0.10163  1.0000 0.0607402756
C   C25       1.0  0.54340  0.03390  0.55550  1.0000 0.5873772463
C   C26       1.0  0.96610  0.50950  0.55550  1.0000 0.5873772463
C   C27       1.0  0.49050  0.45660  0.55550  1.0000 0.5873772463
C   C28       1.0  0.45660  0.96610  0.05550  1.0000 0.5873772463
C   C29       1.0  0.03390  0.49050  0.05550  1.0000 0.5873772463
C   C30       1.0  0.50950  0.54340  0.05550  1.0000 0.5873772463
C   C31       1.0  0.49250  0.18140  0.52140  1.0000 -0.0321917694
C   C32       1.0  0.81860  0.31110  0.52140  1.0000 -0.0321917694
C   C33       1.0  0.68890  0.50750  0.52140  1.0000 -0.0321917694
C   C34       1.0  0.50750  0.81860  0.02140  1.0000 -0.0321917694
C   C35       1.0  0.18140  0.68890  0.02140  1.0000 -0.0321917694
C   C36       1.0  0.31110  0.49250  0.02140  1.0000 -0.0321917694
C   C37       1.0  0.48590  0.20700  0.56313  1.0000 0.0478289591
C   C38       1.0  0.79300  0.27890  0.56313  1.0000 0.0478289591
C   C39       1.0  0.72110  0.51410  0.56313  1.0000 0.0478289591
C   C40       1.0  0.51410  0.79300  0.06313  1.0000 0.0478289591
C   C41       1.0  0.20700  0.72110  0.06313  1.0000 0.0478289591
C   C42       1.0  0.27890  0.48590  0.06313  1.0000 0.0478289591
C   C43       1.0  0.68900  0.21390  0.25408  1.0000 0.2506927809
C   C44       1.0  0.78610  0.47510  0.25408  1.0000 0.2506927809
C   C45       1.0  0.52490  0.31100  0.25408  1.0000 0.2506927809
C   C46       1.0  0.31100  0.78610  0.75408  1.0000 0.2506927809
C   C47       1.0  0.21390  0.52490  0.75408  1.0000 0.2506927809
C   C48       1.0  0.47510  0.68900  0.75408  1.0000 0.2506927809
C   C49       1.0  0.67250  0.16700  0.28999  1.0000 -0.0321917694
C   C50       1.0  0.83300  0.50550  0.28999  1.0000 -0.0321917694
C   C51       1.0  0.49450  0.32750  0.28999  1.0000 -0.0321917694
C   C52       1.0  0.32750  0.83300  0.78999  1.0000 -0.0321917694
C   C53       1.0  0.16700  0.49450  0.78999  1.0000 -0.0321917694
C   C54       1.0  0.50550  0.67250  0.78999  1.0000 -0.0321917694
C   C55       1.0  0.40280  0.20480  0.47576  1.0000 -0.0321917694
C   C56       1.0  0.79520  0.19800  0.47576  1.0000 -0.0321917694
C   C57       1.0  0.80200  0.59720  0.47576  1.0000 -0.0321917694
C   C58       1.0  0.59720  0.79520  0.97576  1.0000 -0.0321917694
C   C59       1.0  0.20480  0.80200  0.97576  1.0000 -0.0321917694
C   C60       1.0  0.19800  0.40280  0.97576  1.0000 -0.0321917694
C   C61       1.0  0.61020  0.15660  0.32066  1.0000 -0.2402701988
C   C62       1.0  0.84340  0.45360  0.32066  1.0000 -0.2402701988
C   C63       1.0  0.54640  0.38980  0.32066  1.0000 -0.2402701988
C   C64       1.0  0.38980  0.84340  0.82066  1.0000 -0.2402701988
C   C65       1.0  0.15660  0.54640  0.82066  1.0000 -0.2402701988
C   C66       1.0  0.45360  0.61020  0.82066  1.0000 -0.2402701988
C   C67       1.0  0.52790  0.03930  0.36219  1.0000 0.2409854585
C   C68       1.0  0.96070  0.48860  0.36219  1.0000 0.2409854585
C   C69       1.0  0.51140  0.47210  0.36219  1.0000 0.2409854585
C   C70       1.0  0.47210  0.96070  0.86219  1.0000 0.2409854585
C   C71       1.0  0.03930  0.51140  0.86219  1.0000 0.2409854585
C   C72       1.0  0.48860  0.52790  0.86219  1.0000 0.2409854585
C   C73       1.0  0.47000  0.96450  0.36522  1.0000 -0.1591754908
C   C74       1.0  0.03550  0.50550  0.36522  1.0000 -0.1591754908
C   C75       1.0  0.49450  0.53000  0.36522  1.0000 -0.1591754908
C   C76       1.0  0.53000  0.03550  0.86522  1.0000 -0.1591754908
C   C77       1.0  0.96450  0.49450  0.86522  1.0000 -0.1591754908
C   C78       1.0  0.50550  0.47000  0.86522  1.0000 -0.1591754908
C   C79       1.0  0.75650  0.26470  0.18152  1.0000 0.6081519684
C   C80       1.0  0.73530  0.49180  0.18152  1.0000 0.6081519684
C   C81       1.0  0.50820  0.24350  0.18152  1.0000 0.6081519684
C   C82       1.0  0.24350  0.73530  0.68152  1.0000 0.6081519684
C   C83       1.0  0.26470  0.50820  0.68152  1.0000 0.6081519684
C   C84       1.0  0.49180  0.75650  0.68152  1.0000 0.6081519684
C   C85       1.0  0.51470  0.12810  0.51848  1.0000 0.2409854585
C   C86       1.0  0.87190  0.38660  0.51848  1.0000 0.2409854585
C   C87       1.0  0.61340  0.48530  0.51848  1.0000 0.2409854585
C   C88       1.0  0.48530  0.87190  0.01848  1.0000 0.2409854585
C   C89       1.0  0.12810  0.61340  0.01848  1.0000 0.2409854585
C   C90       1.0  0.38660  0.51470  0.01848  1.0000 0.2409854585
C   C91       1.0  0.32640  0.26380  0.47093  1.0000 -0.1591754908
C   C92       1.0  0.73620  0.06260  0.47093  1.0000 -0.1591754908
C   C93       1.0  0.93740  0.67360  0.47093  1.0000 -0.1591754908
C   C94       1.0  0.67360  0.73620  0.97093  1.0000 -0.1591754908
C   C95       1.0  0.26380  0.93740  0.97093  1.0000 -0.1591754908
C   C96       1.0  0.06260  0.32640  0.97093  1.0000 -0.1591754908
C   C97       1.0  0.44600  0.96480  0.28784  1.0000 0.0478289591
C   C98       1.0  0.03520  0.48120  0.28784  1.0000 0.0478289591
C   C99       1.0  0.51880  0.55400  0.28784  1.0000 0.0478289591
C   C100      1.0  0.55400  0.03520  0.78784  1.0000 0.0478289591
C   C101      1.0  0.96480  0.51880  0.78784  1.0000 0.0478289591
C   C102      1.0  0.48120  0.44600  0.78784  1.0000 0.0478289591
C   C103      1.0  0.47970  0.21310  0.47962  1.0000 -0.2402701988
C   C104      1.0  0.78690  0.26660  0.47962  1.0000 -0.2402701988
C   C105      1.0  0.73340  0.52030  0.47962  1.0000 -0.2402701988
C   C106      1.0  0.52030  0.78690  0.97962  1.0000 -0.2402701988
C   C107      1.0  0.21310  0.73340  0.97962  1.0000 -0.2402701988
C   C108      1.0  0.26660  0.47970  0.97962  1.0000 -0.2402701988
C   C109      1.0  0.51470  0.11760  0.59718  1.0000 -0.1517928828
C   C110      1.0  0.88240  0.39710  0.59718  1.0000 -0.1517928828
C   C111      1.0  0.60290  0.48530  0.59718  1.0000 -0.1517928828
C   C112      1.0  0.48530  0.88240  0.09718  1.0000 -0.1517928828
C   C113      1.0  0.11760  0.60290  0.09718  1.0000 -0.1517928828
C   C114      1.0  0.39710  0.51470  0.09718  1.0000 -0.1517928828
C   C115      1.0  0.71360  0.13100  0.29700  1.0000 0.0419445719
C   C116      1.0  0.86900  0.58260  0.29700  1.0000 0.0419445719
C   C117      1.0  0.41740  0.28640  0.29700  1.0000 0.0419445719
C   C118      1.0  0.28640  0.86900  0.79700  1.0000 0.0419445719
C   C119      1.0  0.13100  0.41740  0.79700  1.0000 0.0419445719
C   C120      1.0  0.58260  0.71360  0.79700  1.0000 0.0419445719
C   C121      1.0  0.52560  0.09550  0.55644  1.0000 -0.1591754908
C   C122      1.0  0.90450  0.43010  0.55644  1.0000 -0.1591754908
C   C123      1.0  0.56990  0.47440  0.55644  1.0000 -0.1591754908
C   C124      1.0  0.47440  0.90450  0.05644  1.0000 -0.1591754908
C   C125      1.0  0.09550  0.56990  0.05644  1.0000 -0.1591754908
C   C126      1.0  0.43010  0.52560  0.05644  1.0000 -0.1591754908
C   C127      1.0  0.74170  0.22050  0.22171  1.0000 -0.1763626004
C   C128      1.0  0.77950  0.52120  0.22171  1.0000 -0.1763626004
C   C129      1.0  0.47880  0.25830  0.22171  1.0000 -0.1763626004
C   C130      1.0  0.25830  0.77950  0.72171  1.0000 -0.1763626004
C   C131      1.0  0.22050  0.47880  0.72171  1.0000 -0.1763626004
C   C132      1.0  0.52120  0.74170  0.72171  1.0000 -0.1763626004
C   C133      1.0  0.50240  0.04070  0.28492  1.0000 0.0419445719
C   C134      1.0  0.95930  0.46170  0.28492  1.0000 0.0419445719
C   C135      1.0  0.53830  0.49760  0.28492  1.0000 0.0419445719
C   C136      1.0  0.49760  0.95930  0.78492  1.0000 0.0419445719
C   C137      1.0  0.04070  0.53830  0.78492  1.0000 0.0419445719
C   C138      1.0  0.46170  0.50240  0.78492  1.0000 0.0419445719
C   C139      1.0  0.14630  0.46150  0.49466  1.0000 -0.0404123275
C   C140      1.0  0.53850  0.68480  0.49466  1.0000 -0.0404123275
C   C141      1.0  0.31520  0.85370  0.49466  1.0000 -0.0404123275
C   C142      1.0  0.85370  0.53850  0.99466  1.0000 -0.0404123275
C   C143      1.0  0.46150  0.31520  0.99466  1.0000 -0.0404123275
C   C144      1.0  0.68480  0.14630  0.99466  1.0000 -0.0404123275
C   C145      1.0  0.54570  0.07740  0.32286  1.0000 -0.0404123275
C   C146      1.0  0.92260  0.46830  0.32286  1.0000 -0.0404123275
C   C147      1.0  0.53170  0.45430  0.32286  1.0000 -0.0404123275
C   C148      1.0  0.45430  0.92260  0.82286  1.0000 -0.0404123275
C   C149      1.0  0.07740  0.53170  0.82286  1.0000 -0.0404123275
C   C150      1.0  0.46830  0.54570  0.82286  1.0000 -0.0404123275
C   C151      1.0  0.33750  0.13430  0.47646  1.0000 0.0419445719
C   C152      1.0  0.86570  0.20320  0.47646  1.0000 0.0419445719
C   C153      1.0  0.79680  0.66250  0.47646  1.0000 0.0419445719
C   C154      1.0  0.66250  0.86570  0.97646  1.0000 0.0419445719
C   C155      1.0  0.13430  0.79680  0.97646  1.0000 0.0419445719
C   C156      1.0  0.20320  0.33750  0.97646  1.0000 0.0419445719
C   C157      1.0  0.43050  0.92770  0.32780  1.0000 -0.1738471106
C   C158      1.0  0.07230  0.50280  0.32780  1.0000 -0.1738471106
C   C159      1.0  0.49720  0.56950  0.32780  1.0000 -0.1738471106
C   C160      1.0  0.56950  0.07230  0.82780  1.0000 -0.1738471106
C   C161      1.0  0.92770  0.49720  0.82780  1.0000 -0.1738471106
C   C162      1.0  0.50280  0.43050  0.82780  1.0000 -0.1738471106
C   C163      1.0  0.51340  0.07800  0.24413  1.0000 -0.1283091648
C   C164      1.0  0.92200  0.43540  0.24413  1.0000 -0.1283091648
C   C165      1.0  0.56460  0.48660  0.24413  1.0000 -0.1283091648
C   C166      1.0  0.48660  0.92200  0.74413  1.0000 -0.1283091648
C   C167      1.0  0.07800  0.56460  0.74413  1.0000 -0.1283091648
C   C168      1.0  0.43540  0.51340  0.74413  1.0000 -0.1283091648
C   C169      1.0  0.09630  0.44760  0.52589  1.0000 -0.0706939438
C   C170      1.0  0.55240  0.64870  0.52589  1.0000 -0.0706939438
C   C171      1.0  0.35130  0.90370  0.52589  1.0000 -0.0706939438
C   C172      1.0  0.90370  0.55240  0.02589  1.0000 -0.0706939438
C   C173      1.0  0.44760  0.35130  0.02589  1.0000 -0.0706939438
C   C174      1.0  0.64870  0.09630  0.02589  1.0000 -0.0706939438
C   C175      1.0  0.77780  0.18000  0.22810  1.0000 -0.1517928828
C   C176      1.0  0.82000  0.59780  0.22810  1.0000 -0.1517928828
C   C177      1.0  0.40220  0.22220  0.22810  1.0000 -0.1517928828
C   C178      1.0  0.22220  0.82000  0.72810  1.0000 -0.1517928828
C   C179      1.0  0.18000  0.40220  0.72810  1.0000 -0.1517928828
C   C180      1.0  0.59780  0.77780  0.72810  1.0000 -0.1517928828
C   C181      1.0  0.15180  0.38440  0.54057  1.0000 0.088268553
C   C182      1.0  0.61560  0.76740  0.54057  1.0000 0.088268553
C   C183      1.0  0.23260  0.84820  0.54057  1.0000 0.088268553
C   C184      1.0  0.84820  0.61560  0.04057  1.0000 0.088268553
C   C185      1.0  0.38440  0.23260  0.04057  1.0000 0.088268553
C   C186      1.0  0.76740  0.15180  0.04057  1.0000 0.088268553
C   C187      1.0  0.70700  0.08880  0.33560  1.0000 -0.1283091648
C   C188      1.0  0.91120  0.61820  0.33560  1.0000 -0.1283091648
C   C189      1.0  0.38180  0.29300  0.33560  1.0000 -0.1283091648
C   C190      1.0  0.29300  0.91120  0.83560  1.0000 -0.1283091648
C   C191      1.0  0.08880  0.38180  0.83560  1.0000 -0.1283091648
C   C192      1.0  0.61820  0.70700  0.83560  1.0000 -0.1283091648
C   C193      1.0  0.27430  0.00090  0.47610  1.0000 -0.1000295963
C   C194      1.0  0.99910  0.27340  0.47610  1.0000 -0.1000295963
C   C195      1.0  0.72660  0.72570  0.47610  1.0000 -0.1000295963
C   C196      1.0  0.72570  0.99910  0.97610  1.0000 -0.1000295963
C   C197      1.0  0.00090  0.72660  0.97610  1.0000 -0.1000295963
C   C198      1.0  0.27340  0.27430  0.97610  1.0000 -0.1000295963
C   C199      1.0  0.97880  0.32290  0.67184  1.0000 0.0607402756
C   C200      1.0  0.67710  0.65590  0.67184  1.0000 0.0607402756
C   C201      1.0  0.34410  0.02120  0.67184  1.0000 0.0607402756
C   C202      1.0  0.02120  0.67710  0.17184  1.0000 0.0607402756
C   C203      1.0  0.32290  0.34410  0.17184  1.0000 0.0607402756
C   C204      1.0  0.65590  0.97880  0.17184  1.0000 0.0607402756
C   C205      1.0  0.96400  0.27350  0.63759  1.0000 -0.1283091648
C   C206      1.0  0.72650  0.69050  0.63759  1.0000 -0.1283091648
C   C207      1.0  0.30950  0.03600  0.63759  1.0000 -0.1283091648
C   C208      1.0  0.03600  0.72650  0.13759  1.0000 -0.1283091648
C   C209      1.0  0.27350  0.30950  0.13759  1.0000 -0.1283091648
C   C210      1.0  0.69050  0.96400  0.13759  1.0000 -0.1283091648
C   C211      1.0  0.00320  0.29850  0.59866  1.0000 -0.1738471106
C   C212      1.0  0.70150  0.70470  0.59866  1.0000 -0.1738471106
C   C213      1.0  0.29530  0.99680  0.59866  1.0000 -0.1738471106
C   C214      1.0  0.99680  0.70150  0.09866  1.0000 -0.1738471106
C   C215      1.0  0.29850  0.29530  0.09866  1.0000 -0.1738471106
C   C216      1.0  0.70470  0.00320  0.09866  1.0000 -0.1738471106
C   C217      1.0  0.05710  0.37290  0.59397  1.0000 0.1588453462
C   C218      1.0  0.62710  0.68420  0.59397  1.0000 0.1588453462
C   C219      1.0  0.31580  0.94290  0.59397  1.0000 0.1588453462
C   C220      1.0  0.94290  0.62710  0.09397  1.0000 0.1588453462
C   C221      1.0  0.37290  0.31580  0.09397  1.0000 0.1588453462
C   C222      1.0  0.68420  0.05710  0.09397  1.0000 0.1588453462
C   C223      1.0  0.07190  0.42230  0.62821  1.0000 -0.1400979829
C   C224      1.0  0.57770  0.64960  0.62821  1.0000 -0.1400979829
C   C225      1.0  0.35040  0.92810  0.62821  1.0000 -0.1400979829
C   C226      1.0  0.92810  0.57770  0.12821  1.0000 -0.1400979829
C   C227      1.0  0.42230  0.35040  0.12821  1.0000 -0.1400979829
C   C228      1.0  0.64960  0.07190  0.12821  1.0000 -0.1400979829
C   C229      1.0  0.03280  0.39730  0.66714  1.0000 -0.1192578265
C   C230      1.0  0.60270  0.63550  0.66714  1.0000 -0.1192578265
C   C231      1.0  0.36450  0.96720  0.66714  1.0000 -0.1192578265
C   C232      1.0  0.96720  0.60270  0.16714  1.0000 -0.1192578265
C   C233      1.0  0.39730  0.36450  0.16714  1.0000 -0.1192578265
C   C234      1.0  0.63550  0.03280  0.16714  1.0000 -0.1192578265
C   C235      1.0  0.47170  0.03870  0.20790  1.0000 -0.0906307935
C   C236      1.0  0.96130  0.43300  0.20790  1.0000 -0.0906307935
C   C237      1.0  0.56700  0.52830  0.20790  1.0000 -0.0906307935
C   C238      1.0  0.52830  0.96130  0.70790  1.0000 -0.0906307935
C   C239      1.0  0.03870  0.56700  0.70790  1.0000 -0.0906307935
C   C240      1.0  0.43300  0.47170  0.70790  1.0000 -0.0906307935
C   C241      1.0  0.47090  0.26580  0.56900  1.0000 -0.1283091648
C   C242      1.0  0.73420  0.20510  0.56900  1.0000 -0.1283091648
C   C243      1.0  0.79490  0.52910  0.56900  1.0000 -0.1283091648
C   C244      1.0  0.52910  0.73420  0.06900  1.0000 -0.1283091648
C   C245      1.0  0.26580  0.79490  0.06900  1.0000 -0.1283091648
C   C246      1.0  0.20510  0.47090  0.06900  1.0000 -0.1283091648
C   C247      1.0  0.33840  0.06640  0.47570  1.0000 -0.1283091648
C   C248      1.0  0.93360  0.27200  0.47570  1.0000 -0.1283091648
C   C249      1.0  0.72800  0.66160  0.47570  1.0000 -0.1283091648
C   C250      1.0  0.66160  0.93360  0.97570  1.0000 -0.1283091648
C   C251      1.0  0.06640  0.72800  0.97570  1.0000 -0.1283091648
C   C252      1.0  0.27200  0.33840  0.97570  1.0000 -0.1283091648
C   C253      1.0  0.93930  0.29760  0.71450  1.0000 0.0607402756
C   C254      1.0  0.70240  0.64170  0.71450  1.0000 0.0607402756
C   C255      1.0  0.35830  0.06070  0.71450  1.0000 0.0607402756
C   C256      1.0  0.06070  0.70240  0.21450  1.0000 0.0607402756
C   C257      1.0  0.29760  0.35830  0.21450  1.0000 0.0607402756
C   C258      1.0  0.64170  0.93930  0.21450  1.0000 0.0607402756
C   C259      1.0  0.76630  0.13720  0.26510  1.0000 0.0607402756
C   C260      1.0  0.86280  0.62910  0.26510  1.0000 0.0607402756
C   C261      1.0  0.37090  0.23370  0.26510  1.0000 0.0607402756
C   C262      1.0  0.23370  0.86280  0.76510  1.0000 0.0607402756
C   C263      1.0  0.13720  0.37090  0.76510  1.0000 0.0607402756
C   C264      1.0  0.62910  0.76630  0.76510  1.0000 0.0607402756
C   C265      1.0  0.86620  0.25280  0.79430  1.0000 0.1408688796
C   C266      1.0  0.74720  0.61340  0.79430  1.0000 0.1408688796
C   C267      1.0  0.38660  0.13380  0.79430  1.0000 0.1408688796
C   C268      1.0  0.13380  0.74720  0.29430  1.0000 0.1408688796
C   C269      1.0  0.25280  0.38660  0.29430  1.0000 0.1408688796
C   C270      1.0  0.61340  0.86620  0.29430  1.0000 0.1408688796
C   C271      1.0  0.26350  0.19640  0.47550  1.0000 -0.1591754908
C   C272      1.0  0.80360  0.06710  0.47550  1.0000 -0.1591754908
C   C273      1.0  0.93290  0.73650  0.47550  1.0000 -0.1591754908
C   C274      1.0  0.73650  0.80360  0.97550  1.0000 -0.1591754908
C   C275      1.0  0.19640  0.93290  0.97550  1.0000 -0.1591754908
C   C276      1.0  0.06710  0.26350  0.97550  1.0000 -0.1591754908
C   C277      1.0  0.85820  0.26970  0.87320  1.0000 0.1198560082
C   C278      1.0  0.73030  0.58850  0.87320  1.0000 0.1198560082
C   C279      1.0  0.41150  0.14180  0.87320  1.0000 0.1198560082
C   C280      1.0  0.14180  0.73030  0.37320  1.0000 0.1198560082
C   C281      1.0  0.26970  0.41150  0.37320  1.0000 0.1198560082
C   C282      1.0  0.58850  0.85820  0.37320  1.0000 0.1198560082
C   C283      1.0  0.46150  0.28680  0.61020  1.0000 -0.1000295963
C   C284      1.0  0.71320  0.17470  0.61020  1.0000 -0.1000295963
C   C285      1.0  0.82530  0.53850  0.61020  1.0000 -0.1000295963
C   C286      1.0  0.53850  0.71320  0.11020  1.0000 -0.1000295963
C   C287      1.0  0.28680  0.82530  0.11020  1.0000 -0.1000295963
C   C288      1.0  0.17470  0.46150  0.11020  1.0000 -0.1000295963
C   C289      1.0  0.74740  0.05520  0.34040  1.0000 -0.1000295963
C   C290      1.0  0.94480  0.69220  0.34040  1.0000 -0.1000295963
C   C291      1.0  0.30780  0.25260  0.34040  1.0000 -0.1000295963
C   C292      1.0  0.25260  0.94480  0.84040  1.0000 -0.1000295963
C   C293      1.0  0.05520  0.30780  0.84040  1.0000 -0.1000295963
C   C294      1.0  0.69220  0.74740  0.84040  1.0000 -0.1000295963
C   C295      1.0  0.48950  0.19890  0.64330  1.0000 -0.1400979829
C   C296      1.0  0.80110  0.29060  0.64330  1.0000 -0.1400979829
C   C297      1.0  0.70940  0.51050  0.64330  1.0000 -0.1400979829
C   C298      1.0  0.51050  0.80110  0.14330  1.0000 -0.1400979829
C   C299      1.0  0.19890  0.70940  0.14330  1.0000 -0.1400979829
C   C300      1.0  0.29060  0.48950  0.14330  1.0000 -0.1400979829
C   C301      1.0  0.40550  0.92820  0.24880  1.0000 -0.1591754908
C   C302      1.0  0.07180  0.47730  0.24880  1.0000 -0.1591754908
C   C303      1.0  0.52270  0.59450  0.24880  1.0000 -0.1591754908
C   C304      1.0  0.59450  0.07180  0.74880  1.0000 -0.1591754908
C   C305      1.0  0.92820  0.52270  0.74880  1.0000 -0.1591754908
C   C306      1.0  0.47730  0.40550  0.74880  1.0000 -0.1591754908
C   C307      1.0  0.77340  0.16070  0.84820  1.0000 -0.108627263
C   C308      1.0  0.83930  0.61270  0.84820  1.0000 -0.108627263
C   C309      1.0  0.38730  0.22660  0.84820  1.0000 -0.108627263
C   C310      1.0  0.22660  0.83930  0.34820  1.0000 -0.108627263
C   C311      1.0  0.16070  0.38730  0.34820  1.0000 -0.108627263
C   C312      1.0  0.61270  0.77340  0.34820  1.0000 -0.108627263
C   C313      1.0  0.26730  0.13020  0.47710  1.0000 0.0478289591
C   C314      1.0  0.86980  0.13710  0.47710  1.0000 0.0478289591
C   C315      1.0  0.86290  0.73270  0.47710  1.0000 0.0478289591
C   C316      1.0  0.73270  0.86980  0.97710  1.0000 0.0478289591
C   C317      1.0  0.13020  0.86290  0.97710  1.0000 0.0478289591
C   C318      1.0  0.13710  0.26730  0.97710  1.0000 0.0478289591
C   C319      1.0  0.41970  0.96370  0.20980  1.0000 -0.108627263
C   C320      1.0  0.03630  0.45600  0.20980  1.0000 -0.108627263
C   C321      1.0  0.54400  0.58030  0.20980  1.0000 -0.108627263
C   C322      1.0  0.58030  0.03630  0.70980  1.0000 -0.108627263
C   C323      1.0  0.96370  0.54400  0.70980  1.0000 -0.108627263
C   C324      1.0  0.45600  0.41970  0.70980  1.0000 -0.108627263
C   C325      1.0  0.86160  0.19940  0.76490  1.0000 -0.1763626004
C   C326      1.0  0.80060  0.66220  0.76490  1.0000 -0.1763626004
C   C327      1.0  0.33780  0.13840  0.76490  1.0000 -0.1763626004
C   C328      1.0  0.13840  0.80060  0.26490  1.0000 -0.1763626004
C   C329      1.0  0.19940  0.33780  0.26490  1.0000 -0.1763626004
C   C330      1.0  0.66220  0.86160  0.26490  1.0000 -0.1763626004
C   C331      1.0  0.47330  0.25430  0.64750  1.0000 -0.108627263
C   C332      1.0  0.74570  0.21900  0.64750  1.0000 -0.108627263
C   C333      1.0  0.78100  0.52670  0.64750  1.0000 -0.108627263
C   C334      1.0  0.52670  0.74570  0.14750  1.0000 -0.108627263
C   C335      1.0  0.25430  0.78100  0.14750  1.0000 -0.108627263
C   C336      1.0  0.21900  0.47330  0.14750  1.0000 -0.108627263
C   C337      1.0  0.76170  0.16450  0.89010  1.0000 -0.0321917694
C   C338      1.0  0.83550  0.59720  0.89010  1.0000 -0.0321917694
C   C339      1.0  0.40280  0.23830  0.89010  1.0000 -0.0321917694
C   C340      1.0  0.23830  0.83550  0.39010  1.0000 -0.0321917694
C   C341      1.0  0.16450  0.40280  0.39010  1.0000 -0.0321917694
C   C342      1.0  0.59720  0.76170  0.39010  1.0000 -0.0321917694
C   C343      1.0  0.89800  0.22250  0.72510  1.0000 -0.1400979829
C   C344      1.0  0.77750  0.67550  0.72510  1.0000 -0.1400979829
C   C345      1.0  0.32450  0.10200  0.72510  1.0000 -0.1400979829
C   C346      1.0  0.10200  0.77750  0.22510  1.0000 -0.1400979829
C   C347      1.0  0.22250  0.32450  0.22510  1.0000 -0.1400979829
C   C348      1.0  0.67550  0.89800  0.22510  1.0000 -0.1400979829
C   C349      1.0  0.80700  0.09860  0.27190  1.0000 -0.1517928828
C   C350      1.0  0.90140  0.70840  0.27190  1.0000 -0.1517928828
C   C351      1.0  0.29160  0.19300  0.27190  1.0000 -0.1517928828
C   C352      1.0  0.19300  0.90140  0.77190  1.0000 -0.1517928828
C   C353      1.0  0.09860  0.29160  0.77190  1.0000 -0.1517928828
C   C354      1.0  0.70840  0.80700  0.77190  1.0000 -0.1517928828
C   C355      1.0  0.19950  0.06000  0.47830  1.0000 -0.1517928828
C   C356      1.0  0.94000  0.13950  0.47830  1.0000 -0.1517928828
C   C357      1.0  0.86050  0.80050  0.47830  1.0000 -0.1517928828
C   C358      1.0  0.80050  0.94000  0.97830  1.0000 -0.1517928828
C   C359      1.0  0.06000  0.86050  0.97830  1.0000 -0.1517928828
C   C360      1.0  0.13950  0.19950  0.97830  1.0000 -0.1517928828
C   C361      1.0  0.90670  0.32360  0.78530  1.0000 -0.1517928828
C   C362      1.0  0.67640  0.58310  0.78530  1.0000 -0.1517928828
C   C363      1.0  0.41690  0.09330  0.78530  1.0000 -0.1517928828
C   C364      1.0  0.09330  0.67640  0.28530  1.0000 -0.1517928828
C   C365      1.0  0.32360  0.41690  0.28530  1.0000 -0.1517928828
C   C366      1.0  0.58310  0.90670  0.28530  1.0000 -0.1517928828
C   C367      1.0  0.79620  0.05770  0.30900  1.0000 -0.1000295963
C   C368      1.0  0.94230  0.73850  0.30900  1.0000 -0.1000295963
C   C369      1.0  0.26150  0.20380  0.30900  1.0000 -0.1000295963
C   C370      1.0  0.20380  0.94230  0.80900  1.0000 -0.1000295963
C   C371      1.0  0.05770  0.26150  0.80900  1.0000 -0.1000295963
C   C372      1.0  0.73850  0.79620  0.80900  1.0000 -0.1000295963
C   C373      1.0  0.20410  0.99570  0.47880  1.0000 -0.108627263
C   C374      1.0  0.00430  0.20840  0.47880  1.0000 -0.108627263
C   C375      1.0  0.79160  0.79590  0.47880  1.0000 -0.108627263
C   C376      1.0  0.79590  0.00430  0.97880  1.0000 -0.108627263
C   C377      1.0  0.99570  0.79160  0.97880  1.0000 -0.108627263
C   C378      1.0  0.20840  0.20410  0.97880  1.0000 -0.108627263
C   C379      1.0  0.94320  0.34630  0.74570  1.0000 -0.1283091648
C   C380      1.0  0.65370  0.59690  0.74570  1.0000 -0.1283091648
C   C381      1.0  0.40310  0.05680  0.74570  1.0000 -0.1283091648
C   C382      1.0  0.05680  0.65370  0.24570  1.0000 -0.1283091648
C   C383      1.0  0.34630  0.40310  0.24570  1.0000 -0.1283091648
C   C384      1.0  0.59690  0.94320  0.24570  1.0000 -0.1283091648
C   C385      1.0  0.89310  0.21020  0.12030  1.0000 -0.3185639917
C   C386      1.0  0.01290  0.26330  0.09200  1.0000 -0.2402701988
C   C387      1.0  0.31710  0.10690  0.12030  1.0000 -0.3185639917
C   C388      1.0  0.25040  0.98710  0.09200  1.0000 -0.2402701988
C   C389      1.0  0.78980  0.68290  0.12030  1.0000 -0.3185639917
C   C390      1.0  0.73670  0.74960  0.09200  1.0000 -0.2402701988
C   C391      1.0  0.10690  0.78980  0.62030  1.0000 -0.3185639917
C   C392      1.0  0.98710  0.73670  0.59200  1.0000 -0.2402701988
C   C393      1.0  0.68290  0.89310  0.62030  1.0000 -0.3185639917
C   C394      1.0  0.74960  0.01290  0.59200  1.0000 -0.2402701988
C   C395      1.0  0.21020  0.31710  0.62030  1.0000 -0.3185639917
C   C396      1.0  0.26330  0.25040  0.59200  1.0000 -0.2402701988
N   N1        1.0  0.18120  0.42020  0.50351  1.0000 -0.2881161908
N   N2        1.0  0.57980  0.76100  0.50351  1.0000 -0.2881161908
N   N3        1.0  0.23900  0.81880  0.50351  1.0000 -0.2881161908
N   N4        1.0  0.81880  0.57980  0.00351  1.0000 -0.2881161908
N   N5        1.0  0.42020  0.23900  0.00351  1.0000 -0.2881161908
N   N6        1.0  0.76100  0.18120  0.00351  1.0000 -0.2881161908
N   N7        1.0  0.81410  0.23470  0.90682  1.0000 -0.2881161908
N   N8        1.0  0.76530  0.57940  0.90682  1.0000 -0.2881161908
N   N9        1.0  0.42060  0.18590  0.90682  1.0000 -0.2881161908
N   N10       1.0  0.18590  0.76530  0.40682  1.0000 -0.2881161908
N   N11       1.0  0.23470  0.42060  0.40682  1.0000 -0.2881161908
N   N12       1.0  0.57940  0.81410  0.40682  1.0000 -0.2881161908
N   N13       1.0  0.09990  0.39980  0.55517  1.0000 0.0105962593
N   N14       1.0  0.60020  0.70010  0.55517  1.0000 0.0105962593
N   N15       1.0  0.29990  0.90010  0.55517  1.0000 0.0105962593
N   N16       1.0  0.90010  0.60020  0.05517  1.0000 0.0105962593
N   N17       1.0  0.39980  0.29990  0.05517  1.0000 0.0105962593
N   N18       1.0  0.70010  0.09990  0.05517  1.0000 0.0105962593
N   N19       1.0  0.35470  0.51280  0.49245  1.0000 -0.7944497505
N   N20       1.0  0.48720  0.84190  0.49245  1.0000 -0.7944497505
N   N21       1.0  0.15810  0.64530  0.49245  1.0000 -0.7944497505
N   N22       1.0  0.64530  0.48720  0.99245  1.0000 -0.7944497505
N   N23       1.0  0.51280  0.15810  0.99245  1.0000 -0.7944497505
N   N24       1.0  0.84190  0.35470  0.99245  1.0000 -0.7944497505
N   N25       1.0  0.83270  0.22910  0.83660  1.0000 0.0105962593
N   N26       1.0  0.77090  0.60360  0.83660  1.0000 0.0105962593
N   N27       1.0  0.39640  0.16730  0.83660  1.0000 0.0105962593
N   N28       1.0  0.16730  0.77090  0.33660  1.0000 0.0105962593
N   N29       1.0  0.22910  0.39640  0.33660  1.0000 0.0105962593
N   N30       1.0  0.60360  0.83270  0.33660  1.0000 0.0105962593
N   N31       1.0  0.95740  0.27460  0.10390  1.0000 -0.0778746818
N   N32       1.0  0.31720  0.04260  0.10390  1.0000 -0.0778746818
N   N33       1.0  0.72540  0.68280  0.10390  1.0000 -0.0778746818
N   N34       1.0  0.04260  0.72540  0.60390  1.0000 -0.0778746818
N   N35       1.0  0.68280  0.95740  0.60390  1.0000 -0.0778746818
N   N36       1.0  0.27460  0.31720  0.60390  1.0000 -0.0778746818
O   O1        1.0  0.37130  0.51560  0.58954  1.0000 -0.6873289982
O   O2        1.0  0.48440  0.85570  0.58954  1.0000 -0.6873289982
O   O3        1.0  0.14430  0.62870  0.58954  1.0000 -0.6873289982
O   O4        1.0  0.62870  0.48440  0.08954  1.0000 -0.6873289982
O   O5        1.0  0.51560  0.14430  0.08954  1.0000 -0.6873289982
O   O6        1.0  0.85570  0.37130  0.08954  1.0000 -0.6873289982
O   O7        1.0  0.47249  0.95832  0.44303  1.0000 -0.6311292787
O   O8        1.0  0.04168  0.51417  0.44303  1.0000 -0.6311292787
O   O9        1.0  0.48583  0.52751  0.44303  1.0000 -0.6311292787
O   O10       1.0  0.52751  0.04168  0.94303  1.0000 -0.6311292787
O   O11       1.0  0.95832  0.48583  0.94303  1.0000 -0.6311292787
O   O12       1.0  0.51417  0.47249  0.94303  1.0000 -0.6311292787
O   O13       1.0  0.52439  0.10686  0.47884  1.0000 -0.6127502809
O   O14       1.0  0.89314  0.41753  0.47884  1.0000 -0.6127502809
O   O15       1.0  0.58247  0.47561  0.47884  1.0000 -0.6127502809
O   O16       1.0  0.47561  0.89314  0.97884  1.0000 -0.6127502809
O   O17       1.0  0.10686  0.58247  0.97884  1.0000 -0.6127502809
O   O18       1.0  0.41753  0.52439  0.97884  1.0000 -0.6127502809
O   O19       1.0  0.37254  0.38933  0.44770  1.0000 -0.6168281773
O   O20       1.0  0.61067  0.98321  0.44770  1.0000 -0.6168281773
O   O21       1.0  0.01679  0.62746  0.44770  1.0000 -0.6168281773
O   O22       1.0  0.62746  0.61067  0.94770  1.0000 -0.6168281773
O   O23       1.0  0.38933  0.01679  0.94770  1.0000 -0.6168281773
O   O24       1.0  0.98321  0.37254  0.94770  1.0000 -0.6168281773
O   O25       1.0  0.45936  0.33540  0.46881  1.0000 -0.6168281773
O   O26       1.0  0.66460  0.12396  0.46881  1.0000 -0.6168281773
O   O27       1.0  0.87604  0.54064  0.46881  1.0000 -0.6168281773
O   O28       1.0  0.54064  0.66460  0.96881  1.0000 -0.6168281773
O   O29       1.0  0.33540  0.87604  0.96881  1.0000 -0.6168281773
O   O30       1.0  0.12396  0.45936  0.96881  1.0000 -0.6168281773
O   O31       1.0  0.72556  0.30511  0.17640  1.0000 -0.6127502809
O   O32       1.0  0.69489  0.42045  0.17640  1.0000 -0.6127502809
O   O33       1.0  0.57955  0.27444  0.17640  1.0000 -0.6127502809
O   O34       1.0  0.27444  0.69489  0.67640  1.0000 -0.6127502809
O   O35       1.0  0.30511  0.57955  0.67640  1.0000 -0.6127502809
O   O36       1.0  0.42045  0.72556  0.67640  1.0000 -0.6127502809
O   O37       1.0  0.54974  0.00940  0.51798  1.0000 -0.6311292787
O   O38       1.0  0.99060  0.54034  0.51798  1.0000 -0.6311292787
O   O39       1.0  0.45966  0.45026  0.51798  1.0000 -0.6311292787
O   O40       1.0  0.45026  0.99060  0.01798  1.0000 -0.6311292787
O   O41       1.0  0.00940  0.45966  0.01798  1.0000 -0.6311292787
O   O42       1.0  0.54034  0.54974  0.01798  1.0000 -0.6311292787
O   O43       1.0  0.56707  0.07430  0.39827  1.0000 -0.6311292787
O   O44       1.0  0.92570  0.49277  0.39827  1.0000 -0.6311292787
O   O45       1.0  0.50723  0.43293  0.39827  1.0000 -0.6311292787
O   O46       1.0  0.43293  0.92570  0.89827  1.0000 -0.6311292787
O   O47       1.0  0.07430  0.50723  0.89827  1.0000 -0.6311292787
O   O48       1.0  0.49277  0.56707  0.89827  1.0000 -0.6311292787
O   O49       1.0  0.65210  0.25092  0.24892  1.0000 -0.60300589
O   O50       1.0  0.74908  0.40118  0.24892  1.0000 -0.60300589
O   O51       1.0  0.59882  0.34790  0.24892  1.0000 -0.60300589
O   O52       1.0  0.34790  0.74908  0.74892  1.0000 -0.60300589
O   O53       1.0  0.25092  0.59882  0.74892  1.0000 -0.60300589
O   O54       1.0  0.40118  0.65210  0.74892  1.0000 -0.60300589
O   O55       1.0  0.26112  0.32890  0.47755  1.0000 -0.5288097169
O   O56       1.0  0.67110  0.93222  0.47755  1.0000 -0.5288097169
O   O57       1.0  0.06778  0.73888  0.47755  1.0000 -0.5288097169
O   O58       1.0  0.73888  0.67110  0.97755  1.0000 -0.5288097169
O   O59       1.0  0.32890  0.06778  0.97755  1.0000 -0.5288097169
O   O60       1.0  0.93222  0.26112  0.97755  1.0000 -0.5288097169
O   O61       1.0  0.54850  0.00690  0.59011  1.0000 -0.5288097169
O   O62       1.0  0.99310  0.54160  0.59011  1.0000 -0.5288097169
O   O63       1.0  0.45840  0.45150  0.59011  1.0000 -0.5288097169
O   O64       1.0  0.45150  0.99310  0.09011  1.0000 -0.5288097169
O   O65       1.0  0.00690  0.45840  0.09011  1.0000 -0.5288097169
O   O66       1.0  0.54160  0.54850  0.09011  1.0000 -0.5288097169
O   O67       1.0  0.40800  0.85432  0.40694  1.0000 -0.5087896724
O   O68       1.0  0.14568  0.55368  0.40694  1.0000 -0.5087896724
O   O69       1.0  0.44632  0.59200  0.40694  1.0000 -0.5087896724
O   O70       1.0  0.59200  0.14568  0.90694  1.0000 -0.5087896724
O   O71       1.0  0.85432  0.44632  0.90694  1.0000 -0.5087896724
O   O72       1.0  0.55368  0.40800  0.90694  1.0000 -0.5087896724
O   O73       1.0  0.79670  0.26180  0.15227  1.0000 -0.5288097169
O   O74       1.0  0.73820  0.53490  0.15227  1.0000 -0.5288097169
O   O75       1.0  0.46510  0.20330  0.15227  1.0000 -0.5288097169
O   O76       1.0  0.20330  0.73820  0.65227  1.0000 -0.5288097169
O   O77       1.0  0.26180  0.46510  0.65227  1.0000 -0.5288097169
O   O78       1.0  0.53490  0.79670  0.65227  1.0000 -0.5288097169
