# DDEC6 charges by PACMAN v1.1 (https://github.com/mtap-research/PACMAN-charge/)
data_2023[ZnTi][nan]3[ION]7
_chemical_formula_sum              "Ti8 Zn8 H290 C384 N40 O78"
_cell_length_a       20.6133
_cell_length_b       20.6133
_cell_length_c       30.6758
_cell_angle_alpha    90
_cell_angle_beta     90
_cell_angle_gamma    120

_symmetry_space_group_name_H-M    "P 1"
_symmetry_Int_Tables_number       1

loop_
  _symmetry_equiv_pos_as_xyz
  'x, y, z'

loop_
  _atom_site_type_symbol
  _atom_site_label
  _atom_site_symmetry_multiplicity
  _atom_site_fract_x
  _atom_site_fract_y
  _atom_site_fract_z
  _atom_site_occupancy
  _atom_site_charge
Ti  Ti1       1.0  0.51629  0.94935  0.55003  1.0000 1.9116071502
Ti  Ti2       1.0  0.05065  0.56694  0.55003  1.0000 1.9116071502
Ti  Ti3       1.0  0.43306  0.48371  0.55003  1.0000 1.9116071502
Ti  Ti4       1.0  0.48371  0.05065  0.05003  1.0000 1.9116071502
Ti  Ti5       1.0  0.94935  0.43306  0.05003  1.0000 1.9116071502
Ti  Ti6       1.0  0.56694  0.51629  0.05003  1.0000 1.9116071502
Ti  Ti7       1.0  0.33333  0.66667  0.79081  1.0000 1.9036092797
Ti  Ti8       1.0  0.66667  0.33333  0.29081  1.0000 1.9036092797
Zn  Zn1       1.0  0.66667  0.33333  0.44509  1.0000 0.7271072903
Zn  Zn2       1.0  0.33333  0.66667  0.94509  1.0000 0.7271072903
Zn  Zn3       1.0  0.83892  0.57484  0.53857  1.0000 0.7480675816
Zn  Zn4       1.0  0.42516  0.26408  0.53857  1.0000 0.7480675816
Zn  Zn5       1.0  0.73592  0.16108  0.53857  1.0000 0.7480675816
Zn  Zn6       1.0  0.16108  0.42516  0.03857  1.0000 0.7480675816
Zn  Zn7       1.0  0.57484  0.73592  0.03857  1.0000 0.7480675816
Zn  Zn8       1.0  0.26408  0.83892  0.03857  1.0000 0.7480675816
H   H1        1.0  0.76236  0.30441  0.44335  1.0000 0.2594073354
H   H2        1.0  0.69559  0.45795  0.44335  1.0000 0.2594073354
H   H3        1.0  0.54205  0.23764  0.44335  1.0000 0.2594073354
H   H4        1.0  0.23764  0.69559  0.94335  1.0000 0.2594073354
H   H5        1.0  0.30441  0.54205  0.94335  1.0000 0.2594073354
H   H6        1.0  0.45795  0.76236  0.94335  1.0000 0.2594073354
H   H7        1.0  0.79140  0.37983  0.42648  1.0000 0.3016851385
H   H8        1.0  0.62017  0.41157  0.42648  1.0000 0.3016851385
H   H9        1.0  0.58843  0.20860  0.42648  1.0000 0.3016851385
H   H10       1.0  0.20860  0.62017  0.92648  1.0000 0.3016851385
H   H11       1.0  0.37983  0.58843  0.92648  1.0000 0.3016851385
H   H12       1.0  0.41157  0.79140  0.92648  1.0000 0.3016851385
H   H13       1.0  0.74478  0.31557  0.39906  1.0000 0.3016851385
H   H14       1.0  0.68443  0.42921  0.39906  1.0000 0.3016851385
H   H15       1.0  0.57079  0.25522  0.39906  1.0000 0.3016851385
H   H16       1.0  0.25522  0.68443  0.89906  1.0000 0.3016851385
H   H17       1.0  0.31557  0.57079  0.89906  1.0000 0.3016851385
H   H18       1.0  0.42921  0.74478  0.89906  1.0000 0.3016851385
H   H19       1.0  0.70688  0.33237  0.51726  1.0000 0.2668814102
H   H20       1.0  0.66763  0.37451  0.51726  1.0000 0.2668814102
H   H21       1.0  0.62549  0.29312  0.51726  1.0000 0.2668814102
H   H22       1.0  0.29312  0.66763  0.01726  1.0000 0.2668814102
H   H23       1.0  0.33237  0.62549  0.01726  1.0000 0.2668814102
H   H24       1.0  0.37451  0.70688  0.01726  1.0000 0.2668814102
H   H25       1.0  0.89714  0.49785  0.40883  1.0000 0.3225474695
H   H26       1.0  0.50215  0.39929  0.40883  1.0000 0.3225474695
H   H27       1.0  0.60071  0.10286  0.40883  1.0000 0.3225474695
H   H28       1.0  0.10286  0.50215  0.90883  1.0000 0.3225474695
H   H29       1.0  0.49785  0.60071  0.90883  1.0000 0.3225474695
H   H30       1.0  0.39929  0.89714  0.90883  1.0000 0.3225474695
H   H31       1.0  0.84053  0.51200  0.40439  1.0000 0.3262842038
H   H32       1.0  0.48800  0.32853  0.40439  1.0000 0.3262842038
H   H33       1.0  0.67147  0.15947  0.40439  1.0000 0.3262842038
H   H34       1.0  0.15947  0.48800  0.90439  1.0000 0.3262842038
H   H35       1.0  0.51200  0.67147  0.90439  1.0000 0.3262842038
H   H36       1.0  0.32853  0.84053  0.90439  1.0000 0.3262842038
H   H37       1.0  0.80298  0.44483  0.52752  1.0000 0.276828889
H   H38       1.0  0.55517  0.35815  0.52752  1.0000 0.276828889
H   H39       1.0  0.64185  0.19702  0.52752  1.0000 0.276828889
H   H40       1.0  0.19702  0.55517  0.02752  1.0000 0.276828889
H   H41       1.0  0.44483  0.64185  0.02752  1.0000 0.276828889
H   H42       1.0  0.35815  0.80298  0.02752  1.0000 0.276828889
H   H43       1.0  0.88343  0.48918  0.52096  1.0000 0.3016851385
H   H44       1.0  0.51082  0.39425  0.52096  1.0000 0.3016851385
H   H45       1.0  0.60575  0.11657  0.52096  1.0000 0.3016851385
H   H46       1.0  0.11657  0.51082  0.02096  1.0000 0.3016851385
H   H47       1.0  0.48918  0.60575  0.02096  1.0000 0.3016851385
H   H48       1.0  0.39425  0.88343  0.02096  1.0000 0.3016851385
H   H49       1.0  0.83259  0.48363  0.48644  1.0000 0.3016851385
H   H50       1.0  0.51637  0.34896  0.48644  1.0000 0.3016851385
H   H51       1.0  0.65104  0.16741  0.48644  1.0000 0.3016851385
H   H52       1.0  0.16741  0.51637  0.98644  1.0000 0.3016851385
H   H53       1.0  0.48363  0.65104  0.98644  1.0000 0.3016851385
H   H54       1.0  0.34896  0.83259  0.98644  1.0000 0.3016851385
H   H55       1.0  0.43087  0.90216  0.38544  1.0000 0.1123513865
H   H56       1.0  0.09784  0.52871  0.38544  1.0000 0.1123513865
H   H57       1.0  0.47129  0.56913  0.38544  1.0000 0.1123513865
H   H58       1.0  0.56913  0.09784  0.88544  1.0000 0.1123513865
H   H59       1.0  0.90216  0.47129  0.88544  1.0000 0.1123513865
H   H60       1.0  0.52871  0.43087  0.88544  1.0000 0.1123513865
H   H61       1.0  0.30029  0.81298  0.55155  1.0000 0.1286552452
H   H62       1.0  0.18702  0.48731  0.55155  1.0000 0.1286552452
H   H63       1.0  0.51269  0.69971  0.55155  1.0000 0.1286552452
H   H64       1.0  0.69971  0.18702  0.05155  1.0000 0.1286552452
H   H65       1.0  0.81298  0.51269  0.05155  1.0000 0.1286552452
H   H66       1.0  0.48731  0.30029  0.05155  1.0000 0.1286552452
H   H67       1.0  0.25204  0.73562  0.52855  1.0000 0.1286552452
H   H68       1.0  0.26438  0.51642  0.52855  1.0000 0.1286552452
H   H69       1.0  0.48358  0.74796  0.52855  1.0000 0.1286552452
H   H70       1.0  0.74796  0.26438  0.02855  1.0000 0.1286552452
H   H71       1.0  0.73562  0.48358  0.02855  1.0000 0.1286552452
H   H72       1.0  0.51642  0.25204  0.02855  1.0000 0.1286552452
H   H73       1.0  0.46311  0.82912  0.65763  1.0000 0.1200249688
H   H74       1.0  0.17088  0.63399  0.65763  1.0000 0.1200249688
H   H75       1.0  0.36601  0.53689  0.65763  1.0000 0.1200249688
H   H76       1.0  0.53689  0.17088  0.15763  1.0000 0.1200249688
H   H77       1.0  0.82912  0.36601  0.15763  1.0000 0.1200249688
H   H78       1.0  0.63399  0.46311  0.15763  1.0000 0.1200249688
H   H79       1.0  0.40486  0.80991  0.69525  1.0000 0.1286552452
H   H80       1.0  0.19009  0.59495  0.69525  1.0000 0.1286552452
H   H81       1.0  0.40505  0.59514  0.69525  1.0000 0.1286552452
H   H82       1.0  0.59514  0.19009  0.19525  1.0000 0.1286552452
H   H83       1.0  0.80991  0.40505  0.19525  1.0000 0.1286552452
H   H84       1.0  0.59495  0.40486  0.19525  1.0000 0.1286552452
H   H85       1.0  0.41678  0.86958  0.76460  1.0000 0.1286552452
H   H86       1.0  0.13042  0.54720  0.76460  1.0000 0.1286552452
H   H87       1.0  0.45280  0.58322  0.76460  1.0000 0.1286552452
H   H88       1.0  0.58322  0.13042  0.26460  1.0000 0.1286552452
H   H89       1.0  0.86958  0.45280  0.26460  1.0000 0.1286552452
H   H90       1.0  0.54720  0.41678  0.26460  1.0000 0.1286552452
H   H91       1.0  0.63204  0.82302  0.80415  1.0000 0.1200249688
H   H92       1.0  0.17698  0.80902  0.80415  1.0000 0.1200249688
H   H93       1.0  0.19098  0.36796  0.80415  1.0000 0.1200249688
H   H94       1.0  0.36796  0.17698  0.30415  1.0000 0.1200249688
H   H95       1.0  0.82302  0.19098  0.30415  1.0000 0.1200249688
H   H96       1.0  0.80902  0.63204  0.30415  1.0000 0.1200249688
H   H97       1.0  0.17678  0.71203  0.46175  1.0000 0.1200249688
H   H98       1.0  0.28797  0.46475  0.46175  1.0000 0.1200249688
H   H99       1.0  0.53525  0.82322  0.46175  1.0000 0.1200249688
H   H100      1.0  0.82322  0.28797  0.96175  1.0000 0.1200249688
H   H101      1.0  0.71203  0.53525  0.96175  1.0000 0.1200249688
H   H102      1.0  0.46475  0.17678  0.96175  1.0000 0.1200249688
H   H103      1.0  0.62589  0.52528  0.38298  1.0000 0.1376618352
H   H104      1.0  0.47472  0.10061  0.38298  1.0000 0.1376618352
H   H105      1.0  0.89939  0.37411  0.38298  1.0000 0.1376618352
H   H106      1.0  0.37411  0.47472  0.88298  1.0000 0.1376618352
H   H107      1.0  0.52528  0.89939  0.88298  1.0000 0.1376618352
H   H108      1.0  0.10061  0.62589  0.88298  1.0000 0.1376618352
H   H109      1.0  0.60105  0.56806  0.31867  1.0000 0.1123513865
H   H110      1.0  0.43194  0.03299  0.31867  1.0000 0.1123513865
H   H111      1.0  0.96701  0.39895  0.31867  1.0000 0.1123513865
H   H112      1.0  0.39895  0.43194  0.81867  1.0000 0.1123513865
H   H113      1.0  0.56806  0.96701  0.81867  1.0000 0.1123513865
H   H114      1.0  0.03299  0.60105  0.81867  1.0000 0.1123513865
H   H115      1.0  0.71003  0.77863  0.36491  1.0000 0.1123513865
H   H116      1.0  0.22137  0.93140  0.36491  1.0000 0.1123513865
H   H117      1.0  0.06860  0.28997  0.36491  1.0000 0.1123513865
H   H118      1.0  0.28997  0.22137  0.86491  1.0000 0.1123513865
H   H119      1.0  0.77863  0.06860  0.86491  1.0000 0.1123513865
H   H120      1.0  0.93140  0.71003  0.86491  1.0000 0.1123513865
H   H121      1.0  0.73486  0.73585  0.42922  1.0000 0.1286552452
H   H122      1.0  0.26415  0.99901  0.42922  1.0000 0.1286552452
H   H123      1.0  0.00099  0.26514  0.42922  1.0000 0.1286552452
H   H124      1.0  0.26514  0.26415  0.92922  1.0000 0.1286552452
H   H125      1.0  0.73585  0.00099  0.92922  1.0000 0.1286552452
H   H126      1.0  0.99901  0.73486  0.92922  1.0000 0.1286552452
H   H127      1.0  0.66216  0.50422  0.53544  1.0000 0.1376618352
H   H128      1.0  0.49578  0.15794  0.53544  1.0000 0.1376618352
H   H129      1.0  0.84206  0.33784  0.53544  1.0000 0.1376618352
H   H130      1.0  0.33784  0.49578  0.03544  1.0000 0.1376618352
H   H131      1.0  0.50422  0.84206  0.03544  1.0000 0.1376618352
H   H132      1.0  0.15794  0.66216  0.03544  1.0000 0.1376618352
H   H133      1.0  0.81068  0.64629  0.45306  1.0000 0.1286552452
H   H134      1.0  0.35371  0.16439  0.45306  1.0000 0.1286552452
H   H135      1.0  0.83561  0.18932  0.45306  1.0000 0.1286552452
H   H136      1.0  0.18932  0.35371  0.95306  1.0000 0.1286552452
H   H137      1.0  0.64629  0.83561  0.95306  1.0000 0.1286552452
H   H138      1.0  0.16439  0.81068  0.95306  1.0000 0.1286552452
H   H139      1.0  0.32487  0.81847  0.33890  1.0000 0.1123513865
H   H140      1.0  0.18153  0.50640  0.33890  1.0000 0.1123513865
H   H141      1.0  0.49360  0.67513  0.33890  1.0000 0.1123513865
H   H142      1.0  0.67513  0.18153  0.83890  1.0000 0.1123513865
H   H143      1.0  0.81847  0.49360  0.83890  1.0000 0.1123513865
H   H144      1.0  0.50640  0.32487  0.83890  1.0000 0.1123513865
H   H145      1.0  0.12758  0.67519  0.39251  1.0000 0.1123513865
H   H146      1.0  0.32481  0.45239  0.39251  1.0000 0.1123513865
H   H147      1.0  0.54761  0.87242  0.39251  1.0000 0.1123513865
H   H148      1.0  0.87242  0.32481  0.89251  1.0000 0.1123513865
H   H149      1.0  0.67519  0.54761  0.89251  1.0000 0.1123513865
H   H150      1.0  0.45239  0.12758  0.89251  1.0000 0.1123513865
H   H151      1.0  0.59478  0.52884  0.47806  1.0000 0.1491157302
H   H152      1.0  0.47116  0.06594  0.47806  1.0000 0.1491157302
H   H153      1.0  0.93406  0.40522  0.47806  1.0000 0.1491157302
H   H154      1.0  0.40522  0.47116  0.97806  1.0000 0.1491157302
H   H155      1.0  0.52884  0.93406  0.97806  1.0000 0.1491157302
H   H156      1.0  0.06594  0.59478  0.97806  1.0000 0.1491157302
H   H157      1.0  0.51811  0.12421  0.67758  1.0000 0.1123513865
H   H158      1.0  0.87579  0.39390  0.67758  1.0000 0.1123513865
H   H159      1.0  0.60610  0.48189  0.67758  1.0000 0.1123513865
H   H160      1.0  0.48189  0.87579  0.17758  1.0000 0.1123513865
H   H161      1.0  0.12421  0.60610  0.17758  1.0000 0.1123513865
H   H162      1.0  0.39390  0.51811  0.17758  1.0000 0.1123513865
H   H163      1.0  0.20429  0.72642  0.33085  1.0000 0.1123513865
H   H164      1.0  0.27358  0.47787  0.33085  1.0000 0.1123513865
H   H165      1.0  0.52213  0.79571  0.33085  1.0000 0.1123513865
H   H166      1.0  0.79571  0.27358  0.83085  1.0000 0.1123513865
H   H167      1.0  0.72642  0.52213  0.83085  1.0000 0.1123513865
H   H168      1.0  0.47787  0.20429  0.83085  1.0000 0.1123513865
H   H169      1.0  0.40689  0.93216  0.82420  1.0000 0.1200249688
H   H170      1.0  0.06784  0.47473  0.82420  1.0000 0.1200249688
H   H171      1.0  0.52527  0.59311  0.82420  1.0000 0.1200249688
H   H172      1.0  0.59311  0.06784  0.32420  1.0000 0.1200249688
H   H173      1.0  0.93216  0.52527  0.32420  1.0000 0.1200249688
H   H174      1.0  0.47473  0.40689  0.32420  1.0000 0.1200249688
H   H175      1.0  0.32485  0.04710  0.53474  1.0000 0.1017214198
H   H176      1.0  0.95290  0.27775  0.53474  1.0000 0.1017214198
H   H177      1.0  0.72225  0.67515  0.53474  1.0000 0.1017214198
H   H178      1.0  0.67515  0.95290  0.03474  1.0000 0.1017214198
H   H179      1.0  0.04710  0.72225  0.03474  1.0000 0.1017214198
H   H180      1.0  0.27775  0.32485  0.03474  1.0000 0.1017214198
H   H181      1.0  0.59462  0.91907  0.65179  1.0000 0.1286552452
H   H182      1.0  0.08093  0.67555  0.65179  1.0000 0.1286552452
H   H183      1.0  0.32445  0.40538  0.65179  1.0000 0.1286552452
H   H184      1.0  0.40538  0.08093  0.15179  1.0000 0.1286552452
H   H185      1.0  0.91907  0.32445  0.15179  1.0000 0.1286552452
H   H186      1.0  0.67555  0.59462  0.15179  1.0000 0.1286552452
H   H187      1.0  0.58573  0.68628  0.13315  1.0000 0.1286552452
H   H188      1.0  0.31372  0.89945  0.13315  1.0000 0.1286552452
H   H189      1.0  0.10055  0.41427  0.13315  1.0000 0.1286552452
H   H190      1.0  0.41427  0.31372  0.63315  1.0000 0.1286552452
H   H191      1.0  0.68628  0.10055  0.63315  1.0000 0.1286552452
H   H192      1.0  0.89945  0.58573  0.63315  1.0000 0.1286552452
H   H193      1.0  0.31931  0.93473  0.53236  1.0000 0.1200249688
H   H194      1.0  0.06527  0.38458  0.53236  1.0000 0.1200249688
H   H195      1.0  0.61542  0.68069  0.53236  1.0000 0.1200249688
H   H196      1.0  0.68069  0.06527  0.03236  1.0000 0.1200249688
H   H197      1.0  0.93473  0.61542  0.03236  1.0000 0.1200249688
H   H198      1.0  0.38458  0.31931  0.03236  1.0000 0.1200249688
H   H199      1.0  0.72061  0.98219  0.64599  1.0000 0.1123513865
H   H200      1.0  0.01781  0.73842  0.64599  1.0000 0.1123513865
H   H201      1.0  0.26158  0.27939  0.64599  1.0000 0.1123513865
H   H202      1.0  0.27939  0.01781  0.14599  1.0000 0.1123513865
H   H203      1.0  0.98219  0.26158  0.14599  1.0000 0.1123513865
H   H204      1.0  0.73842  0.72061  0.14599  1.0000 0.1123513865
H   H205      1.0  0.02465  0.81079  0.53512  1.0000 0.1200249688
H   H206      1.0  0.18921  0.21386  0.53512  1.0000 0.1200249688
H   H207      1.0  0.78614  0.97535  0.53512  1.0000 0.1200249688
H   H208      1.0  0.97535  0.18921  0.03512  1.0000 0.1200249688
H   H209      1.0  0.81079  0.78614  0.03512  1.0000 0.1200249688
H   H210      1.0  0.21386  0.02465  0.03512  1.0000 0.1200249688
H   H211      1.0  0.44434  0.05849  0.82064  1.0000 0.1200249688
H   H212      1.0  0.94151  0.38585  0.82064  1.0000 0.1200249688
H   H213      1.0  0.61415  0.55566  0.82064  1.0000 0.1200249688
H   H214      1.0  0.55566  0.94151  0.32064  1.0000 0.1200249688
H   H215      1.0  0.05849  0.61415  0.32064  1.0000 0.1200249688
H   H216      1.0  0.38585  0.44434  0.32064  1.0000 0.1200249688
H   H217      1.0  0.48690  0.12162  0.75675  1.0000 0.1123513865
H   H218      1.0  0.87838  0.36528  0.75675  1.0000 0.1123513865
H   H219      1.0  0.63472  0.51310  0.75675  1.0000 0.1123513865
H   H220      1.0  0.51310  0.87838  0.25675  1.0000 0.1123513865
H   H221      1.0  0.12162  0.63472  0.25675  1.0000 0.1123513865
H   H222      1.0  0.36528  0.48690  0.25675  1.0000 0.1123513865
H   H223      1.0  0.68290  0.85407  0.23668  1.0000 0.1286552452
H   H224      1.0  0.14593  0.82883  0.23668  1.0000 0.1286552452
H   H225      1.0  0.17117  0.31710  0.23668  1.0000 0.1286552452
H   H226      1.0  0.31710  0.14593  0.73668  1.0000 0.1286552452
H   H227      1.0  0.85407  0.17117  0.73668  1.0000 0.1286552452
H   H228      1.0  0.82883  0.68290  0.73668  1.0000 0.1286552452
H   H229      1.0  0.70165  0.81381  0.30406  1.0000 0.1123513865
H   H230      1.0  0.18619  0.88784  0.30406  1.0000 0.1123513865
H   H231      1.0  0.11216  0.29835  0.30406  1.0000 0.1123513865
H   H232      1.0  0.29835  0.18619  0.80406  1.0000 0.1123513865
H   H233      1.0  0.81381  0.11216  0.80406  1.0000 0.1123513865
H   H234      1.0  0.88784  0.70165  0.80406  1.0000 0.1123513865
H   H235      1.0  0.79627  0.97583  0.69891  1.0000 0.1123513865
H   H236      1.0  0.02417  0.82044  0.69891  1.0000 0.1123513865
H   H237      1.0  0.17956  0.20373  0.69891  1.0000 0.1123513865
H   H238      1.0  0.20373  0.02417  0.19891  1.0000 0.1123513865
H   H239      1.0  0.97583  0.17956  0.19891  1.0000 0.1123513865
H   H240      1.0  0.82044  0.79627  0.19891  1.0000 0.1123513865
H   H241      1.0  0.54684  0.64173  0.20349  1.0000 0.1200249688
H   H242      1.0  0.35827  0.90511  0.20349  1.0000 0.1200249688
H   H243      1.0  0.09489  0.45316  0.20349  1.0000 0.1200249688
H   H244      1.0  0.45316  0.35827  0.70349  1.0000 0.1200249688
H   H245      1.0  0.64173  0.09489  0.70349  1.0000 0.1200249688
H   H246      1.0  0.90511  0.54684  0.70349  1.0000 0.1200249688
H   H247      1.0  0.59059  0.87184  0.10021  1.0000 0.1286552452
H   H248      1.0  0.12816  0.71875  0.10021  1.0000 0.1286552452
H   H249      1.0  0.28125  0.40941  0.10021  1.0000 0.1286552452
H   H250      1.0  0.40941  0.12816  0.60021  1.0000 0.1286552452
H   H251      1.0  0.87184  0.28125  0.60021  1.0000 0.1286552452
H   H252      1.0  0.71875  0.59059  0.60021  1.0000 0.1286552452
H   H253      1.0  0.74443  0.91021  0.76283  1.0000 0.1200249688
H   H254      1.0  0.08979  0.83422  0.76283  1.0000 0.1200249688
H   H255      1.0  0.16578  0.25557  0.76283  1.0000 0.1200249688
H   H256      1.0  0.25557  0.08979  0.26283  1.0000 0.1200249688
H   H257      1.0  0.91021  0.16578  0.26283  1.0000 0.1200249688
H   H258      1.0  0.83422  0.74443  0.26283  1.0000 0.1200249688
H   H259      1.0  0.10209  0.95069  0.53614  1.0000 0.1200249688
H   H260      1.0  0.04931  0.15140  0.53614  1.0000 0.1200249688
H   H261      1.0  0.84860  0.89791  0.53614  1.0000 0.1200249688
H   H262      1.0  0.89791  0.04931  0.03614  1.0000 0.1200249688
H   H263      1.0  0.95069  0.84860  0.03614  1.0000 0.1200249688
H   H264      1.0  0.15140  0.10209  0.03614  1.0000 0.1200249688
H   H265      1.0  0.21597  0.05663  0.53221  1.0000 0.1200249688
H   H266      1.0  0.94337  0.15934  0.53221  1.0000 0.1200249688
H   H267      1.0  0.84066  0.78403  0.53221  1.0000 0.1200249688
H   H268      1.0  0.78403  0.94337  0.03221  1.0000 0.1200249688
H   H269      1.0  0.05663  0.84066  0.03221  1.0000 0.1200249688
H   H270      1.0  0.15934  0.21597  0.03221  1.0000 0.1200249688
H   H271      1.0  0.62471  0.88462  0.17677  1.0000 0.1376618352
H   H272      1.0  0.11538  0.74009  0.17677  1.0000 0.1376618352
H   H273      1.0  0.25991  0.37529  0.17677  1.0000 0.1376618352
H   H274      1.0  0.37529  0.11538  0.67677  1.0000 0.1376618352
H   H275      1.0  0.88462  0.25991  0.67677  1.0000 0.1376618352
H   H276      1.0  0.74009  0.62471  0.67677  1.0000 0.1376618352
H   H277      1.0  0.56690  0.60310  0.27016  1.0000 0.1123513865
H   H278      1.0  0.39690  0.96380  0.27016  1.0000 0.1123513865
H   H279      1.0  0.03620  0.43310  0.27016  1.0000 0.1123513865
H   H280      1.0  0.43310  0.39690  0.77016  1.0000 0.1123513865
H   H281      1.0  0.60310  0.03620  0.77016  1.0000 0.1123513865
H   H282      1.0  0.96380  0.56690  0.77016  1.0000 0.1123513865
H   H283      1.0  0.66667  0.33333  0.09027  1.0000 0.1923304984
H   H284      1.0  0.67954  0.30041  0.12857  1.0000 0.2034401337
H   H285      1.0  0.69959  0.37913  0.12857  1.0000 0.2034401337
H   H286      1.0  0.62087  0.32046  0.12857  1.0000 0.2034401337
H   H287      1.0  0.33333  0.66667  0.59027  1.0000 0.1923304984
H   H288      1.0  0.32046  0.69959  0.62857  1.0000 0.2034401337
H   H289      1.0  0.30041  0.62087  0.62857  1.0000 0.2034401337
H   H290      1.0  0.37913  0.67954  0.62857  1.0000 0.2034401337
C   C1        1.0  0.12920  0.73400  0.53640  1.0000 0.2509259174
C   C2        1.0  0.26600  0.39520  0.53640  1.0000 0.2509259174
C   C3        1.0  0.60480  0.87080  0.53640  1.0000 0.2509259174
C   C4        1.0  0.87080  0.26600  0.03640  1.0000 0.2509259174
C   C5        1.0  0.73400  0.60480  0.03640  1.0000 0.2509259174
C   C6        1.0  0.39520  0.12920  0.03640  1.0000 0.2509259174
C   C7        1.0  0.32790  0.82370  0.40530  1.0000 0.0608916101
C   C8        1.0  0.17630  0.50420  0.40530  1.0000 0.0608916101
C   C9        1.0  0.49580  0.67210  0.40530  1.0000 0.0608916101
C   C10       1.0  0.67210  0.17630  0.90530  1.0000 0.0608916101
C   C11       1.0  0.82370  0.49580  0.90530  1.0000 0.0608916101
C   C12       1.0  0.50420  0.32790  0.90530  1.0000 0.0608916101
C   C13       1.0  0.53040  0.08090  0.60060  1.0000 0.5939119895
C   C14       1.0  0.91910  0.44950  0.60060  1.0000 0.5939119895
C   C15       1.0  0.55050  0.46960  0.60060  1.0000 0.5939119895
C   C16       1.0  0.46960  0.91910  0.10060  1.0000 0.5939119895
C   C17       1.0  0.08090  0.55050  0.10060  1.0000 0.5939119895
C   C18       1.0  0.44950  0.53040  0.10060  1.0000 0.5939119895
C   C19       1.0  0.47700  0.78730  0.75420  1.0000 0.2594073354
C   C20       1.0  0.21270  0.68970  0.75420  1.0000 0.2594073354
C   C21       1.0  0.31030  0.52300  0.75420  1.0000 0.2594073354
C   C22       1.0  0.52300  0.21270  0.25420  1.0000 0.2594073354
C   C23       1.0  0.78730  0.31030  0.25420  1.0000 0.2594073354
C   C24       1.0  0.68970  0.47700  0.25420  1.0000 0.2594073354
C   C25       1.0  0.28200  0.79190  0.44330  1.0000 0.0502543855
C   C26       1.0  0.20810  0.49010  0.44330  1.0000 0.0502543855
C   C27       1.0  0.50990  0.71800  0.44330  1.0000 0.0502543855
C   C28       1.0  0.71800  0.20810  0.94330  1.0000 0.0502543855
C   C29       1.0  0.79190  0.50990  0.94330  1.0000 0.0502543855
C   C30       1.0  0.49010  0.28200  0.94330  1.0000 0.0502543855
C   C31       1.0  0.19880  0.79680  0.53110  1.0000 -0.0284302804
C   C32       1.0  0.20320  0.40200  0.53110  1.0000 -0.0284302804
C   C33       1.0  0.59800  0.80120  0.53110  1.0000 -0.0284302804
C   C34       1.0  0.80120  0.20320  0.03110  1.0000 -0.0284302804
C   C35       1.0  0.79680  0.59800  0.03110  1.0000 -0.0284302804
C   C36       1.0  0.40200  0.19880  0.03110  1.0000 -0.0284302804
C   C37       1.0  0.31340  0.81970  0.48560  1.0000 -0.0284302804
C   C38       1.0  0.18030  0.49370  0.48560  1.0000 -0.0284302804
C   C39       1.0  0.50630  0.68660  0.48560  1.0000 -0.0284302804
C   C40       1.0  0.68660  0.18030  0.98560  1.0000 -0.0284302804
C   C41       1.0  0.81970  0.50630  0.98560  1.0000 -0.0284302804
C   C42       1.0  0.49370  0.31340  0.98560  1.0000 -0.0284302804
C   C43       1.0  0.98840  0.67170  0.54200  1.0000 0.6191358307
C   C44       1.0  0.32830  0.31670  0.54200  1.0000 0.6191358307
C   C45       1.0  0.68330  0.01160  0.54200  1.0000 0.6191358307
C   C46       1.0  0.01160  0.32830  0.04200  1.0000 0.6191358307
C   C47       1.0  0.67170  0.68330  0.04200  1.0000 0.6191358307
C   C48       1.0  0.31670  0.98840  0.04200  1.0000 0.6191358307
C   C49       1.0  0.50870  0.83470  0.71820  1.0000 -0.0284302804
C   C50       1.0  0.16530  0.67400  0.71820  1.0000 -0.0284302804
C   C51       1.0  0.32600  0.49130  0.71820  1.0000 -0.0284302804
C   C52       1.0  0.49130  0.16530  0.21820  1.0000 -0.0284302804
C   C53       1.0  0.83470  0.32600  0.21820  1.0000 -0.0284302804
C   C54       1.0  0.67400  0.50870  0.21820  1.0000 -0.0284302804
C   C55       1.0  0.40210  0.88050  0.41020  1.0000 -0.1525082847
C   C56       1.0  0.11950  0.52160  0.41020  1.0000 -0.1525082847
C   C57       1.0  0.47840  0.59790  0.41020  1.0000 -0.1525082847
C   C58       1.0  0.59790  0.11950  0.91020  1.0000 -0.1525082847
C   C59       1.0  0.88050  0.47840  0.91020  1.0000 -0.1525082847
C   C60       1.0  0.52160  0.40210  0.91020  1.0000 -0.1525082847
C   C61       1.0  0.26790  0.78850  0.52680  1.0000 -0.2508943787
C   C62       1.0  0.21150  0.47940  0.52680  1.0000 -0.2508943787
C   C63       1.0  0.52060  0.73210  0.52680  1.0000 -0.2508943787
C   C64       1.0  0.73210  0.21150  0.02680  1.0000 -0.2508943787
C   C65       1.0  0.78850  0.52060  0.02680  1.0000 -0.2508943787
C   C66       1.0  0.47940  0.26790  0.02680  1.0000 -0.2508943787
C   C67       1.0  0.51350  0.96810  0.45210  1.0000 0.600298488
C   C68       1.0  0.03190  0.54540  0.45210  1.0000 0.600298488
C   C69       1.0  0.45460  0.48650  0.45210  1.0000 0.600298488
C   C70       1.0  0.48650  0.03190  0.95210  1.0000 0.600298488
C   C71       1.0  0.96810  0.45460  0.95210  1.0000 0.600298488
C   C72       1.0  0.54540  0.51350  0.95210  1.0000 0.600298488
C   C73       1.0  0.06280  0.73910  0.53770  1.0000 -0.1608995839
C   C74       1.0  0.26090  0.32370  0.53770  1.0000 -0.1608995839
C   C75       1.0  0.67630  0.93720  0.53770  1.0000 -0.1608995839
C   C76       1.0  0.93720  0.26090  0.03770  1.0000 -0.1608995839
C   C77       1.0  0.73910  0.67630  0.03770  1.0000 -0.1608995839
C   C78       1.0  0.32370  0.06280  0.03770  1.0000 -0.1608995839
C   C79       1.0  0.45630  0.84370  0.68660  1.0000 -0.2508943787
C   C80       1.0  0.15630  0.61260  0.68660  1.0000 -0.2508943787
C   C81       1.0  0.38740  0.54370  0.68660  1.0000 -0.2508943787
C   C82       1.0  0.54370  0.15630  0.18660  1.0000 -0.2508943787
C   C83       1.0  0.84370  0.38740  0.18660  1.0000 -0.2508943787
C   C84       1.0  0.61260  0.45630  0.18660  1.0000 -0.2508943787
C   C85       1.0  0.43420  0.90560  0.45070  1.0000 -0.1708796308
C   C86       1.0  0.09440  0.52860  0.45070  1.0000 -0.1708796308
C   C87       1.0  0.47140  0.56580  0.45070  1.0000 -0.1708796308
C   C88       1.0  0.56580  0.09440  0.95070  1.0000 -0.1708796308
C   C89       1.0  0.90560  0.47140  0.95070  1.0000 -0.1708796308
C   C90       1.0  0.52860  0.43420  0.95070  1.0000 -0.1708796308
C   C91       1.0  0.50720  0.03770  0.64270  1.0000 -0.1608995839
C   C92       1.0  0.96230  0.46950  0.64270  1.0000 -0.1608995839
C   C93       1.0  0.53050  0.49280  0.64270  1.0000 -0.1608995839
C   C94       1.0  0.49280  0.96230  0.14270  1.0000 -0.1608995839
C   C95       1.0  0.03770  0.53050  0.14270  1.0000 -0.1608995839
C   C96       1.0  0.46950  0.50720  0.14270  1.0000 -0.1608995839
C   C97       1.0  0.52320  0.78230  0.78740  1.0000 -0.1764239928
C   C98       1.0  0.21770  0.74090  0.78740  1.0000 -0.1764239928
C   C99       1.0  0.25910  0.47680  0.78740  1.0000 -0.1764239928
C   C100      1.0  0.47680  0.21770  0.28740  1.0000 -0.1764239928
C   C101      1.0  0.78230  0.25910  0.28740  1.0000 -0.1764239928
C   C102      1.0  0.74090  0.52320  0.28740  1.0000 -0.1764239928
C   C103      1.0  0.58760  0.87390  0.71220  1.0000 0.0502543855
C   C104      1.0  0.12610  0.71370  0.71220  1.0000 0.0502543855
C   C105      1.0  0.28630  0.41240  0.71220  1.0000 0.0502543855
C   C106      1.0  0.41240  0.12610  0.21220  1.0000 0.0502543855
C   C107      1.0  0.87390  0.28630  0.21220  1.0000 0.0502543855
C   C108      1.0  0.71370  0.58760  0.21220  1.0000 0.0502543855
C   C109      1.0  0.38880  0.87300  0.48820  1.0000 0.2341355869
C   C110      1.0  0.12700  0.51580  0.48820  1.0000 0.2341355869
C   C111      1.0  0.48420  0.61120  0.48820  1.0000 0.2341355869
C   C112      1.0  0.61120  0.12700  0.98820  1.0000 0.2341355869
C   C113      1.0  0.87300  0.48420  0.98820  1.0000 0.2341355869
C   C114      1.0  0.51580  0.38880  0.98820  1.0000 0.2341355869
C   C115      1.0  0.49060  0.96160  0.64510  1.0000 0.2594073354
C   C116      1.0  0.03840  0.52900  0.64510  1.0000 0.2594073354
C   C117      1.0  0.47100  0.50940  0.64510  1.0000 0.2594073354
C   C118      1.0  0.50940  0.03840  0.14510  1.0000 0.2594073354
C   C119      1.0  0.96160  0.47100  0.14510  1.0000 0.2594073354
C   C120      1.0  0.52900  0.49060  0.14510  1.0000 0.2594073354
C   C121      1.0  0.47930  0.03570  0.71970  1.0000 0.0502543855
C   C122      1.0  0.96430  0.44360  0.71970  1.0000 0.0502543855
C   C123      1.0  0.55640  0.52070  0.71970  1.0000 0.0502543855
C   C124      1.0  0.52070  0.96430  0.21970  1.0000 0.0502543855
C   C125      1.0  0.03570  0.55640  0.21970  1.0000 0.0502543855
C   C126      1.0  0.44360  0.47930  0.21970  1.0000 0.0502543855
C   C127      1.0  0.43140  0.92010  0.76240  1.0000 -0.1292485774
C   C128      1.0  0.07990  0.51130  0.76240  1.0000 -0.1292485774
C   C129      1.0  0.48870  0.56860  0.76240  1.0000 -0.1292485774
C   C130      1.0  0.56860  0.07990  0.26240  1.0000 -0.1292485774
C   C131      1.0  0.92010  0.48870  0.26240  1.0000 -0.1292485774
C   C132      1.0  0.51130  0.43140  0.26240  1.0000 -0.1292485774
C   C133      1.0  0.49290  0.73680  0.82760  1.0000 0.600298488
C   C134      1.0  0.26320  0.75610  0.82760  1.0000 0.600298488
C   C135      1.0  0.24390  0.50710  0.82760  1.0000 0.600298488
C   C136      1.0  0.50710  0.26320  0.32760  1.0000 0.600298488
C   C137      1.0  0.73680  0.24390  0.32760  1.0000 0.600298488
C   C138      1.0  0.75610  0.49290  0.32760  1.0000 0.600298488
C   C139      1.0  0.20460  0.86900  0.53210  1.0000 0.0502543855
C   C140      1.0  0.13100  0.33560  0.53210  1.0000 0.0502543855
C   C141      1.0  0.66440  0.79540  0.53210  1.0000 0.0502543855
C   C142      1.0  0.79540  0.13100  0.03210  1.0000 0.0502543855
C   C143      1.0  0.86900  0.66440  0.03210  1.0000 0.0502543855
C   C144      1.0  0.33560  0.20460  0.03210  1.0000 0.0502543855
C   C145      1.0  0.61030  0.74880  0.21360  1.0000 0.1491157302
C   C146      1.0  0.25120  0.86150  0.21360  1.0000 0.1491157302
C   C147      1.0  0.13850  0.38970  0.21360  1.0000 0.1491157302
C   C148      1.0  0.38970  0.25120  0.71360  1.0000 0.1491157302
C   C149      1.0  0.74880  0.13850  0.71360  1.0000 0.1491157302
C   C150      1.0  0.86150  0.61030  0.71360  1.0000 0.1491157302
C   C151      1.0  0.60140  0.82450  0.78240  1.0000 -0.1525082847
C   C152      1.0  0.17550  0.77690  0.78240  1.0000 -0.1525082847
C   C153      1.0  0.22310  0.39860  0.78240  1.0000 -0.1525082847
C   C154      1.0  0.39860  0.17550  0.28240  1.0000 -0.1525082847
C   C155      1.0  0.82450  0.22310  0.28240  1.0000 -0.1525082847
C   C156      1.0  0.77690  0.60140  0.28240  1.0000 -0.1525082847
C   C157      1.0  0.20690  0.73460  0.43750  1.0000 -0.1222135646
C   C158      1.0  0.26540  0.47230  0.43750  1.0000 -0.1222135646
C   C159      1.0  0.52770  0.79310  0.43750  1.0000 -0.1222135646
C   C160      1.0  0.79310  0.26540  0.93750  1.0000 -0.1222135646
C   C161      1.0  0.73460  0.52770  0.93750  1.0000 -0.1222135646
C   C162      1.0  0.47230  0.20690  0.93750  1.0000 -0.1222135646
C   C163      1.0  0.68280  0.62630  0.41247  1.0000 0.1602986047
C   C164      1.0  0.37370  0.05650  0.41247  1.0000 0.1602986047
C   C165      1.0  0.94350  0.31720  0.41247  1.0000 0.1602986047
C   C166      1.0  0.31720  0.37370  0.91247  1.0000 0.1602986047
C   C167      1.0  0.62630  0.94350  0.91247  1.0000 0.1602986047
C   C168      1.0  0.05650  0.68280  0.91247  1.0000 0.1602986047
C   C169      1.0  0.64280  0.57610  0.37940  1.0000 -0.1411361264
C   C170      1.0  0.42390  0.06670  0.37940  1.0000 -0.1411361264
C   C171      1.0  0.93330  0.35720  0.37940  1.0000 -0.1411361264
C   C172      1.0  0.35720  0.42390  0.87940  1.0000 -0.1411361264
C   C173      1.0  0.57610  0.93330  0.87940  1.0000 -0.1411361264
C   C174      1.0  0.06670  0.64280  0.87940  1.0000 -0.1411361264
C   C175      1.0  0.62790  0.60170  0.34080  1.0000 -0.1222135646
C   C176      1.0  0.39830  0.02620  0.34080  1.0000 -0.1222135646
C   C177      1.0  0.97380  0.37210  0.34080  1.0000 -0.1222135646
C   C178      1.0  0.37210  0.39830  0.84080  1.0000 -0.1222135646
C   C179      1.0  0.60170  0.97380  0.84080  1.0000 -0.1222135646
C   C180      1.0  0.02620  0.62790  0.84080  1.0000 -0.1222135646
C   C181      1.0  0.65310  0.67760  0.33540  1.0000 0.0608916101
C   C182      1.0  0.32240  0.97550  0.33540  1.0000 0.0608916101
C   C183      1.0  0.02450  0.34690  0.33540  1.0000 0.0608916101
C   C184      1.0  0.34690  0.32240  0.83540  1.0000 0.0608916101
C   C185      1.0  0.67760  0.02450  0.83540  1.0000 0.0608916101
C   C186      1.0  0.97550  0.65310  0.83540  1.0000 0.0608916101
C   C187      1.0  0.69320  0.72780  0.36850  1.0000 -0.1222135646
C   C188      1.0  0.27220  0.96540  0.36850  1.0000 -0.1222135646
C   C189      1.0  0.03460  0.30680  0.36850  1.0000 -0.1222135646
C   C190      1.0  0.30680  0.27220  0.86850  1.0000 -0.1222135646
C   C191      1.0  0.72780  0.03460  0.86850  1.0000 -0.1222135646
C   C192      1.0  0.96540  0.69320  0.86850  1.0000 -0.1222135646
C   C193      1.0  0.70800  0.70220  0.40710  1.0000 -0.1708796308
C   C194      1.0  0.29780  0.00580  0.40710  1.0000 -0.1708796308
C   C195      1.0  0.99420  0.29200  0.40710  1.0000 -0.1708796308
C   C196      1.0  0.29200  0.29780  0.90710  1.0000 -0.1708796308
C   C197      1.0  0.70220  0.99420  0.90710  1.0000 -0.1708796308
C   C198      1.0  0.00580  0.70800  0.90710  1.0000 -0.1708796308
C   C199      1.0  0.45990  0.95870  0.72200  1.0000 0.0419973472
C   C200      1.0  0.04130  0.50120  0.72200  1.0000 0.0419973472
C   C201      1.0  0.49880  0.54010  0.72200  1.0000 0.0419973472
C   C202      1.0  0.54010  0.04130  0.22200  1.0000 0.0419973472
C   C203      1.0  0.95870  0.49880  0.22200  1.0000 0.0419973472
C   C204      1.0  0.50120  0.45990  0.22200  1.0000 0.0419973472
C   C205      1.0  0.68370  0.53630  0.51180  1.0000 -0.0515093578
C   C206      1.0  0.46370  0.14740  0.51180  1.0000 -0.0515093578
C   C207      1.0  0.85260  0.31630  0.51180  1.0000 -0.0515093578
C   C208      1.0  0.31630  0.46370  0.01180  1.0000 -0.0515093578
C   C209      1.0  0.53630  0.85260  0.01180  1.0000 -0.0515093578
C   C210      1.0  0.14740  0.68370  0.01180  1.0000 -0.0515093578
C   C211      1.0  0.76540  0.61430  0.46670  1.0000 0.1017214198
C   C212      1.0  0.38570  0.15110  0.46670  1.0000 0.1017214198
C   C213      1.0  0.84890  0.23460  0.46670  1.0000 0.1017214198
C   C214      1.0  0.23460  0.38570  0.96670  1.0000 0.1017214198
C   C215      1.0  0.61430  0.84890  0.96670  1.0000 0.1017214198
C   C216      1.0  0.15110  0.76540  0.96670  1.0000 0.1017214198
C   C217      1.0  0.63420  0.86870  0.74540  1.0000 0.0608916101
C   C218      1.0  0.13130  0.76550  0.74540  1.0000 0.0608916101
C   C219      1.0  0.23450  0.36580  0.74540  1.0000 0.0608916101
C   C220      1.0  0.36580  0.13130  0.24540  1.0000 0.0608916101
C   C221      1.0  0.86870  0.23450  0.24540  1.0000 0.0608916101
C   C222      1.0  0.76550  0.63420  0.24540  1.0000 0.0608916101
C   C223      1.0  0.29550  0.79750  0.36360  1.0000 -0.1411361264
C   C224      1.0  0.20250  0.49800  0.36360  1.0000 -0.1411361264
C   C225      1.0  0.50200  0.70450  0.36360  1.0000 -0.1411361264
C   C226      1.0  0.70450  0.20250  0.86360  1.0000 -0.1411361264
C   C227      1.0  0.79750  0.50200  0.86360  1.0000 -0.1411361264
C   C228      1.0  0.49800  0.29550  0.86360  1.0000 -0.1411361264
C   C229      1.0  0.17770  0.71160  0.39590  1.0000 -0.0905882783
C   C230      1.0  0.28840  0.46610  0.39590  1.0000 -0.0905882783
C   C231      1.0  0.53390  0.82230  0.39590  1.0000 -0.0905882783
C   C232      1.0  0.82230  0.28840  0.89590  1.0000 -0.0905882783
C   C233      1.0  0.71160  0.53390  0.89590  1.0000 -0.0905882783
C   C234      1.0  0.46610  0.17770  0.89590  1.0000 -0.0905882783
C   C235      1.0  0.64640  0.54960  0.48010  1.0000 -0.0806911251
C   C236      1.0  0.45040  0.09680  0.48010  1.0000 -0.0806911251
C   C237      1.0  0.90320  0.35360  0.48010  1.0000 -0.0806911251
C   C238      1.0  0.35360  0.45040  0.98010  1.0000 -0.0806911251
C   C239      1.0  0.54960  0.90320  0.98010  1.0000 -0.0806911251
C   C240      1.0  0.09680  0.64640  0.98010  1.0000 -0.0806911251
C   C241      1.0  0.50390  0.07380  0.67920  1.0000 -0.1708796308
C   C242      1.0  0.92620  0.43010  0.67920  1.0000 -0.1708796308
C   C243      1.0  0.56990  0.49610  0.67920  1.0000 -0.1708796308
C   C244      1.0  0.49610  0.92620  0.17920  1.0000 -0.1708796308
C   C245      1.0  0.07380  0.56990  0.17920  1.0000 -0.1708796308
C   C246      1.0  0.43010  0.50390  0.17920  1.0000 -0.1708796308
C   C247      1.0  0.22370  0.74320  0.35860  1.0000 -0.1119151971
C   C248      1.0  0.25680  0.48050  0.35860  1.0000 -0.1119151971
C   C249      1.0  0.51950  0.77630  0.35860  1.0000 -0.1119151971
C   C250      1.0  0.77630  0.25680  0.85860  1.0000 -0.1119151971
C   C251      1.0  0.74320  0.51950  0.85860  1.0000 -0.1119151971
C   C252      1.0  0.48050  0.22370  0.85860  1.0000 -0.1119151971
C   C253      1.0  0.42570  0.95790  0.79820  1.0000 -0.0806911251
C   C254      1.0  0.04210  0.46780  0.79820  1.0000 -0.0806911251
C   C255      1.0  0.53220  0.57430  0.79820  1.0000 -0.0806911251
C   C256      1.0  0.57430  0.04210  0.29820  1.0000 -0.0806911251
C   C257      1.0  0.95790  0.53220  0.29820  1.0000 -0.0806911251
C   C258      1.0  0.46780  0.42570  0.29820  1.0000 -0.0806911251
C   C259      1.0  0.46930  0.92270  0.68480  1.0000 -0.0284302804
C   C260      1.0  0.07730  0.54660  0.68480  1.0000 -0.0284302804
C   C261      1.0  0.45340  0.53070  0.68480  1.0000 -0.0284302804
C   C262      1.0  0.53070  0.07730  0.18480  1.0000 -0.0284302804
C   C263      1.0  0.92270  0.45340  0.18480  1.0000 -0.0284302804
C   C264      1.0  0.54660  0.46930  0.18480  1.0000 -0.0284302804
C   C265      1.0  0.27830  0.00360  0.53370  1.0000 -0.0905882783
C   C266      1.0  0.99640  0.27470  0.53370  1.0000 -0.0905882783
C   C267      1.0  0.72530  0.72170  0.53370  1.0000 -0.0905882783
C   C268      1.0  0.72170  0.99640  0.03370  1.0000 -0.0905882783
C   C269      1.0  0.00360  0.72530  0.03370  1.0000 -0.0905882783
C   C270      1.0  0.27470  0.27830  0.03370  1.0000 -0.0905882783
C   C271      1.0  0.62340  0.91660  0.67440  1.0000 -0.1292485774
C   C272      1.0  0.08340  0.70680  0.67440  1.0000 -0.1292485774
C   C273      1.0  0.29320  0.37660  0.67440  1.0000 -0.1292485774
C   C274      1.0  0.37660  0.08340  0.17440  1.0000 -0.1292485774
C   C275      1.0  0.91660  0.29320  0.17440  1.0000 -0.1292485774
C   C276      1.0  0.70680  0.62340  0.17440  1.0000 -0.1292485774
C   C277      1.0  0.58780  0.73230  0.13470  1.0000 0.1286552452
C   C278      1.0  0.26770  0.85550  0.13470  1.0000 0.1286552452
C   C279      1.0  0.14450  0.41220  0.13470  1.0000 0.1286552452
C   C280      1.0  0.41220  0.26770  0.63470  1.0000 0.1286552452
C   C281      1.0  0.73230  0.14450  0.63470  1.0000 0.1286552452
C   C282      1.0  0.85550  0.58780  0.63470  1.0000 0.1286552452
C   C283      1.0  0.27520  0.93670  0.53270  1.0000 -0.1292485774
C   C284      1.0  0.06330  0.33850  0.53270  1.0000 -0.1292485774
C   C285      1.0  0.66150  0.72480  0.53270  1.0000 -0.1292485774
C   C286      1.0  0.72480  0.06330  0.03270  1.0000 -0.1292485774
C   C287      1.0  0.93670  0.66150  0.03270  1.0000 -0.1292485774
C   C288      1.0  0.33850  0.27520  0.03270  1.0000 -0.1292485774
C   C289      1.0  0.63890  0.70420  0.29360  1.0000 0.0608916101
C   C290      1.0  0.29580  0.93470  0.29360  1.0000 0.0608916101
C   C291      1.0  0.06530  0.36110  0.29360  1.0000 0.0608916101
C   C292      1.0  0.36110  0.29580  0.79360  1.0000 0.0608916101
C   C293      1.0  0.70420  0.06530  0.79360  1.0000 0.0608916101
C   C294      1.0  0.93470  0.63890  0.79360  1.0000 0.0608916101
C   C295      1.0  0.69870  0.95360  0.67080  1.0000 -0.1018313238
C   C296      1.0  0.04640  0.74510  0.67080  1.0000 -0.1018313238
C   C297      1.0  0.25490  0.30130  0.67080  1.0000 -0.1018313238
C   C298      1.0  0.30130  0.04640  0.17080  1.0000 -0.1018313238
C   C299      1.0  0.95360  0.25490  0.17080  1.0000 -0.1018313238
C   C300      1.0  0.74510  0.69870  0.17080  1.0000 -0.1018313238
C   C301      1.0  0.06820  0.80780  0.53550  1.0000 -0.1411361264
C   C302      1.0  0.19220  0.26040  0.53550  1.0000 -0.1411361264
C   C303      1.0  0.73960  0.93180  0.53550  1.0000 -0.1411361264
C   C304      1.0  0.93180  0.19220  0.03550  1.0000 -0.1411361264
C   C305      1.0  0.80780  0.73960  0.03550  1.0000 -0.1411361264
C   C306      1.0  0.26040  0.06820  0.03550  1.0000 -0.1411361264
C   C307      1.0  0.44740  0.03380  0.79600  1.0000 -0.1018313238
C   C308      1.0  0.96620  0.41360  0.79600  1.0000 -0.1018313238
C   C309      1.0  0.58640  0.55260  0.79600  1.0000 -0.1018313238
C   C310      1.0  0.55260  0.96620  0.29600  1.0000 -0.1018313238
C   C311      1.0  0.03380  0.58640  0.29600  1.0000 -0.1018313238
C   C312      1.0  0.41360  0.44740  0.29600  1.0000 -0.1018313238
C   C313      1.0  0.13780  0.87380  0.53370  1.0000 0.0502543855
C   C314      1.0  0.12620  0.26400  0.53370  1.0000 0.0502543855
C   C315      1.0  0.73600  0.86220  0.53370  1.0000 0.0502543855
C   C316      1.0  0.86220  0.12620  0.03370  1.0000 0.0502543855
C   C317      1.0  0.87380  0.73600  0.03370  1.0000 0.0502543855
C   C318      1.0  0.26400  0.13780  0.03370  1.0000 0.0502543855
C   C319      1.0  0.47300  0.07120  0.75800  1.0000 -0.1608995839
C   C320      1.0  0.92880  0.40180  0.75800  1.0000 -0.1608995839
C   C321      1.0  0.59820  0.52700  0.75800  1.0000 -0.1608995839
C   C322      1.0  0.52700  0.92880  0.25800  1.0000 -0.1608995839
C   C323      1.0  0.07120  0.59820  0.25800  1.0000 -0.1608995839
C   C324      1.0  0.40180  0.47300  0.25800  1.0000 -0.1608995839
C   C325      1.0  0.65920  0.80330  0.24340  1.0000 -0.1764239928
C   C326      1.0  0.19670  0.85590  0.24340  1.0000 -0.1764239928
C   C327      1.0  0.14410  0.34080  0.24340  1.0000 -0.1764239928
C   C328      1.0  0.34080  0.19670  0.74340  1.0000 -0.1764239928
C   C329      1.0  0.80330  0.14410  0.74340  1.0000 -0.1764239928
C   C330      1.0  0.85590  0.65920  0.74340  1.0000 -0.1764239928
C   C331      1.0  0.67100  0.77850  0.28360  1.0000 -0.1292485774
C   C332      1.0  0.22150  0.89250  0.28360  1.0000 -0.1292485774
C   C333      1.0  0.10750  0.32900  0.28360  1.0000 -0.1292485774
C   C334      1.0  0.32900  0.22150  0.78360  1.0000 -0.1292485774
C   C335      1.0  0.77850  0.10750  0.78360  1.0000 -0.1292485774
C   C336      1.0  0.89250  0.67100  0.78360  1.0000 -0.1292485774
C   C337      1.0  0.74460  0.95070  0.70290  1.0000 -0.1018313238
C   C338      1.0  0.04930  0.79390  0.70290  1.0000 -0.1018313238
C   C339      1.0  0.20610  0.25540  0.70290  1.0000 -0.1018313238
C   C340      1.0  0.25540  0.04930  0.20290  1.0000 -0.1018313238
C   C341      1.0  0.95070  0.20610  0.20290  1.0000 -0.1018313238
C   C342      1.0  0.79390  0.74460  0.20290  1.0000 -0.1018313238
C   C343      1.0  0.57850  0.67730  0.22360  1.0000 -0.1525082847
C   C344      1.0  0.32270  0.90120  0.22360  1.0000 -0.1525082847
C   C345      1.0  0.09880  0.42150  0.22360  1.0000 -0.1525082847
C   C346      1.0  0.42150  0.32270  0.72360  1.0000 -0.1525082847
C   C347      1.0  0.67730  0.09880  0.72360  1.0000 -0.1525082847
C   C348      1.0  0.90120  0.57850  0.72360  1.0000 -0.1525082847
C   C349      1.0  0.59300  0.83550  0.11690  1.0000 -0.0150913427
C   C350      1.0  0.16450  0.75750  0.11690  1.0000 -0.0150913427
C   C351      1.0  0.24250  0.40700  0.11690  1.0000 -0.0150913427
C   C352      1.0  0.40700  0.16450  0.61690  1.0000 -0.0147696387
C   C353      1.0  0.83550  0.24250  0.61690  1.0000 -0.0147696387
C   C354      1.0  0.75750  0.59300  0.61690  1.0000 -0.0147696387
C   C355      1.0  0.71370  0.91030  0.74070  1.0000 -0.1525082847
C   C356      1.0  0.08970  0.80340  0.74070  1.0000 -0.1525082847
C   C357      1.0  0.19660  0.28630  0.74070  1.0000 -0.1525082847
C   C358      1.0  0.28630  0.08970  0.24070  1.0000 -0.1525082847
C   C359      1.0  0.91030  0.19660  0.24070  1.0000 -0.1525082847
C   C360      1.0  0.80340  0.71370  0.24070  1.0000 -0.1525082847
C   C361      1.0  0.14510  0.94680  0.53460  1.0000 -0.1411361264
C   C362      1.0  0.05320  0.19830  0.53460  1.0000 -0.1411361264
C   C363      1.0  0.80170  0.85490  0.53460  1.0000 -0.1411361264
C   C364      1.0  0.85490  0.05320  0.03460  1.0000 -0.1411361264
C   C365      1.0  0.94680  0.80170  0.03460  1.0000 -0.1411361264
C   C366      1.0  0.19830  0.14510  0.03460  1.0000 -0.1411361264
C   C367      1.0  0.21250  0.00990  0.53330  1.0000 -0.1119151971
C   C368      1.0  0.99010  0.20260  0.53330  1.0000 -0.1119151971
C   C369      1.0  0.79740  0.78750  0.53330  1.0000 -0.1119151971
C   C370      1.0  0.78750  0.99010  0.03330  1.0000 -0.1119151971
C   C371      1.0  0.00990  0.79740  0.03330  1.0000 -0.1119151971
C   C372      1.0  0.20260  0.21250  0.03330  1.0000 -0.1119151971
C   C373      1.0  0.60970  0.84280  0.15920  1.0000 -0.1222135646
C   C374      1.0  0.15720  0.76690  0.15920  1.0000 -0.1222135646
C   C375      1.0  0.23310  0.39030  0.15920  1.0000 -0.1222135646
C   C376      1.0  0.39030  0.15720  0.65920  1.0000 -0.1222135646
C   C377      1.0  0.84280  0.23310  0.65920  1.0000 -0.1222135646
C   C378      1.0  0.76690  0.60970  0.65920  1.0000 -0.1222135646
C   C379      1.0  0.59130  0.65400  0.26370  1.0000 -0.1292485774
C   C380      1.0  0.34600  0.93730  0.26370  1.0000 -0.1292485774
C   C381      1.0  0.06270  0.40870  0.26370  1.0000 -0.1292485774
C   C382      1.0  0.40870  0.34600  0.76370  1.0000 -0.1292485774
C   C383      1.0  0.65400  0.06270  0.76370  1.0000 -0.1292485774
C   C384      1.0  0.93730  0.59130  0.76370  1.0000 -0.1292485774
N   N1        1.0  0.75260  0.33333  0.42620  1.0000 -0.7786135337
N   N2        1.0  0.66667  0.41927  0.42620  1.0000 -0.7786135337
N   N3        1.0  0.58073  0.24740  0.42620  1.0000 -0.7786135337
N   N4        1.0  0.24740  0.66667  0.92620  1.0000 -0.7786135337
N   N5        1.0  0.33333  0.58073  0.92620  1.0000 -0.7786135337
N   N6        1.0  0.41927  0.75260  0.92620  1.0000 -0.7786135337
N   N7        1.0  0.66667  0.33333  0.50760  1.0000 -0.7786135337
N   N8        1.0  0.33333  0.66667  0.00760  1.0000 -0.7786135337
N   N9        1.0  0.75910  0.57860  0.50310  1.0000 -0.286419194
N   N10       1.0  0.42140  0.18050  0.50310  1.0000 -0.286419194
N   N11       1.0  0.81950  0.24090  0.50310  1.0000 -0.286419194
N   N12       1.0  0.24090  0.42140  0.00310  1.0000 -0.286419194
N   N13       1.0  0.57860  0.81950  0.00310  1.0000 -0.286419194
N   N14       1.0  0.18050  0.75910  0.00310  1.0000 -0.286419194
N   N15       1.0  0.57960  0.76700  0.10080  1.0000 -0.286419194
N   N16       1.0  0.23300  0.81260  0.10080  1.0000 -0.286419194
N   N17       1.0  0.18740  0.42040  0.10080  1.0000 -0.286419194
N   N18       1.0  0.42040  0.23300  0.60080  1.0000 -0.286419194
N   N19       1.0  0.76700  0.18740  0.60080  1.0000 -0.286419194
N   N20       1.0  0.81260  0.57960  0.60080  1.0000 -0.286419194
N   N21       1.0  0.69810  0.59870  0.45150  1.0000 0.0044463223
N   N22       1.0  0.40130  0.09940  0.45150  1.0000 0.0044463223
N   N23       1.0  0.90060  0.30190  0.45150  1.0000 0.0044463223
N   N24       1.0  0.30190  0.40130  0.95150  1.0000 0.0044463223
N   N25       1.0  0.59870  0.90060  0.95150  1.0000 0.0044463223
N   N26       1.0  0.09940  0.69810  0.95150  1.0000 0.0044463223
N   N27       1.0  0.83960  0.48590  0.51510  1.0000 -0.80045652
N   N28       1.0  0.51410  0.35370  0.51510  1.0000 -0.80045652
N   N29       1.0  0.64630  0.16040  0.51510  1.0000 -0.80045652
N   N30       1.0  0.16040  0.51410  0.01510  1.0000 -0.80045652
N   N31       1.0  0.48590  0.64630  0.01510  1.0000 -0.80045652
N   N32       1.0  0.35370  0.83960  0.01510  1.0000 -0.80045652
N   N33       1.0  0.59930  0.77110  0.17120  1.0000 0.0057475033
N   N34       1.0  0.22890  0.82820  0.17120  1.0000 0.0057475033
N   N35       1.0  0.17180  0.40070  0.17120  1.0000 0.0057475033
N   N36       1.0  0.40070  0.22890  0.67120  1.0000 0.0057475033
N   N37       1.0  0.77110  0.17180  0.67120  1.0000 0.0057475033
N   N38       1.0  0.82820  0.59930  0.67120  1.0000 0.0057475033
N   N39       1.0  0.66667  0.33333  0.11900  1.0000 -0.6819564661
N   N40       1.0  0.33333  0.66667  0.61900  1.0000 -0.6819564661
O   O1        1.0  0.85410  0.48560  0.41890  1.0000 -0.6704409083
O   O2        1.0  0.51440  0.36850  0.41890  1.0000 -0.6704409083
O   O3        1.0  0.63150  0.14590  0.41890  1.0000 -0.6704409083
O   O4        1.0  0.14590  0.51440  0.91890  1.0000 -0.6704409083
O   O5        1.0  0.48560  0.63150  0.91890  1.0000 -0.6704409083
O   O6        1.0  0.36850  0.85410  0.91890  1.0000 -0.6704409083
O   O7        1.0  0.51650  0.04430  0.56462  1.0000 -0.6266242392
O   O8        1.0  0.95570  0.47220  0.56462  1.0000 -0.6266242392
O   O9        1.0  0.52780  0.48350  0.56462  1.0000 -0.6266242392
O   O10       1.0  0.48350  0.95570  0.06462  1.0000 -0.6266242392
O   O11       1.0  0.04430  0.52780  0.06462  1.0000 -0.6266242392
O   O12       1.0  0.47220  0.51650  0.06462  1.0000 -0.6266242392
O   O13       1.0  0.12370  0.66610  0.53799  1.0000 -0.6192701271
O   O14       1.0  0.33390  0.45760  0.53799  1.0000 -0.6192701271
O   O15       1.0  0.54240  0.87630  0.53799  1.0000 -0.6192701271
O   O16       1.0  0.87630  0.33390  0.03799  1.0000 -0.6192701271
O   O17       1.0  0.66610  0.54240  0.03799  1.0000 -0.6192701271
O   O18       1.0  0.45760  0.12370  0.03799  1.0000 -0.6192701271
O   O19       1.0  0.54480  0.99340  0.48969  1.0000 -0.6266242392
O   O20       1.0  0.00660  0.55140  0.48969  1.0000 -0.6266242392
O   O21       1.0  0.44860  0.45520  0.48969  1.0000 -0.6266242392
O   O22       1.0  0.45520  0.00660  0.98969  1.0000 -0.6266242392
O   O23       1.0  0.99340  0.44860  0.98969  1.0000 -0.6266242392
O   O24       1.0  0.55140  0.54480  0.98969  1.0000 -0.6266242392
O   O25       1.0  0.49560  0.92710  0.60952  1.0000 -0.6192701271
O   O26       1.0  0.07290  0.56850  0.60952  1.0000 -0.6192701271
O   O27       1.0  0.43150  0.50440  0.60952  1.0000 -0.6192701271
O   O28       1.0  0.50440  0.07290  0.10952  1.0000 -0.6192701271
O   O29       1.0  0.92710  0.43150  0.10952  1.0000 -0.6192701271
O   O30       1.0  0.56850  0.49560  0.10952  1.0000 -0.6192701271
O   O31       1.0  0.41950  0.89540  0.52848  1.0000 -0.6391573708
O   O32       1.0  0.10460  0.52410  0.52848  1.0000 -0.6391573708
O   O33       1.0  0.47590  0.58050  0.52848  1.0000 -0.6391573708
O   O34       1.0  0.58050  0.10460  0.02848  1.0000 -0.6391573708
O   O35       1.0  0.89540  0.47590  0.02848  1.0000 -0.6391573708
O   O36       1.0  0.52410  0.41950  0.02848  1.0000 -0.6391573708
O   O37       1.0  0.98160  0.61270  0.56030  1.0000 -0.6266242392
O   O38       1.0  0.38730  0.36890  0.56030  1.0000 -0.6266242392
O   O39       1.0  0.63110  0.01840  0.56030  1.0000 -0.6266242392
O   O40       1.0  0.01840  0.38730  0.06030  1.0000 -0.6266242392
O   O41       1.0  0.61270  0.63110  0.06030  1.0000 -0.6266242392
O   O42       1.0  0.36890  0.98160  0.06030  1.0000 -0.6266242392
O   O43       1.0  0.42080  0.69460  0.83156  1.0000 -0.6391573708
O   O44       1.0  0.30540  0.72620  0.83156  1.0000 -0.6391573708
O   O45       1.0  0.27380  0.57920  0.83156  1.0000 -0.6391573708
O   O46       1.0  0.57920  0.30540  0.33156  1.0000 -0.6391573708
O   O47       1.0  0.69460  0.27380  0.33156  1.0000 -0.6391573708
O   O48       1.0  0.72620  0.42080  0.33156  1.0000 -0.6391573708
O   O49       1.0  0.40270  0.74880  0.75840  1.0000 -0.6105492076
O   O50       1.0  0.25120  0.65390  0.75840  1.0000 -0.6105492076
O   O51       1.0  0.34610  0.59730  0.75840  1.0000 -0.6105492076
O   O52       1.0  0.59730  0.25120  0.25840  1.0000 -0.6105492076
O   O53       1.0  0.74880  0.34610  0.25840  1.0000 -0.6105492076
O   O54       1.0  0.65390  0.40270  0.25840  1.0000 -0.6105492076
O   O55       1.0  0.93120  0.67380  0.52980  1.0000 -0.5117008978
O   O56       1.0  0.32620  0.25740  0.52980  1.0000 -0.5117008978
O   O57       1.0  0.74260  0.06880  0.52980  1.0000 -0.5117008978
O   O58       1.0  0.06880  0.32620  0.02980  1.0000 -0.5117008978
O   O59       1.0  0.67380  0.74260  0.02980  1.0000 -0.5117008978
O   O60       1.0  0.25740  0.93120  0.02980  1.0000 -0.5117008978
O   O61       1.0  0.54770  0.99460  0.41774  1.0000 -0.5117008978
O   O62       1.0  0.00540  0.55310  0.41774  1.0000 -0.5117008978
O   O63       1.0  0.44690  0.45230  0.41774  1.0000 -0.5117008978
O   O64       1.0  0.45230  0.00540  0.91774  1.0000 -0.5117008978
O   O65       1.0  0.99460  0.44690  0.91774  1.0000 -0.5117008978
O   O66       1.0  0.55310  0.54770  0.91774  1.0000 -0.5117008978
O   O67       1.0  0.55820  0.14930  0.60100  1.0000 -0.5117008978
O   O68       1.0  0.85070  0.40890  0.60100  1.0000 -0.5117008978
O   O69       1.0  0.59110  0.44180  0.60100  1.0000 -0.5117008978
O   O70       1.0  0.44180  0.85070  0.10100  1.0000 -0.5117008978
O   O71       1.0  0.14930  0.59110  0.10100  1.0000 -0.5117008978
O   O72       1.0  0.40890  0.55820  0.10100  1.0000 -0.5117008978
O   O73       1.0  0.53600  0.74190  0.85710  1.0000 -0.5227493803
O   O74       1.0  0.25810  0.79410  0.85710  1.0000 -0.5227493803
O   O75       1.0  0.20590  0.46400  0.85710  1.0000 -0.5227493803
O   O76       1.0  0.46400  0.25810  0.35710  1.0000 -0.5227493803
O   O77       1.0  0.74190  0.20590  0.35710  1.0000 -0.5227493803
O   O78       1.0  0.79410  0.53600  0.35710  1.0000 -0.5227493803
