# DDEC6 charges by PACMAN v1.1 (https://github.com/mtap-research/PACMAN-charge/)
data_2023[ZnTi][nan]3[ION]1
_chemical_formula_sum              "Ti8 Zn8 H308 C384 N50 O78"
_cell_length_a       20.6272
_cell_length_b       20.6272
_cell_length_c       30.7283
_cell_angle_alpha    90
_cell_angle_beta     90
_cell_angle_gamma    120

_symmetry_space_group_name_H-M    "P 1"
_symmetry_Int_Tables_number       1

loop_
  _symmetry_equiv_pos_as_xyz
  'x, y, z'

loop_
  _atom_site_type_symbol
  _atom_site_label
  _atom_site_symmetry_multiplicity
  _atom_site_fract_x
  _atom_site_fract_y
  _atom_site_fract_z
  _atom_site_occupancy
  _atom_site_charge
Ti  Ti1       1.0  0.43424  0.94889  0.37992  1.0000 1.8893993395
Ti  Ti2       1.0  0.05111  0.48535  0.37992  1.0000 1.8893993395
Ti  Ti3       1.0  0.51465  0.56576  0.37992  1.0000 1.8893993395
Ti  Ti4       1.0  0.56576  0.05111  0.87992  1.0000 1.8893993395
Ti  Ti5       1.0  0.94889  0.51465  0.87992  1.0000 1.8893993395
Ti  Ti6       1.0  0.48535  0.43424  0.87992  1.0000 1.8893993395
Ti  Ti7       1.0  0.33333  0.66667  0.13881  1.0000 1.9019194541
Ti  Ti8       1.0  0.66667  0.33333  0.63881  1.0000 1.9019194541
Zn  Zn1       1.0  0.66667  0.33333  0.48616  1.0000 0.5447516141
Zn  Zn2       1.0  0.33333  0.66667  0.98616  1.0000 0.5457794365
Zn  Zn3       1.0  0.73563  0.57101  0.39197  1.0000 0.7480832634
Zn  Zn4       1.0  0.42899  0.16462  0.39197  1.0000 0.7480832634
Zn  Zn5       1.0  0.83538  0.26437  0.39197  1.0000 0.7480832634
Zn  Zn6       1.0  0.26437  0.42899  0.89197  1.0000 0.7480832634
Zn  Zn7       1.0  0.57101  0.83538  0.89197  1.0000 0.7480832634
Zn  Zn8       1.0  0.16462  0.73563  0.89197  1.0000 0.7480832634
H   H1        1.0  0.78945  0.40836  0.51789  1.0000 0.3070212898
H   H2        1.0  0.59164  0.38109  0.51789  1.0000 0.3070212898
H   H3        1.0  0.61891  0.21055  0.51789  1.0000 0.3070212898
H   H4        1.0  0.21055  0.59164  0.01789  1.0000 0.3070212898
H   H5        1.0  0.40836  0.61891  0.01789  1.0000 0.3070212898
H   H6        1.0  0.38109  0.78945  0.01789  1.0000 0.3070212898
H   H7        1.0  0.78050  0.45328  0.48460  1.0000 0.2391732016
H   H8        1.0  0.54672  0.32722  0.48460  1.0000 0.2391732016
H   H9        1.0  0.67278  0.21950  0.48460  1.0000 0.2391732016
H   H10       1.0  0.21950  0.54672  0.98460  1.0000 0.2391732016
H   H11       1.0  0.45328  0.67278  0.98460  1.0000 0.2391732016
H   H12       1.0  0.32722  0.78050  0.98460  1.0000 0.2391732016
H   H13       1.0  0.74698  0.44555  0.52725  1.0000 0.298525502
H   H14       1.0  0.55445  0.30143  0.52725  1.0000 0.298525502
H   H15       1.0  0.69857  0.25302  0.52725  1.0000 0.298525502
H   H16       1.0  0.25302  0.55445  0.02725  1.0000 0.298525502
H   H17       1.0  0.44555  0.69857  0.02725  1.0000 0.298525502
H   H18       1.0  0.30143  0.74698  0.02725  1.0000 0.298525502
H   H19       1.0  0.60852  0.51011  0.52261  1.0000 0.3204665628
H   H20       1.0  0.48989  0.09841  0.52261  1.0000 0.3204665628
H   H21       1.0  0.90159  0.39148  0.52261  1.0000 0.3204665628
H   H22       1.0  0.39148  0.48989  0.02261  1.0000 0.3204665628
H   H23       1.0  0.51011  0.90159  0.02261  1.0000 0.3204665628
H   H24       1.0  0.09841  0.60852  0.02261  1.0000 0.3204665628
H   H25       1.0  0.67795  0.52022  0.52589  1.0000 0.3204665628
H   H26       1.0  0.47978  0.15773  0.52589  1.0000 0.3204665628
H   H27       1.0  0.84227  0.32205  0.52589  1.0000 0.3204665628
H   H28       1.0  0.32205  0.47978  0.02589  1.0000 0.3204665628
H   H29       1.0  0.52022  0.84227  0.02589  1.0000 0.3204665628
H   H30       1.0  0.15773  0.67795  0.02589  1.0000 0.3204665628
H   H31       1.0  0.48696  0.73852  0.40134  1.0000 0.1190456631
H   H32       1.0  0.26148  0.74844  0.40134  1.0000 0.1190456631
H   H33       1.0  0.25156  0.51304  0.40134  1.0000 0.1190456631
H   H34       1.0  0.51304  0.26148  0.90134  1.0000 0.1190456631
H   H35       1.0  0.73852  0.25156  0.90134  1.0000 0.1190456631
H   H36       1.0  0.74844  0.48696  0.90134  1.0000 0.1190456631
H   H37       1.0  0.51886  0.81721  0.37982  1.0000 0.1127220198
H   H38       1.0  0.18279  0.70165  0.37982  1.0000 0.1127220198
H   H39       1.0  0.29835  0.48114  0.37982  1.0000 0.1127220198
H   H40       1.0  0.48114  0.18279  0.87982  1.0000 0.1127220198
H   H41       1.0  0.81721  0.29835  0.87982  1.0000 0.1127220198
H   H42       1.0  0.70165  0.51886  0.87982  1.0000 0.1127220198
H   H43       1.0  0.37066  0.82963  0.27219  1.0000 0.1028688864
H   H44       1.0  0.17037  0.54103  0.27219  1.0000 0.1028688864
H   H45       1.0  0.45897  0.62934  0.27219  1.0000 0.1028688864
H   H46       1.0  0.62934  0.17037  0.77219  1.0000 0.1028688864
H   H47       1.0  0.82963  0.45897  0.77219  1.0000 0.1028688864
H   H48       1.0  0.54103  0.37066  0.77219  1.0000 0.1028688864
H   H49       1.0  0.41061  0.81337  0.23385  1.0000 0.1190456631
H   H50       1.0  0.18663  0.59724  0.23385  1.0000 0.1190456631
H   H51       1.0  0.40276  0.58939  0.23385  1.0000 0.1190456631
H   H52       1.0  0.58939  0.18663  0.73385  1.0000 0.1190456631
H   H53       1.0  0.81337  0.40276  0.73385  1.0000 0.1190456631
H   H54       1.0  0.59724  0.41061  0.73385  1.0000 0.1190456631
H   H55       1.0  0.64161  0.49493  0.44470  1.0000 0.3070212898
H   H56       1.0  0.50507  0.14668  0.44470  1.0000 0.3070212898
H   H57       1.0  0.85332  0.35839  0.44470  1.0000 0.3070212898
H   H58       1.0  0.35839  0.50507  0.94470  1.0000 0.3070212898
H   H59       1.0  0.49493  0.85332  0.94470  1.0000 0.3070212898
H   H60       1.0  0.14668  0.64161  0.94470  1.0000 0.3070212898
H   H61       1.0  0.60421  0.48177  0.40288  1.0000 0.2945981122
H   H62       1.0  0.51823  0.12244  0.40288  1.0000 0.2945981122
H   H63       1.0  0.87756  0.39579  0.40288  1.0000 0.2945981122
H   H64       1.0  0.39579  0.51823  0.90288  1.0000 0.2945981122
H   H65       1.0  0.48177  0.87756  0.90288  1.0000 0.2945981122
H   H66       1.0  0.12244  0.60421  0.90288  1.0000 0.2945981122
H   H67       1.0  0.64608  0.44442  0.41346  1.0000 0.2563307978
H   H68       1.0  0.55558  0.20166  0.41346  1.0000 0.2563307978
H   H69       1.0  0.79834  0.35392  0.41346  1.0000 0.2563307978
H   H70       1.0  0.35392  0.55558  0.91346  1.0000 0.2563307978
H   H71       1.0  0.44442  0.79834  0.91346  1.0000 0.2563307978
H   H72       1.0  0.20166  0.64608  0.91346  1.0000 0.2563307978
H   H73       1.0  0.46725  0.89928  0.54489  1.0000 0.1127220198
H   H74       1.0  0.10072  0.56797  0.54489  1.0000 0.1127220198
H   H75       1.0  0.43203  0.53275  0.54489  1.0000 0.1127220198
H   H76       1.0  0.53275  0.10072  0.04489  1.0000 0.1127220198
H   H77       1.0  0.89928  0.43203  0.04489  1.0000 0.1127220198
H   H78       1.0  0.56797  0.46725  0.04489  1.0000 0.1127220198
H   H79       1.0  0.45296  0.87632  0.16423  1.0000 0.1297853544
H   H80       1.0  0.12368  0.57664  0.16423  1.0000 0.1297853544
H   H81       1.0  0.42336  0.54704  0.16423  1.0000 0.1297853544
H   H82       1.0  0.54704  0.12368  0.66423  1.0000 0.1297853544
H   H83       1.0  0.87632  0.42336  0.66423  1.0000 0.1297853544
H   H84       1.0  0.57664  0.45296  0.66423  1.0000 0.1297853544
H   H85       1.0  0.85057  0.51104  0.39615  1.0000 0.1297853544
H   H86       1.0  0.48896  0.33953  0.39615  1.0000 0.1297853544
H   H87       1.0  0.66047  0.14943  0.39615  1.0000 0.1297853544
H   H88       1.0  0.14943  0.48896  0.89615  1.0000 0.1297853544
H   H89       1.0  0.51104  0.66047  0.89615  1.0000 0.1297853544
H   H90       1.0  0.33953  0.85057  0.89615  1.0000 0.1297853544
H   H91       1.0  0.49139  0.81841  0.59164  1.0000 0.1127220198
H   H92       1.0  0.18159  0.67298  0.59164  1.0000 0.1127220198
H   H93       1.0  0.32702  0.50861  0.59164  1.0000 0.1127220198
H   H94       1.0  0.50861  0.18159  0.09164  1.0000 0.1127220198
H   H95       1.0  0.81841  0.32702  0.09164  1.0000 0.1127220198
H   H96       1.0  0.67298  0.49139  0.09164  1.0000 0.1127220198
H   H97       1.0  0.82989  0.64365  0.48017  1.0000 0.1297853544
H   H98       1.0  0.35635  0.18624  0.48017  1.0000 0.1297853544
H   H99       1.0  0.81376  0.17011  0.48017  1.0000 0.1297853544
H   H100      1.0  0.17011  0.35635  0.98017  1.0000 0.1297853544
H   H101      1.0  0.64365  0.81376  0.98017  1.0000 0.1297853544
H   H102      1.0  0.18624  0.82989  0.98017  1.0000 0.1297853544
H   H103      1.0  0.10662  0.68591  0.79739  1.0000 0.1190456631
H   H104      1.0  0.31409  0.42071  0.79739  1.0000 0.1190456631
H   H105      1.0  0.57929  0.89338  0.79739  1.0000 0.1190456631
H   H106      1.0  0.89338  0.31409  0.29739  1.0000 0.1190456631
H   H107      1.0  0.68591  0.57929  0.29739  1.0000 0.1190456631
H   H108      1.0  0.42071  0.10662  0.29739  1.0000 0.1190456631
H   H109      1.0  0.94425  0.54174  0.45352  1.0000 0.1385912054
H   H110      1.0  0.45826  0.40251  0.45352  1.0000 0.1385912054
H   H111      1.0  0.59749  0.05575  0.45352  1.0000 0.1385912054
H   H112      1.0  0.05575  0.45826  0.95352  1.0000 0.1385912054
H   H113      1.0  0.54174  0.59749  0.95352  1.0000 0.1385912054
H   H114      1.0  0.40251  0.94425  0.95352  1.0000 0.1385912054
H   H115      1.0  0.52340  0.72641  0.59948  1.0000 0.1028688864
H   H116      1.0  0.27359  0.79699  0.59948  1.0000 0.1028688864
H   H117      1.0  0.20301  0.47660  0.59948  1.0000 0.1028688864
H   H118      1.0  0.47660  0.27359  0.09948  1.0000 0.1028688864
H   H119      1.0  0.72641  0.20301  0.09948  1.0000 0.1028688864
H   H120      1.0  0.79699  0.52340  0.09948  1.0000 0.1028688864
H   H121      1.0  0.54721  0.67535  0.53834  1.0000 0.1127220198
H   H122      1.0  0.32465  0.87186  0.53834  1.0000 0.1127220198
H   H123      1.0  0.12814  0.45279  0.53834  1.0000 0.1127220198
H   H124      1.0  0.45279  0.32465  0.03834  1.0000 0.1127220198
H   H125      1.0  0.67535  0.12814  0.03834  1.0000 0.1127220198
H   H126      1.0  0.87186  0.54721  0.03834  1.0000 0.1127220198
H   H127      1.0  0.60470  0.12723  0.25296  1.0000 0.1127220198
H   H128      1.0  0.87277  0.47747  0.25296  1.0000 0.1127220198
H   H129      1.0  0.52253  0.39530  0.25296  1.0000 0.1127220198
H   H130      1.0  0.39530  0.87277  0.75296  1.0000 0.1127220198
H   H131      1.0  0.12723  0.52253  0.75296  1.0000 0.1127220198
H   H132      1.0  0.47747  0.60470  0.75296  1.0000 0.1127220198
H   H133      1.0  0.52651  0.93784  0.10559  1.0000 0.1190456631
H   H134      1.0  0.06216  0.58867  0.10559  1.0000 0.1190456631
H   H135      1.0  0.41133  0.47349  0.10559  1.0000 0.1190456631
H   H136      1.0  0.47349  0.06216  0.60559  1.0000 0.1190456631
H   H137      1.0  0.93784  0.41133  0.60559  1.0000 0.1190456631
H   H138      1.0  0.58867  0.52651  0.60559  1.0000 0.1190456631
H   H139      1.0  0.53977  0.71440  0.46985  1.0000 0.1190456631
H   H140      1.0  0.28560  0.82537  0.46985  1.0000 0.1190456631
H   H141      1.0  0.17463  0.46023  0.46985  1.0000 0.1190456631
H   H142      1.0  0.46023  0.28560  0.96985  1.0000 0.1190456631
H   H143      1.0  0.71440  0.17463  0.96985  1.0000 0.1190456631
H   H144      1.0  0.82537  0.53977  0.96985  1.0000 0.1190456631
H   H145      1.0  0.92430  0.53041  0.54022  1.0000 0.1385912054
H   H146      1.0  0.46959  0.39389  0.54022  1.0000 0.1385912054
H   H147      1.0  0.60611  0.07570  0.54022  1.0000 0.1385912054
H   H148      1.0  0.07570  0.46959  0.04022  1.0000 0.1385912054
H   H149      1.0  0.53041  0.60611  0.04022  1.0000 0.1385912054
H   H150      1.0  0.39389  0.92430  0.04022  1.0000 0.1385912054
H   H151      1.0  0.20160  0.83170  0.12506  1.0000 0.1190456631
H   H152      1.0  0.16830  0.36990  0.12506  1.0000 0.1190456631
H   H153      1.0  0.63010  0.79840  0.12506  1.0000 0.1190456631
H   H154      1.0  0.79840  0.16830  0.62506  1.0000 0.1190456631
H   H155      1.0  0.83170  0.63010  0.62506  1.0000 0.1190456631
H   H156      1.0  0.36990  0.20160  0.62506  1.0000 0.1190456631
H   H157      1.0  0.78649  0.80700  0.39683  1.0000 0.1190456631
H   H158      1.0  0.19300  0.97949  0.39683  1.0000 0.1190456631
H   H159      1.0  0.02051  0.21351  0.39683  1.0000 0.1190456631
H   H160      1.0  0.21351  0.19300  0.89683  1.0000 0.1190456631
H   H161      1.0  0.80700  0.02051  0.89683  1.0000 0.1190456631
H   H162      1.0  0.97949  0.78649  0.89683  1.0000 0.1190456631
H   H163      1.0  0.72967  0.04635  0.40220  1.0000 0.1028688864
H   H164      1.0  0.95365  0.68332  0.40220  1.0000 0.1028688864
H   H165      1.0  0.31668  0.27033  0.40220  1.0000 0.1028688864
H   H166      1.0  0.27033  0.95365  0.90220  1.0000 0.1028688864
H   H167      1.0  0.04635  0.31668  0.90220  1.0000 0.1028688864
H   H168      1.0  0.68332  0.72967  0.90220  1.0000 0.1028688864
H   H169      1.0  0.32856  0.91777  0.27915  1.0000 0.1297853544
H   H170      1.0  0.08223  0.41079  0.27915  1.0000 0.1297853544
H   H171      1.0  0.58921  0.67144  0.27915  1.0000 0.1297853544
H   H172      1.0  0.67144  0.08223  0.77915  1.0000 0.1297853544
H   H173      1.0  0.91777  0.58921  0.77915  1.0000 0.1297853544
H   H174      1.0  0.41079  0.32856  0.77915  1.0000 0.1297853544
H   H175      1.0  0.63425  0.12895  0.17422  1.0000 0.1127220198
H   H176      1.0  0.87105  0.50530  0.17422  1.0000 0.1127220198
H   H177      1.0  0.49470  0.36575  0.17422  1.0000 0.1127220198
H   H178      1.0  0.36575  0.87105  0.67422  1.0000 0.1127220198
H   H179      1.0  0.12895  0.49470  0.67422  1.0000 0.1127220198
H   H180      1.0  0.50530  0.63425  0.67422  1.0000 0.1127220198
H   H181      1.0  0.18458  0.85634  0.69331  1.0000 0.1297853544
H   H182      1.0  0.14366  0.32824  0.69331  1.0000 0.1297853544
H   H183      1.0  0.67176  0.81542  0.69331  1.0000 0.1297853544
H   H184      1.0  0.81542  0.14366  0.19331  1.0000 0.1297853544
H   H185      1.0  0.85634  0.67176  0.19331  1.0000 0.1297853544
H   H186      1.0  0.32824  0.18458  0.19331  1.0000 0.1297853544
H   H187      1.0  0.26322  0.98076  0.28729  1.0000 0.1127220198
H   H188      1.0  0.01924  0.28246  0.28729  1.0000 0.1127220198
H   H189      1.0  0.71754  0.73678  0.28729  1.0000 0.1127220198
H   H190      1.0  0.73678  0.01924  0.78729  1.0000 0.1127220198
H   H191      1.0  0.98076  0.71754  0.78729  1.0000 0.1127220198
H   H192      1.0  0.28246  0.26322  0.78729  1.0000 0.1127220198
H   H193      1.0  0.61365  0.06872  0.11016  1.0000 0.1127220198
H   H194      1.0  0.93128  0.54493  0.11016  1.0000 0.1127220198
H   H195      1.0  0.45507  0.38635  0.11016  1.0000 0.1127220198
H   H196      1.0  0.38635  0.93128  0.61016  1.0000 0.1127220198
H   H197      1.0  0.06872  0.45507  0.61016  1.0000 0.1127220198
H   H198      1.0  0.54493  0.61365  0.61016  1.0000 0.1127220198
H   H199      1.0  0.12784  0.81767  0.62531  1.0000 0.1190456631
H   H200      1.0  0.18233  0.31017  0.62531  1.0000 0.1190456631
H   H201      1.0  0.68983  0.87216  0.62531  1.0000 0.1190456631
H   H202      1.0  0.87216  0.18233  0.12531  1.0000 0.1127220198
H   H203      1.0  0.81767  0.68983  0.12531  1.0000 0.1127220198
H   H204      1.0  0.31017  0.12784  0.12531  1.0000 0.1127220198
H   H205      1.0  0.62117  0.93539  0.40314  1.0000 0.1190456631
H   H206      1.0  0.06461  0.68578  0.40314  1.0000 0.1190456631
H   H207      1.0  0.31422  0.37883  0.40314  1.0000 0.1190456631
H   H208      1.0  0.37883  0.06461  0.90314  1.0000 0.1190456631
H   H209      1.0  0.93539  0.31422  0.90314  1.0000 0.1190456631
H   H210      1.0  0.68578  0.62117  0.90314  1.0000 0.1190456631
H   H211      1.0  0.17785  0.92017  0.16826  1.0000 0.1127220198
H   H212      1.0  0.07983  0.25768  0.16826  1.0000 0.1127220198
H   H213      1.0  0.74232  0.82215  0.16826  1.0000 0.1127220198
H   H214      1.0  0.82215  0.07983  0.66826  1.0000 0.1127220198
H   H215      1.0  0.92017  0.74232  0.66826  1.0000 0.1127220198
H   H216      1.0  0.25768  0.17785  0.66826  1.0000 0.1127220198
H   H217      1.0  0.26304  0.88505  0.75363  1.0000 0.1385912054
H   H218      1.0  0.11495  0.37799  0.75363  1.0000 0.1385912054
H   H219      1.0  0.62201  0.73696  0.75363  1.0000 0.1385912054
H   H220      1.0  0.73696  0.11495  0.25363  1.0000 0.1385912054
H   H221      1.0  0.88505  0.62201  0.25363  1.0000 0.1385912054
H   H222      1.0  0.37799  0.26304  0.25363  1.0000 0.1385912054
H   H223      1.0  0.08922  0.64174  0.72994  1.0000 0.1190456631
H   H224      1.0  0.35826  0.44748  0.72994  1.0000 0.1190456631
H   H225      1.0  0.55252  0.91078  0.72994  1.0000 0.1190456631
H   H226      1.0  0.91078  0.35826  0.22994  1.0000 0.1190456631
H   H227      1.0  0.64174  0.55252  0.22994  1.0000 0.1190456631
H   H228      1.0  0.44748  0.08922  0.22994  1.0000 0.1190456631
H   H229      1.0  0.27749  0.87877  0.83289  1.0000 0.1297853544
H   H230      1.0  0.12123  0.39872  0.83289  1.0000 0.1297853544
H   H231      1.0  0.60128  0.72251  0.83289  1.0000 0.1297853544
H   H232      1.0  0.72251  0.12123  0.33289  1.0000 0.1297853544
H   H233      1.0  0.87877  0.60128  0.33289  1.0000 0.1297853544
H   H234      1.0  0.39872  0.27749  0.33289  1.0000 0.1297853544
H   H235      1.0  0.85123  0.94581  0.39708  1.0000 0.1190456631
H   H236      1.0  0.05419  0.90542  0.39708  1.0000 0.1190456631
H   H237      1.0  0.09458  0.14877  0.39708  1.0000 0.1190456631
H   H238      1.0  0.14877  0.05419  0.89708  1.0000 0.1190456631
H   H239      1.0  0.94581  0.09458  0.89708  1.0000 0.1190456631
H   H240      1.0  0.90542  0.85123  0.89708  1.0000 0.1190456631
H   H241      1.0  0.19112  0.98516  0.22918  1.0000 0.1127220198
H   H242      1.0  0.01484  0.20596  0.22918  1.0000 0.1127220198
H   H243      1.0  0.79404  0.80888  0.22918  1.0000 0.1127220198
H   H244      1.0  0.80888  0.01484  0.72918  1.0000 0.1127220198
H   H245      1.0  0.98516  0.79404  0.72918  1.0000 0.1127220198
H   H246      1.0  0.20596  0.19112  0.72918  1.0000 0.1127220198
H   H247      1.0  0.98280  0.57433  0.60713  1.0000 0.1127220198
H   H248      1.0  0.42567  0.40847  0.60713  1.0000 0.1127220198
H   H249      1.0  0.59153  0.01720  0.60713  1.0000 0.1127220198
H   H250      1.0  0.01720  0.42567  0.10713  1.0000 0.1127220198
H   H251      1.0  0.57433  0.59153  0.10713  1.0000 0.1127220198
H   H252      1.0  0.40847  0.98280  0.10713  1.0000 0.1127220198
H   H253      1.0  0.84472  0.05204  0.40024  1.0000 0.1190456631
H   H254      1.0  0.94796  0.79268  0.40024  1.0000 0.1190456631
H   H255      1.0  0.20732  0.15528  0.40024  1.0000 0.1190456631
H   H256      1.0  0.15528  0.94796  0.90024  1.0000 0.1190456631
H   H257      1.0  0.05204  0.20732  0.90024  1.0000 0.1190456631
H   H258      1.0  0.79268  0.84472  0.90024  1.0000 0.1190456631
H   H259      1.0  0.03264  0.60452  0.66277  1.0000 0.1127220198
H   H260      1.0  0.39548  0.42812  0.66277  1.0000 0.1127220198
H   H261      1.0  0.57188  0.96736  0.66277  1.0000 0.1127220198
H   H262      1.0  0.96736  0.39548  0.16277  1.0000 0.1127220198
H   H263      1.0  0.60452  0.57188  0.16277  1.0000 0.1127220198
H   H264      1.0  0.42812  0.03264  0.16277  1.0000 0.1127220198
H   H265      1.0  0.04606  0.77835  0.57451  1.0000 0.1190456631
H   H266      1.0  0.22165  0.26771  0.57451  1.0000 0.1190456631
H   H267      1.0  0.73229  0.95394  0.57451  1.0000 0.1190456631
H   H268      1.0  0.95394  0.22165  0.07451  1.0000 0.1190456631
H   H269      1.0  0.77835  0.73229  0.07451  1.0000 0.1190456631
H   H270      1.0  0.26771  0.04606  0.07451  1.0000 0.1190456631
H   H271      1.0  0.00476  0.73930  0.50321  1.0000 0.1297853544
H   H272      1.0  0.26070  0.26546  0.50321  1.0000 0.1297853544
H   H273      1.0  0.73454  0.99524  0.50321  1.0000 0.1297853544
H   H274      1.0  0.99524  0.26070  0.00321  1.0000 0.1297853544
H   H275      1.0  0.73930  0.73454  0.00321  1.0000 0.1297853544
H   H276      1.0  0.26546  0.00476  0.00321  1.0000 0.1297853544
H   H277      1.0  0.70757  0.45124  0.77215  1.0000 0.2318332623
H   H278      1.0  0.75282  0.47980  0.81123  1.0000 0.2391732016
H   H279      1.0  0.67571  0.46376  0.81123  1.0000 0.2391732016
H   H280      1.0  0.73264  0.52817  0.78653  1.0000 0.2318332623
H   H281      1.0  0.74367  0.29243  0.77215  1.0000 0.2318332623
H   H282      1.0  0.72698  0.24718  0.81123  1.0000 0.2391732016
H   H283      1.0  0.78805  0.32429  0.81123  1.0000 0.2391732016
H   H284      1.0  0.79553  0.26736  0.78653  1.0000 0.2318332623
H   H285      1.0  0.54876  0.25633  0.77215  1.0000 0.2318332623
H   H286      1.0  0.52020  0.27302  0.81123  1.0000 0.2391732016
H   H287      1.0  0.53624  0.21195  0.81123  1.0000 0.2391732016
H   H288      1.0  0.47183  0.20447  0.78653  1.0000 0.2318332623
H   H289      1.0  0.29243  0.54876  0.27215  1.0000 0.2318332623
H   H290      1.0  0.24718  0.52020  0.31123  1.0000 0.2391732016
H   H291      1.0  0.32429  0.53624  0.31123  1.0000 0.2391732016
H   H292      1.0  0.26736  0.47183  0.28653  1.0000 0.2318332623
H   H293      1.0  0.25633  0.70757  0.27215  1.0000 0.2318332623
H   H294      1.0  0.27302  0.75282  0.31123  1.0000 0.2391732016
H   H295      1.0  0.21195  0.67571  0.31123  1.0000 0.2391732016
H   H296      1.0  0.20447  0.73264  0.28653  1.0000 0.2318332623
H   H297      1.0  0.45124  0.74367  0.27215  1.0000 0.2318332623
H   H298      1.0  0.47980  0.72698  0.31123  1.0000 0.2391732016
H   H299      1.0  0.46376  0.78805  0.31123  1.0000 0.2391732016
H   H300      1.0  0.52817  0.79553  0.28653  1.0000 0.2318332623
H   H301      1.0  0.62598  0.29265  0.93908  1.0000 0.2216740099
H   H302      1.0  0.70735  0.33333  0.93908  1.0000 0.2216740099
H   H303      1.0  0.66667  0.37402  0.93908  1.0000 0.2216740099
H   H304      1.0  0.66667  0.33333  0.89982  1.0000 0.2391732016
H   H305      1.0  0.37402  0.70735  0.43908  1.0000 0.2216740099
H   H306      1.0  0.29265  0.66667  0.43908  1.0000 0.2216740099
H   H307      1.0  0.33333  0.62598  0.43908  1.0000 0.2216740099
H   H308      1.0  0.33333  0.66667  0.39982  1.0000 0.2391732016
C   C1        1.0  0.55070  0.08040  0.33050  1.0000 0.5899814613
C   C2        1.0  0.91960  0.47030  0.33050  1.0000 0.5899814613
C   C3        1.0  0.52970  0.44930  0.33050  1.0000 0.5899814613
C   C4        1.0  0.44930  0.91960  0.83050  1.0000 0.5899814613
C   C5        1.0  0.08040  0.52970  0.83050  1.0000 0.5899814613
C   C6        1.0  0.47030  0.55070  0.83050  1.0000 0.5899814613
C   C7        1.0  0.49710  0.82390  0.52504  1.0000 0.0585628851
C   C8        1.0  0.17610  0.67320  0.52504  1.0000 0.0585628851
C   C9        1.0  0.32680  0.50290  0.52504  1.0000 0.0585628851
C   C10       1.0  0.50290  0.17610  0.02504  1.0000 0.0585628851
C   C11       1.0  0.82390  0.32680  0.02504  1.0000 0.0585628851
C   C12       1.0  0.67320  0.49710  0.02504  1.0000 0.0585628851
C   C13       1.0  0.50830  0.82020  0.44538  1.0000 -0.0310221774
C   C14       1.0  0.17980  0.68810  0.44538  1.0000 -0.0310221774
C   C15       1.0  0.31190  0.49170  0.44538  1.0000 -0.0310221774
C   C16       1.0  0.49170  0.17980  0.94538  1.0000 -0.0310221774
C   C17       1.0  0.82020  0.31190  0.94538  1.0000 -0.0310221774
C   C18       1.0  0.68810  0.50830  0.94538  1.0000 -0.0310221774
C   C19       1.0  0.31240  0.78900  0.17680  1.0000 0.2318332623
C   C20       1.0  0.21100  0.52340  0.17680  1.0000 0.2318332623
C   C21       1.0  0.47660  0.68760  0.17680  1.0000 0.2318332623
C   C22       1.0  0.68760  0.21100  0.67680  1.0000 0.2318332623
C   C23       1.0  0.78900  0.47660  0.67680  1.0000 0.2318332623
C   C24       1.0  0.52340  0.31240  0.67680  1.0000 0.2318332623
C   C25       1.0  0.60460  0.73270  0.39409  1.0000 0.2563307978
C   C26       1.0  0.26730  0.87190  0.39409  1.0000 0.2563307978
C   C27       1.0  0.12810  0.39540  0.39409  1.0000 0.2563307978
C   C28       1.0  0.39540  0.26730  0.89409  1.0000 0.2563307978
C   C29       1.0  0.73270  0.12810  0.89409  1.0000 0.2563307978
C   C30       1.0  0.87190  0.60460  0.89409  1.0000 0.2563307978
C   C31       1.0  0.68170  0.66850  0.38690  1.0000 0.6088420448
C   C32       1.0  0.33150  0.01320  0.38690  1.0000 0.6088420448
C   C33       1.0  0.98680  0.31830  0.38690  1.0000 0.6088420448
C   C34       1.0  0.31830  0.33150  0.88690  1.0000 0.6088420448
C   C35       1.0  0.66850  0.98680  0.88690  1.0000 0.6088420448
C   C36       1.0  0.01320  0.68170  0.88690  1.0000 0.6088420448
C   C37       1.0  0.52480  0.79090  0.40426  1.0000 -0.2583614591
C   C38       1.0  0.20910  0.73390  0.40426  1.0000 -0.2583614591
C   C39       1.0  0.26610  0.47520  0.40426  1.0000 -0.2583614591
C   C40       1.0  0.47520  0.20910  0.90426  1.0000 -0.2583614591
C   C41       1.0  0.79090  0.26610  0.90426  1.0000 -0.2583614591
C   C42       1.0  0.73390  0.52480  0.90426  1.0000 -0.2583614591
C   C43       1.0  0.44990  0.96440  0.47790  1.0000 0.5899814613
C   C44       1.0  0.03560  0.48550  0.47790  1.0000 0.5899814613
C   C45       1.0  0.51450  0.55010  0.47790  1.0000 0.5899814613
C   C46       1.0  0.55010  0.03560  0.97790  1.0000 0.5899814613
C   C47       1.0  0.96440  0.51450  0.97790  1.0000 0.5899814613
C   C48       1.0  0.48550  0.44990  0.97790  1.0000 0.5899814613
C   C49       1.0  0.39130  0.84540  0.24323  1.0000 -0.2503717246
C   C50       1.0  0.15460  0.54590  0.24323  1.0000 -0.2503717246
C   C51       1.0  0.45410  0.60870  0.24323  1.0000 -0.2503717246
C   C52       1.0  0.60870  0.15460  0.74323  1.0000 -0.2503717246
C   C53       1.0  0.84540  0.45410  0.74323  1.0000 -0.2503717246
C   C54       1.0  0.54590  0.39130  0.74323  1.0000 -0.2503717246
C   C55       1.0  0.47650  0.87900  0.52025  1.0000 -0.1510177812
C   C56       1.0  0.12100  0.59750  0.52025  1.0000 -0.1510177812
C   C57       1.0  0.40250  0.52350  0.52025  1.0000 -0.1510177812
C   C58       1.0  0.52350  0.12100  0.02025  1.0000 -0.1510177812
C   C59       1.0  0.87900  0.40250  0.02025  1.0000 -0.1510177812
C   C60       1.0  0.59750  0.47650  0.02025  1.0000 -0.1510177812
C   C61       1.0  0.32890  0.83510  0.21240  1.0000 -0.0310221774
C   C62       1.0  0.16490  0.49380  0.21240  1.0000 -0.0310221774
C   C63       1.0  0.50620  0.67110  0.21240  1.0000 -0.0310221774
C   C64       1.0  0.67110  0.16490  0.71240  1.0000 -0.0310221774
C   C65       1.0  0.83510  0.50620  0.71240  1.0000 -0.0310221774
C   C66       1.0  0.49380  0.32890  0.71240  1.0000 -0.0310221774
C   C67       1.0  0.51260  0.79360  0.48720  1.0000 0.0407554587
C   C68       1.0  0.20640  0.71900  0.48720  1.0000 0.0407554587
C   C69       1.0  0.28100  0.48740  0.48720  1.0000 0.0407554587
C   C70       1.0  0.48740  0.20640  0.98720  1.0000 0.0407554587
C   C71       1.0  0.79360  0.28100  0.98720  1.0000 0.0407554587
C   C72       1.0  0.71900  0.51260  0.98720  1.0000 0.0407554587
C   C73       1.0  0.46970  0.90350  0.47943  1.0000 -0.161522223
C   C74       1.0  0.09650  0.56620  0.47943  1.0000 -0.161522223
C   C75       1.0  0.43380  0.53030  0.47943  1.0000 -0.161522223
C   C76       1.0  0.53030  0.09650  0.97943  1.0000 -0.161522223
C   C77       1.0  0.90350  0.43380  0.97943  1.0000 -0.161522223
C   C78       1.0  0.56620  0.46970  0.97943  1.0000 -0.161522223
C   C79       1.0  0.67560  0.73590  0.39300  1.0000 -0.161522223
C   C80       1.0  0.26410  0.93970  0.39300  1.0000 -0.161522223
C   C81       1.0  0.06030  0.32440  0.39300  1.0000 -0.161522223
C   C82       1.0  0.32440  0.26410  0.89300  1.0000 -0.161522223
C   C83       1.0  0.73590  0.06030  0.89300  1.0000 -0.161522223
C   C84       1.0  0.93970  0.67560  0.89300  1.0000 -0.161522223
C   C85       1.0  0.53090  0.03950  0.28820  1.0000 -0.1677013142
C   C86       1.0  0.96050  0.49140  0.28820  1.0000 -0.1677013142
C   C87       1.0  0.50860  0.46910  0.28820  1.0000 -0.1677013142
C   C88       1.0  0.46910  0.96050  0.78820  1.0000 -0.1677013142
C   C89       1.0  0.03950  0.50860  0.78820  1.0000 -0.1677013142
C   C90       1.0  0.49140  0.53090  0.78820  1.0000 -0.1677013142
C   C91       1.0  0.48390  0.87220  0.44175  1.0000 0.2391732016
C   C92       1.0  0.12780  0.61170  0.44175  1.0000 0.2391732016
C   C93       1.0  0.38830  0.51610  0.44175  1.0000 0.2391732016
C   C94       1.0  0.51610  0.12780  0.94175  1.0000 0.2391732016
C   C95       1.0  0.87220  0.38830  0.94175  1.0000 0.2391732016
C   C96       1.0  0.61170  0.48390  0.94175  1.0000 0.2391732016
C   C97       1.0  0.26270  0.78590  0.14360  1.0000 -0.1510177812
C   C98       1.0  0.21410  0.47680  0.14360  1.0000 -0.1510177812
C   C99       1.0  0.52320  0.73730  0.14360  1.0000 -0.1510177812
C   C100      1.0  0.73730  0.21410  0.64360  1.0000 -0.1510177812
C   C101      1.0  0.78590  0.52320  0.64360  1.0000 -0.1510177812
C   C102      1.0  0.47680  0.26270  0.64360  1.0000 -0.1510177812
C   C103      1.0  0.60010  0.79680  0.40023  1.0000 -0.0310221774
C   C104      1.0  0.20320  0.80330  0.40023  1.0000 -0.0310221774
C   C105      1.0  0.19670  0.39990  0.40023  1.0000 -0.0310221774
C   C106      1.0  0.39990  0.20320  0.90023  1.0000 -0.0310221774
C   C107      1.0  0.79680  0.19670  0.90023  1.0000 -0.0310221774
C   C108      1.0  0.80330  0.60010  0.90023  1.0000 -0.0310221774
C   C109      1.0  0.24670  0.73920  0.10350  1.0000 0.6024676261
C   C110      1.0  0.26080  0.50750  0.10350  1.0000 0.6024676261
C   C111      1.0  0.49250  0.75330  0.10350  1.0000 0.6024676261
C   C112      1.0  0.75330  0.26080  0.60350  1.0000 0.6024676261
C   C113      1.0  0.73920  0.49250  0.60350  1.0000 0.6024676261
C   C114      1.0  0.50750  0.24670  0.60350  1.0000 0.6024676261
C   C115      1.0  0.48960  0.92640  0.16680  1.0000 -0.1226893014
C   C116      1.0  0.07360  0.56320  0.16680  1.0000 -0.1226893014
C   C117      1.0  0.43680  0.51040  0.16680  1.0000 -0.1226893014
C   C118      1.0  0.51040  0.07360  0.66680  1.0000 -0.1226893014
C   C119      1.0  0.92640  0.43680  0.66680  1.0000 -0.1226893014
C   C120      1.0  0.56320  0.48960  0.66680  1.0000 -0.1226893014
C   C121      1.0  0.14170  0.75170  0.71760  1.0000 0.1551121843
C   C122      1.0  0.24830  0.39000  0.71760  1.0000 0.1551121843
C   C123      1.0  0.61000  0.85830  0.71760  1.0000 0.1551121843
C   C124      1.0  0.85830  0.24830  0.21760  1.0000 0.1551121843
C   C125      1.0  0.75170  0.61000  0.21760  1.0000 0.1551121843
C   C126      1.0  0.39000  0.14170  0.21760  1.0000 0.1551121843
C   C127      1.0  0.47350  0.96300  0.28506  1.0000 0.2391732016
C   C128      1.0  0.03700  0.51050  0.28506  1.0000 0.2391732016
C   C129      1.0  0.48950  0.52650  0.28506  1.0000 0.2391732016
C   C130      1.0  0.52650  0.03700  0.78506  1.0000 0.2391732016
C   C131      1.0  0.96300  0.48950  0.78506  1.0000 0.2391732016
C   C132      1.0  0.51050  0.47350  0.78506  1.0000 0.2391732016
C   C133      1.0  0.85860  0.54220  0.41990  1.0000 -0.061999217
C   C134      1.0  0.45780  0.31640  0.41990  1.0000 -0.061999217
C   C135      1.0  0.68360  0.14140  0.41990  1.0000 -0.061999217
C   C136      1.0  0.14140  0.45780  0.91990  1.0000 -0.061999217
C   C137      1.0  0.54220  0.68360  0.91990  1.0000 -0.061999217
C   C138      1.0  0.31640  0.85860  0.91990  1.0000 -0.061999217
C   C139      1.0  0.50130  0.79820  0.56720  1.0000 -0.1510177812
C   C140      1.0  0.20180  0.70310  0.56720  1.0000 -0.1510177812
C   C141      1.0  0.29690  0.49870  0.56720  1.0000 -0.1510177812
C   C142      1.0  0.49870  0.20180  0.06720  1.0000 -0.1510177812
C   C143      1.0  0.79820  0.29690  0.06720  1.0000 -0.1510177812
C   C144      1.0  0.70310  0.50130  0.06720  1.0000 -0.1510177812
C   C145      1.0  0.55730  0.04010  0.21080  1.0000 0.0494687418
C   C146      1.0  0.95990  0.51720  0.21080  1.0000 0.0494687418
C   C147      1.0  0.48280  0.44270  0.21080  1.0000 0.0494687418
C   C148      1.0  0.44270  0.95990  0.71080  1.0000 0.0494687418
C   C149      1.0  0.04010  0.48280  0.71080  1.0000 0.0494687418
C   C150      1.0  0.51720  0.55730  0.71080  1.0000 0.0494687418
C   C151      1.0  0.29220  0.87700  0.21800  1.0000 0.0407554587
C   C152      1.0  0.12300  0.41520  0.21800  1.0000 0.0407554587
C   C153      1.0  0.58480  0.70780  0.21800  1.0000 0.0407554587
C   C154      1.0  0.70780  0.12300  0.71800  1.0000 0.0407554587
C   C155      1.0  0.87700  0.58480  0.71800  1.0000 0.0407554587
C   C156      1.0  0.41520  0.29220  0.71800  1.0000 0.0407554587
C   C157      1.0  0.84680  0.61520  0.46590  1.0000 0.0907456574
C   C158      1.0  0.38480  0.23160  0.46590  1.0000 0.0907456574
C   C159      1.0  0.76840  0.15320  0.46590  1.0000 0.0907456574
C   C160      1.0  0.15320  0.38480  0.96590  1.0000 0.0907456574
C   C161      1.0  0.61520  0.76840  0.96590  1.0000 0.0907456574
C   C162      1.0  0.23160  0.84680  0.96590  1.0000 0.0907456574
C   C163      1.0  0.14990  0.73250  0.79610  1.0000 0.1385912054
C   C164      1.0  0.26750  0.41740  0.79610  1.0000 0.1385912054
C   C165      1.0  0.58260  0.85010  0.79610  1.0000 0.1385912054
C   C166      1.0  0.85010  0.26750  0.29610  1.0000 0.1385912054
C   C167      1.0  0.73250  0.58260  0.29610  1.0000 0.1385912054
C   C168      1.0  0.41740  0.14990  0.29610  1.0000 0.1385912054
C   C169      1.0  0.91010  0.55860  0.45170  1.0000 -0.0807625766
C   C170      1.0  0.44140  0.35150  0.45170  1.0000 -0.0807625766
C   C171      1.0  0.64850  0.08990  0.45170  1.0000 -0.0807625766
C   C172      1.0  0.08990  0.44140  0.95170  1.0000 -0.0807625766
C   C173      1.0  0.55860  0.64850  0.95170  1.0000 -0.0807625766
C   C174      1.0  0.35150  0.91010  0.95170  1.0000 -0.0807625766
C   C175      1.0  0.52020  0.74310  0.57190  1.0000 -0.1106543936
C   C176      1.0  0.25690  0.77710  0.57190  1.0000 -0.1106543936
C   C177      1.0  0.22290  0.47980  0.57190  1.0000 -0.1106543936
C   C178      1.0  0.47980  0.25690  0.07190  1.0000 -0.1106543936
C   C179      1.0  0.74310  0.22290  0.07190  1.0000 -0.1106543936
C   C180      1.0  0.77710  0.52020  0.07190  1.0000 -0.1106543936
C   C181      1.0  0.50020  0.96340  0.20790  1.0000 0.0407554587
C   C182      1.0  0.03660  0.53680  0.20790  1.0000 0.0407554587
C   C183      1.0  0.46320  0.49980  0.20790  1.0000 0.0407554587
C   C184      1.0  0.49980  0.03660  0.70790  1.0000 0.0407554587
C   C185      1.0  0.96340  0.46320  0.70790  1.0000 0.0407554587
C   C186      1.0  0.53680  0.50020  0.70790  1.0000 0.0407554587
C   C187      1.0  0.02490  0.68230  0.59600  1.0000 0.0585628851
C   C188      1.0  0.31770  0.34260  0.59600  1.0000 0.0585628851
C   C189      1.0  0.65740  0.97510  0.59600  1.0000 0.0585628851
C   C190      1.0  0.97510  0.31770  0.09600  1.0000 0.0585628851
C   C191      1.0  0.68230  0.65740  0.09600  1.0000 0.0585628851
C   C192      1.0  0.34260  0.02490  0.09600  1.0000 0.0585628851
C   C193      1.0  0.53460  0.71250  0.53490  1.0000 -0.0914348466
C   C194      1.0  0.28750  0.82210  0.53490  1.0000 -0.0914348466
C   C195      1.0  0.17790  0.46540  0.53490  1.0000 -0.0914348466
C   C196      1.0  0.46540  0.28750  0.03490  1.0000 -0.0914348466
C   C197      1.0  0.71250  0.17790  0.03490  1.0000 -0.0914348466
C   C198      1.0  0.82210  0.53460  0.03490  1.0000 -0.0914348466
C   C199      1.0  0.45550  0.92570  0.24532  1.0000 -0.0310221774
C   C200      1.0  0.07430  0.52980  0.24532  1.0000 -0.0310221774
C   C201      1.0  0.47020  0.54450  0.24532  1.0000 -0.0310221774
C   C202      1.0  0.54450  0.07430  0.74532  1.0000 -0.0310221774
C   C203      1.0  0.92570  0.47020  0.74532  1.0000 -0.0310221774
C   C204      1.0  0.52980  0.45550  0.74532  1.0000 -0.0310221774
C   C205      1.0  0.66700  0.86740  0.40110  1.0000 0.0494687418
C   C206      1.0  0.13260  0.79960  0.40110  1.0000 0.0494687418
C   C207      1.0  0.20040  0.33300  0.40110  1.0000 0.0494687418
C   C208      1.0  0.33300  0.13260  0.90110  1.0000 0.0494687418
C   C209      1.0  0.86740  0.20040  0.90110  1.0000 0.0494687418
C   C210      1.0  0.79960  0.66700  0.90110  1.0000 0.0494687418
C   C211      1.0  0.56950  0.07650  0.25120  1.0000 -0.1774510483
C   C212      1.0  0.92350  0.49300  0.25120  1.0000 -0.1774510483
C   C213      1.0  0.50700  0.43050  0.25120  1.0000 -0.1774510483
C   C214      1.0  0.43050  0.92350  0.75120  1.0000 -0.1774510483
C   C215      1.0  0.07650  0.50700  0.75120  1.0000 -0.1774510483
C   C216      1.0  0.49300  0.56950  0.75120  1.0000 -0.1774510483
C   C217      1.0  0.53230  0.96330  0.13160  1.0000 -0.0807625766
C   C218      1.0  0.03670  0.56900  0.13160  1.0000 -0.0807625766
C   C219      1.0  0.43100  0.46770  0.13160  1.0000 -0.0807625766
C   C220      1.0  0.46770  0.03670  0.63160  1.0000 -0.0807625766
C   C221      1.0  0.96330  0.43100  0.63160  1.0000 -0.0807625766
C   C222      1.0  0.56900  0.53230  0.63160  1.0000 -0.0807625766
C   C223      1.0  0.53060  0.73620  0.49380  1.0000 -0.1106543936
C   C224      1.0  0.26380  0.79440  0.49380  1.0000 -0.1106543936
C   C225      1.0  0.20560  0.46940  0.49380  1.0000 -0.1106543936
C   C226      1.0  0.46940  0.26380  0.99380  1.0000 -0.1106543936
C   C227      1.0  0.73620  0.20560  0.99380  1.0000 -0.1106543936
C   C228      1.0  0.79440  0.53060  0.99380  1.0000 -0.1106543936
C   C229      1.0  0.06810  0.70880  0.63810  1.0000 0.0728848648
C   C230      1.0  0.29120  0.35930  0.63810  1.0000 0.0728848648
C   C231      1.0  0.64070  0.93190  0.63810  1.0000 0.0728848648
C   C232      1.0  0.93190  0.29120  0.13810  1.0000 0.0728848648
C   C233      1.0  0.70880  0.64070  0.13810  1.0000 0.0728848648
C   C234      1.0  0.35930  0.06810  0.13810  1.0000 0.0728848648
C   C235      1.0  0.94670  0.58080  0.54750  1.0000 -0.1394911361
C   C236      1.0  0.41920  0.36590  0.54750  1.0000 -0.1394911361
C   C237      1.0  0.63410  0.05330  0.54750  1.0000 -0.1394911361
C   C238      1.0  0.05330  0.41920  0.04750  1.0000 -0.1394911361
C   C239      1.0  0.58080  0.63410  0.04750  1.0000 -0.1394911361
C   C240      1.0  0.36590  0.94670  0.04750  1.0000 -0.1394911361
C   C241      1.0  0.23140  0.83090  0.14760  1.0000 -0.1510177812
C   C242      1.0  0.16910  0.40050  0.14760  1.0000 -0.1510177812
C   C243      1.0  0.59950  0.76860  0.14760  1.0000 -0.1510177812
C   C244      1.0  0.76860  0.16910  0.64760  1.0000 -0.1510177812
C   C245      1.0  0.83090  0.59950  0.64760  1.0000 -0.1510177812
C   C246      1.0  0.40050  0.23140  0.64760  1.0000 -0.1510177812
C   C247      1.0  0.94370  0.63230  0.52020  1.0000 0.1463802156
C   C248      1.0  0.36770  0.31140  0.52020  1.0000 0.1463802156
C   C249      1.0  0.68860  0.05630  0.52020  1.0000 0.1463802156
C   C250      1.0  0.05630  0.36770  0.02020  1.0000 0.1463802156
C   C251      1.0  0.63230  0.68860  0.02020  1.0000 0.1463802156
C   C252      1.0  0.31140  0.94370  0.02020  1.0000 0.1463802156
C   C253      1.0  0.74040  0.80480  0.39640  1.0000 -0.1510177812
C   C254      1.0  0.19520  0.93560  0.39640  1.0000 -0.1510177812
C   C255      1.0  0.06440  0.25960  0.39640  1.0000 -0.1510177812
C   C256      1.0  0.25960  0.19520  0.89640  1.0000 -0.1510177812
C   C257      1.0  0.80480  0.06440  0.89640  1.0000 -0.1510177812
C   C258      1.0  0.93560  0.74040  0.89640  1.0000 -0.1510177812
C   C259      1.0  0.73130  0.00210  0.40160  1.0000 -0.0995443963
C   C260      1.0  0.99790  0.72920  0.40160  1.0000 -0.0995443963
C   C261      1.0  0.27080  0.26870  0.40160  1.0000 -0.0995443963
C   C262      1.0  0.26870  0.99790  0.90160  1.0000 -0.0995443963
C   C263      1.0  0.00210  0.27080  0.90160  1.0000 -0.0995443963
C   C264      1.0  0.72920  0.73130  0.90160  1.0000 -0.0995443963
C   C265      1.0  0.29820  0.91730  0.25660  1.0000 -0.1319179786
C   C266      1.0  0.08270  0.38090  0.25660  1.0000 -0.1319179786
C   C267      1.0  0.61910  0.70180  0.25660  1.0000 -0.1319179786
C   C268      1.0  0.70180  0.08270  0.75660  1.0000 -0.1319179786
C   C269      1.0  0.91730  0.61910  0.75660  1.0000 -0.1319179786
C   C270      1.0  0.38090  0.29820  0.75660  1.0000 -0.1319179786
C   C271      1.0  0.73790  0.87070  0.39910  1.0000 0.0585628851
C   C272      1.0  0.12930  0.86720  0.39910  1.0000 0.0585628851
C   C273      1.0  0.13280  0.26210  0.39910  1.0000 0.0585628851
C   C274      1.0  0.26210  0.12930  0.89910  1.0000 0.0585628851
C   C275      1.0  0.87070  0.13280  0.89910  1.0000 0.0585628851
C   C276      1.0  0.86720  0.73790  0.89910  1.0000 0.0585628851
C   C277      1.0  0.59860  0.07840  0.17250  1.0000 -0.161522223
C   C278      1.0  0.92160  0.52020  0.17250  1.0000 -0.161522223
C   C279      1.0  0.47980  0.40140  0.17250  1.0000 -0.161522223
C   C280      1.0  0.40140  0.92160  0.67250  1.0000 -0.161522223
C   C281      1.0  0.07840  0.47980  0.67250  1.0000 -0.161522223
C   C282      1.0  0.52020  0.59860  0.67250  1.0000 -0.161522223
C   C283      1.0  0.15360  0.80580  0.68720  1.0000 -0.1774510483
C   C284      1.0  0.19420  0.34780  0.68720  1.0000 -0.1774510483
C   C285      1.0  0.65220  0.84640  0.68720  1.0000 -0.1774510483
C   C286      1.0  0.84640  0.19420  0.18720  1.0000 -0.1774510483
C   C287      1.0  0.80580  0.65220  0.18720  1.0000 -0.1774510483
C   C288      1.0  0.34780  0.15360  0.18720  1.0000 -0.1774510483
C   C289      1.0  0.25980  0.95590  0.26140  1.0000 -0.0995443963
C   C290      1.0  0.04410  0.30390  0.26140  1.0000 -0.0995443963
C   C291      1.0  0.69610  0.74020  0.26140  1.0000 -0.0995443963
C   C292      1.0  0.74020  0.04410  0.76140  1.0000 -0.0995443963
C   C293      1.0  0.95590  0.69610  0.76140  1.0000 -0.0995443963
C   C294      1.0  0.30390  0.25980  0.76140  1.0000 -0.0995443963
C   C295      1.0  0.58690  0.04270  0.13470  1.0000 -0.0995443963
C   C296      1.0  0.95730  0.54420  0.13470  1.0000 -0.0995443963
C   C297      1.0  0.45580  0.41310  0.13470  1.0000 -0.0995443963
C   C298      1.0  0.41310  0.95730  0.63470  1.0000 -0.0995443963
C   C299      1.0  0.04270  0.45580  0.63470  1.0000 -0.0995443963
C   C300      1.0  0.54420  0.58690  0.63470  1.0000 -0.0995443963
C   C301      1.0  0.24260  0.87510  0.18400  1.0000 0.0494687418
C   C302      1.0  0.12490  0.36750  0.18400  1.0000 0.0494687418
C   C303      1.0  0.63250  0.75740  0.18400  1.0000 0.0494687418
C   C304      1.0  0.75740  0.12490  0.68400  1.0000 0.0494687418
C   C305      1.0  0.87510  0.63250  0.68400  1.0000 0.0494687418
C   C306      1.0  0.36750  0.24260  0.68400  1.0000 0.0494687418
C   C307      1.0  0.11760  0.78210  0.64680  1.0000 -0.1319179786
C   C308      1.0  0.21790  0.33550  0.64680  1.0000 -0.1319179786
C   C309      1.0  0.66450  0.88240  0.64680  1.0000 -0.1319179786
C   C310      1.0  0.88240  0.21790  0.14680  1.0000 -0.1319179786
C   C311      1.0  0.78210  0.66450  0.14680  1.0000 -0.1319179786
C   C312      1.0  0.33550  0.11760  0.14680  1.0000 -0.1319179786
C   C313      1.0  0.66650  0.93600  0.40210  1.0000 -0.1226893014
C   C314      1.0  0.06400  0.73050  0.40210  1.0000 -0.1226893014
C   C315      1.0  0.26950  0.33350  0.40210  1.0000 -0.1226893014
C   C316      1.0  0.33350  0.06400  0.90210  1.0000 -0.1226893014
C   C317      1.0  0.93600  0.26950  0.90210  1.0000 -0.1226893014
C   C318      1.0  0.73050  0.66650  0.90210  1.0000 -0.1226893014
C   C319      1.0  0.20760  0.91860  0.19050  1.0000 -0.1394911361
C   C320      1.0  0.08140  0.28900  0.19050  1.0000 -0.1394911361
C   C321      1.0  0.71100  0.79240  0.19050  1.0000 -0.1394911361
C   C322      1.0  0.79240  0.08140  0.69050  1.0000 -0.1394911361
C   C323      1.0  0.91860  0.71100  0.69050  1.0000 -0.1394911361
C   C324      1.0  0.28900  0.20760  0.69050  1.0000 -0.1394911361
C   C325      1.0  0.23550  0.84410  0.77170  1.0000 -0.1106543936
C   C326      1.0  0.15590  0.39140  0.77170  1.0000 -0.1106543936
C   C327      1.0  0.60860  0.76450  0.77170  1.0000 -0.1106543936
C   C328      1.0  0.76450  0.15590  0.27170  1.0000 -0.1106543936
C   C329      1.0  0.84410  0.60860  0.27170  1.0000 -0.1106543936
C   C330      1.0  0.39140  0.23550  0.27170  1.0000 -0.1106543936
C   C331      1.0  0.09640  0.67730  0.70900  1.0000 -0.1510177812
C   C332      1.0  0.32270  0.41910  0.70900  1.0000 -0.1510177812
C   C333      1.0  0.58090  0.90360  0.70900  1.0000 -0.1510177812
C   C334      1.0  0.90360  0.32270  0.20900  1.0000 -0.1510177812
C   C335      1.0  0.67730  0.58090  0.20900  1.0000 -0.1510177812
C   C336      1.0  0.41910  0.09640  0.20900  1.0000 -0.1510177812
C   C337      1.0  0.24360  0.83970  0.81530  1.0000 -0.01728032
C   C338      1.0  0.16030  0.40390  0.81530  1.0000 -0.01728032
C   C339      1.0  0.59610  0.75640  0.81530  1.0000 -0.01728032
C   C340      1.0  0.75640  0.16030  0.31530  1.0000 -0.01728032
C   C341      1.0  0.83970  0.59610  0.31530  1.0000 -0.01728032
C   C342      1.0  0.40390  0.24360  0.31530  1.0000 -0.01728032
C   C343      1.0  0.80480  0.94280  0.39850  1.0000 -0.1394911361
C   C344      1.0  0.05720  0.86200  0.39850  1.0000 -0.1394911361
C   C345      1.0  0.13800  0.19520  0.39850  1.0000 -0.1394911361
C   C346      1.0  0.19520  0.05720  0.89850  1.0000 -0.1394911361
C   C347      1.0  0.94280  0.13800  0.89850  1.0000 -0.1394911361
C   C348      1.0  0.86200  0.80480  0.89850  1.0000 -0.1394911361
C   C349      1.0  0.21510  0.95730  0.22670  1.0000 -0.0995443963
C   C350      1.0  0.04270  0.25780  0.22670  1.0000 -0.0995443963
C   C351      1.0  0.74220  0.78490  0.22670  1.0000 -0.0995443963
C   C352      1.0  0.78490  0.04270  0.72670  1.0000 -0.0995443963
C   C353      1.0  0.95730  0.74220  0.72670  1.0000 -0.0995443963
C   C354      1.0  0.25780  0.21510  0.72670  1.0000 -0.0995443963
C   C355      1.0  0.98490  0.60840  0.58650  1.0000 -0.1319179786
C   C356      1.0  0.39160  0.37650  0.58650  1.0000 -0.1319179786
C   C357      1.0  0.62350  0.01510  0.58650  1.0000 -0.1319179786
C   C358      1.0  0.01510  0.39160  0.08650  1.0000 -0.1319179786
C   C359      1.0  0.60840  0.62350  0.08650  1.0000 -0.1319179786
C   C360      1.0  0.37650  0.98490  0.08650  1.0000 -0.1319179786
C   C361      1.0  0.80090  0.00570  0.40010  1.0000 -0.1106543936
C   C362      1.0  0.99430  0.79520  0.40010  1.0000 -0.1106543936
C   C363      1.0  0.20480  0.19910  0.40010  1.0000 -0.1106543936
C   C364      1.0  0.19910  0.99430  0.90010  1.0000 -0.1106543936
C   C365      1.0  0.00570  0.20480  0.90010  1.0000 -0.1106543936
C   C366      1.0  0.79520  0.80090  0.90010  1.0000 -0.1106543936
C   C367      1.0  0.06120  0.65520  0.66920  1.0000 -0.1106543936
C   C368      1.0  0.34480  0.40600  0.66920  1.0000 -0.1106543936
C   C369      1.0  0.59400  0.93880  0.66920  1.0000 -0.1106543936
C   C370      1.0  0.93880  0.34480  0.16920  1.0000 -0.1106543936
C   C371      1.0  0.65520  0.59400  0.16920  1.0000 -0.1106543936
C   C372      1.0  0.40600  0.06120  0.16920  1.0000 -0.1106543936
C   C373      1.0  0.02430  0.72800  0.56730  1.0000 -0.1394911361
C   C374      1.0  0.27200  0.29630  0.56730  1.0000 -0.1394911361
C   C375      1.0  0.70370  0.97570  0.56730  1.0000 -0.1394911361
C   C376      1.0  0.97570  0.27200  0.06730  1.0000 -0.1394911361
C   C377      1.0  0.72800  0.70370  0.06730  1.0000 -0.1394911361
C   C378      1.0  0.29630  0.02430  0.06730  1.0000 -0.1394911361
C   C379      1.0  0.99250  0.70520  0.52580  1.0000 -0.161522223
C   C380      1.0  0.29480  0.28730  0.52580  1.0000 -0.161522223
C   C381      1.0  0.71270  0.00750  0.52580  1.0000 -0.161522223
C   C382      1.0  0.00750  0.29480  0.02580  1.0000 -0.161522223
C   C383      1.0  0.70520  0.71270  0.02580  1.0000 -0.161522223
C   C384      1.0  0.28730  0.99250  0.02580  1.0000 -0.161522223
N   N1        1.0  0.75850  0.42230  0.50680  1.0000 -0.7639878097
N   N2        1.0  0.57770  0.33620  0.50680  1.0000 -0.7639878097
N   N3        1.0  0.66380  0.24150  0.50680  1.0000 -0.7639878097
N   N4        1.0  0.24150  0.57770  0.00680  1.0000 -0.7639878097
N   N5        1.0  0.42230  0.66380  0.00680  1.0000 -0.7639878097
N   N6        1.0  0.33620  0.75850  0.00680  1.0000 -0.7639878097
N   N7        1.0  0.81990  0.57990  0.42859  1.0000 -0.2966034415
N   N8        1.0  0.42010  0.24000  0.42859  1.0000 -0.2966034415
N   N9        1.0  0.76000  0.18010  0.42859  1.0000 -0.2966034415
N   N10       1.0  0.18010  0.42010  0.92859  1.0000 -0.2966034415
N   N11       1.0  0.57990  0.76000  0.92859  1.0000 -0.2966034415
N   N12       1.0  0.24000  0.81990  0.92859  1.0000 -0.2966034415
N   N13       1.0  0.19210  0.76610  0.82987  1.0000 -0.2922737601
N   N14       1.0  0.23390  0.42600  0.82987  1.0000 -0.2922737601
N   N15       1.0  0.57400  0.80790  0.82987  1.0000 -0.2922737601
N   N16       1.0  0.80790  0.23390  0.32987  1.0000 -0.2922737601
N   N17       1.0  0.76610  0.57400  0.32987  1.0000 -0.2922737601
N   N18       1.0  0.42600  0.19210  0.32987  1.0000 -0.2922737601
N   N19       1.0  0.90230  0.60410  0.48035  1.0000 0.0074182131
N   N20       1.0  0.39590  0.29820  0.48035  1.0000 0.0074182131
N   N21       1.0  0.70180  0.09770  0.48035  1.0000 0.0074182131
N   N22       1.0  0.09770  0.39590  0.98035  1.0000 0.0074182131
N   N23       1.0  0.60410  0.70180  0.98035  1.0000 0.0074182131
N   N24       1.0  0.29820  0.90230  0.98035  1.0000 0.0074182131
N   N25       1.0  0.64430  0.48640  0.41655  1.0000 -0.8179013732
N   N26       1.0  0.51360  0.15790  0.41655  1.0000 -0.8179013732
N   N27       1.0  0.84210  0.35570  0.41655  1.0000 -0.8179013732
N   N28       1.0  0.35570  0.51360  0.91655  1.0000 -0.8179013732
N   N29       1.0  0.48640  0.84210  0.91655  1.0000 -0.8179013732
N   N30       1.0  0.15790  0.64430  0.91655  1.0000 -0.8179013732
N   N31       1.0  0.17580  0.77250  0.75970  1.0000 0.0029259694
N   N32       1.0  0.22750  0.40330  0.75970  1.0000 0.0029259694
N   N33       1.0  0.59670  0.82420  0.75970  1.0000 0.0029259694
N   N34       1.0  0.82420  0.22750  0.25970  1.0000 0.0029259694
N   N35       1.0  0.77250  0.59670  0.25970  1.0000 0.0029259694
N   N36       1.0  0.40330  0.17580  0.25970  1.0000 0.0029259694
N   N37       1.0  0.69560  0.33430  0.42360  1.0000 0.1028688864
N   N38       1.0  0.66570  0.36130  0.42360  1.0000 0.1028688864
N   N39       1.0  0.63870  0.30440  0.42360  1.0000 0.1028688864
N   N40       1.0  0.30440  0.66570  0.92360  1.0000 0.1028688864
N   N41       1.0  0.33430  0.63870  0.92360  1.0000 0.1028688864
N   N42       1.0  0.36130  0.69560  0.92360  1.0000 0.1028688864
N   N43       1.0  0.71710  0.48050  0.79530  1.0000 -0.7065857254
N   N44       1.0  0.76340  0.28290  0.79530  1.0000 -0.7065857254
N   N45       1.0  0.51950  0.23660  0.79530  1.0000 -0.7065857254
N   N46       1.0  0.28290  0.51950  0.29530  1.0000 -0.7065857254
N   N47       1.0  0.23660  0.71710  0.29530  1.0000 -0.7065857254
N   N48       1.0  0.48050  0.76340  0.29530  1.0000 -0.7065857254
N   N49       1.0  0.66667  0.33333  0.92940  1.0000 -0.6999065581
N   N50       1.0  0.33333  0.66667  0.42940  1.0000 -0.6999065581
O   O1        1.0  0.63690  0.49500  0.51226  1.0000 -0.676218043
O   O2        1.0  0.50500  0.14190  0.51226  1.0000 -0.676218043
O   O3        1.0  0.85810  0.36310  0.51226  1.0000 -0.676218043
O   O4        1.0  0.36310  0.50500  0.01226  1.0000 -0.676218043
O   O5        1.0  0.49500  0.85810  0.01226  1.0000 -0.676218043
O   O6        1.0  0.14190  0.63690  0.01226  1.0000 -0.676218043
O   O7        1.0  0.52890  0.04270  0.36594  1.0000 -0.6299423347
O   O8        1.0  0.95730  0.48620  0.36594  1.0000 -0.6299423347
O   O9        1.0  0.51380  0.47110  0.36594  1.0000 -0.6299423347
O   O10       1.0  0.47110  0.95730  0.86594  1.0000 -0.6299423347
O   O11       1.0  0.04270  0.51380  0.86594  1.0000 -0.6299423347
O   O12       1.0  0.48620  0.52890  0.86594  1.0000 -0.6299423347
O   O13       1.0  0.44780  0.99120  0.44050  1.0000 -0.621159726
O   O14       1.0  0.00880  0.45660  0.44050  1.0000 -0.621159726
O   O15       1.0  0.54340  0.55220  0.44050  1.0000 -0.621159726
O   O16       1.0  0.55220  0.00880  0.94050  1.0000 -0.621159726
O   O17       1.0  0.99120  0.54340  0.94050  1.0000 -0.621159726
O   O18       1.0  0.45660  0.44780  0.94050  1.0000 -0.621159726
O   O19       1.0  0.62860  0.61041  0.36864  1.0000 -0.621159726
O   O20       1.0  0.38959  0.01819  0.36864  1.0000 -0.621159726
O   O21       1.0  0.98181  0.37140  0.36864  1.0000 -0.621159726
O   O22       1.0  0.37140  0.38959  0.86864  1.0000 -0.621159726
O   O23       1.0  0.61041  0.98181  0.86864  1.0000 -0.621159726
O   O24       1.0  0.01819  0.62860  0.86864  1.0000 -0.621159726
O   O25       1.0  0.43390  0.92604  0.32113  1.0000 -0.6493596139
O   O26       1.0  0.07396  0.50786  0.32113  1.0000 -0.6493596139
O   O27       1.0  0.49214  0.56610  0.32113  1.0000 -0.6493596139
O   O28       1.0  0.56610  0.07396  0.82113  1.0000 -0.6493596139
O   O29       1.0  0.92604  0.49214  0.82113  1.0000 -0.6493596139
O   O30       1.0  0.50786  0.43390  0.82113  1.0000 -0.6493596139
O   O31       1.0  0.34810  0.74910  0.17218  1.0000 -0.6357442442
O   O32       1.0  0.25090  0.59900  0.17218  1.0000 -0.6357442442
O   O33       1.0  0.40100  0.65190  0.17218  1.0000 -0.6357442442
O   O34       1.0  0.65190  0.25090  0.67218  1.0000 -0.6357442442
O   O35       1.0  0.74910  0.40100  0.67218  1.0000 -0.6357442442
O   O36       1.0  0.59900  0.34810  0.67218  1.0000 -0.6357442442
O   O37       1.0  0.74100  0.66990  0.39755  1.0000 -0.5166029833
O   O38       1.0  0.33010  0.07110  0.39755  1.0000 -0.5166029833
O   O39       1.0  0.92890  0.25900  0.39755  1.0000 -0.5166029833
O   O40       1.0  0.25900  0.33010  0.89755  1.0000 -0.5166029833
O   O41       1.0  0.66990  0.92890  0.89755  1.0000 -0.5166029833
O   O42       1.0  0.07110  0.74100  0.89755  1.0000 -0.5166029833
O   O43       1.0  0.47530  0.89370  0.40175  1.0000 -0.6299423347
O   O44       1.0  0.10630  0.58160  0.40175  1.0000 -0.6299423347
O   O45       1.0  0.41840  0.52470  0.40175  1.0000 -0.6299423347
O   O46       1.0  0.52470  0.10630  0.90175  1.0000 -0.6299423347
O   O47       1.0  0.89370  0.41840  0.90175  1.0000 -0.6299423347
O   O48       1.0  0.58160  0.47530  0.90175  1.0000 -0.6299423347
O   O49       1.0  0.54215  0.66590  0.39113  1.0000 -0.621159726
O   O50       1.0  0.33410  0.87625  0.39113  1.0000 -0.621159726
O   O51       1.0  0.12375  0.45785  0.39113  1.0000 -0.621159726
O   O52       1.0  0.45785  0.33410  0.89113  1.0000 -0.621159726
O   O53       1.0  0.66590  0.12375  0.89113  1.0000 -0.621159726
O   O54       1.0  0.87625  0.54215  0.89113  1.0000 -0.621159726
O   O55       1.0  0.27470  0.69600  0.09950  1.0000 -0.6299423347
O   O56       1.0  0.30400  0.57870  0.09950  1.0000 -0.6299423347
O   O57       1.0  0.42130  0.72530  0.09950  1.0000 -0.6299423347
O   O58       1.0  0.72530  0.30400  0.59950  1.0000 -0.6299423347
O   O59       1.0  0.69600  0.42130  0.59950  1.0000 -0.6299423347
O   O60       1.0  0.57870  0.27470  0.59950  1.0000 -0.6299423347
O   O61       1.0  0.44030  0.98970  0.51200  1.0000 -0.5166029833
O   O62       1.0  0.01030  0.45060  0.51200  1.0000 -0.5166029833
O   O63       1.0  0.54940  0.55970  0.51200  1.0000 -0.5166029833
O   O64       1.0  0.55970  0.01030  0.01200  1.0000 -0.5166029833
O   O65       1.0  0.98970  0.54940  0.01200  1.0000 -0.5166029833
O   O66       1.0  0.45060  0.44030  0.01200  1.0000 -0.5166029833
O   O67       1.0  0.59070  0.14890  0.33155  1.0000 -0.5089997354
O   O68       1.0  0.85110  0.44180  0.33155  1.0000 -0.5089997354
O   O69       1.0  0.55820  0.40930  0.33155  1.0000 -0.5089997354
O   O70       1.0  0.40930  0.85110  0.83155  1.0000 -0.5089997354
O   O71       1.0  0.14890  0.55820  0.83155  1.0000 -0.5089997354
O   O72       1.0  0.44180  0.59070  0.83155  1.0000 -0.5089997354
O   O73       1.0  0.21060  0.74670  0.07377  1.0000 -0.5333757503
O   O74       1.0  0.25330  0.46390  0.07377  1.0000 -0.5333757503
O   O75       1.0  0.53610  0.78940  0.07377  1.0000 -0.5333757503
O   O76       1.0  0.78940  0.25330  0.57377  1.0000 -0.5333757503
O   O77       1.0  0.74670  0.53610  0.57377  1.0000 -0.5333757503
O   O78       1.0  0.46390  0.21060  0.57377  1.0000 -0.5333757503
