# DDEC6 charges by PACMAN v1.1 (https://github.com/mtap-research/PACMAN-charge/)
data_2023[ZnTi][nan]3[ION]2
_chemical_formula_sum              "Ti8 Zn8 H308 C384 N50 O78"
_cell_length_a       20.5691
_cell_length_b       20.5691
_cell_length_c       30.7206
_cell_angle_alpha    90
_cell_angle_beta     90
_cell_angle_gamma    120

_symmetry_space_group_name_H-M    "P 1"
_symmetry_Int_Tables_number       1

loop_
  _symmetry_equiv_pos_as_xyz
  'x, y, z'

loop_
  _atom_site_type_symbol
  _atom_site_label
  _atom_site_symmetry_multiplicity
  _atom_site_fract_x
  _atom_site_fract_y
  _atom_site_fract_z
  _atom_site_occupancy
  _atom_site_charge
Ti  Ti1       1.0  0.33333  0.66667  0.86578  1.0000 1.8972645984
Ti  Ti2       1.0  0.66667  0.33333  0.36578  1.0000 1.8972645984
Ti  Ti3       1.0  0.43450  0.94994  0.62588  1.0000 1.8934795843
Ti  Ti4       1.0  0.05006  0.48456  0.62588  1.0000 1.8934795843
Ti  Ti5       1.0  0.51544  0.56550  0.62588  1.0000 1.8934795843
Ti  Ti6       1.0  0.56550  0.05006  0.12588  1.0000 1.8934795843
Ti  Ti7       1.0  0.94994  0.51544  0.12588  1.0000 1.8934795843
Ti  Ti8       1.0  0.48456  0.43450  0.12588  1.0000 1.8934795843
Zn  Zn1       1.0  0.66667  0.33333  0.51799  1.0000 0.5611470924
Zn  Zn2       1.0  0.33333  0.66667  0.01799  1.0000 0.5611470924
Zn  Zn3       1.0  0.73743  0.57210  0.61218  1.0000 0.7470410453
Zn  Zn4       1.0  0.42790  0.16533  0.61218  1.0000 0.7470410453
Zn  Zn5       1.0  0.83467  0.26257  0.61218  1.0000 0.7470410453
Zn  Zn6       1.0  0.26257  0.42790  0.11218  1.0000 0.7470410453
Zn  Zn7       1.0  0.57210  0.83467  0.11218  1.0000 0.7470410453
Zn  Zn8       1.0  0.16533  0.73743  0.11218  1.0000 0.7470410453
H   H1        1.0  0.77198  0.45813  0.51946  1.0000 0.2399830942
H   H2        1.0  0.54187  0.31385  0.51946  1.0000 0.2399830942
H   H3        1.0  0.68615  0.22802  0.51946  1.0000 0.2399830942
H   H4        1.0  0.22802  0.54187  0.01946  1.0000 0.2399830942
H   H5        1.0  0.45813  0.68615  0.01946  1.0000 0.2399830942
H   H6        1.0  0.31385  0.77198  0.01946  1.0000 0.2399830942
H   H7        1.0  0.79462  0.41101  0.49630  1.0000 0.3013617929
H   H8        1.0  0.58899  0.38361  0.49630  1.0000 0.3013617929
H   H9        1.0  0.61639  0.20538  0.49630  1.0000 0.3013617929
H   H10       1.0  0.20538  0.58899  0.99630  1.0000 0.3013617929
H   H11       1.0  0.41101  0.61639  0.99630  1.0000 0.3013617929
H   H12       1.0  0.38361  0.79462  0.99630  1.0000 0.3013617929
H   H13       1.0  0.75005  0.43803  0.47429  1.0000 0.3013617929
H   H14       1.0  0.56197  0.31202  0.47429  1.0000 0.3013617929
H   H15       1.0  0.68798  0.24995  0.47429  1.0000 0.3013617929
H   H16       1.0  0.24995  0.56197  0.97429  1.0000 0.3013617929
H   H17       1.0  0.43803  0.68798  0.97429  1.0000 0.3013617929
H   H18       1.0  0.31202  0.75005  0.97429  1.0000 0.3013617929
H   H19       1.0  0.60672  0.50813  0.48235  1.0000 0.3215750392
H   H20       1.0  0.49187  0.09859  0.48235  1.0000 0.3215750392
H   H21       1.0  0.90141  0.39328  0.48235  1.0000 0.3215750392
H   H22       1.0  0.39328  0.49187  0.98235  1.0000 0.3215750392
H   H23       1.0  0.50813  0.90141  0.98235  1.0000 0.3215750392
H   H24       1.0  0.09859  0.60672  0.98235  1.0000 0.3215750392
H   H25       1.0  0.67695  0.52006  0.47869  1.0000 0.3215750392
H   H26       1.0  0.47994  0.15689  0.47869  1.0000 0.3215750392
H   H27       1.0  0.84311  0.32305  0.47869  1.0000 0.3215750392
H   H28       1.0  0.32305  0.47994  0.97869  1.0000 0.3215750392
H   H29       1.0  0.52006  0.84311  0.97869  1.0000 0.3215750392
H   H30       1.0  0.15689  0.67695  0.97869  1.0000 0.3215750392
H   H31       1.0  0.64728  0.44416  0.59281  1.0000 0.2508927868
H   H32       1.0  0.55584  0.20312  0.59281  1.0000 0.2508927868
H   H33       1.0  0.79688  0.35272  0.59281  1.0000 0.2508927868
H   H34       1.0  0.35272  0.55584  0.09281  1.0000 0.2508927868
H   H35       1.0  0.44416  0.79688  0.09281  1.0000 0.2508927868
H   H36       1.0  0.20312  0.64728  0.09281  1.0000 0.2508927868
H   H37       1.0  0.60615  0.48307  0.60191  1.0000 0.2902026064
H   H38       1.0  0.51693  0.12308  0.60191  1.0000 0.2902026064
H   H39       1.0  0.87692  0.39385  0.60191  1.0000 0.2902026064
H   H40       1.0  0.39385  0.51693  0.10191  1.0000 0.2902026064
H   H41       1.0  0.48307  0.87692  0.10191  1.0000 0.2902026064
H   H42       1.0  0.12308  0.60615  0.10191  1.0000 0.2902026064
H   H43       1.0  0.64335  0.49328  0.56017  1.0000 0.3013617929
H   H44       1.0  0.50672  0.15007  0.56017  1.0000 0.3013617929
H   H45       1.0  0.84993  0.35665  0.56017  1.0000 0.3013617929
H   H46       1.0  0.35665  0.50672  0.06017  1.0000 0.3013617929
H   H47       1.0  0.49328  0.84993  0.06017  1.0000 0.3013617929
H   H48       1.0  0.15007  0.64335  0.06017  1.0000 0.3013617929
H   H49       1.0  0.41389  0.81835  0.77343  1.0000 0.119164644
H   H50       1.0  0.18165  0.59554  0.77343  1.0000 0.119164644
H   H51       1.0  0.40446  0.58611  0.77343  1.0000 0.119164644
H   H52       1.0  0.58611  0.18165  0.27343  1.0000 0.119164644
H   H53       1.0  0.81835  0.40446  0.27343  1.0000 0.119164644
H   H54       1.0  0.59554  0.41389  0.27343  1.0000 0.119164644
H   H55       1.0  0.37426  0.83379  0.73464  1.0000 0.112286754
H   H56       1.0  0.16621  0.54047  0.73464  1.0000 0.112286754
H   H57       1.0  0.45953  0.62574  0.73464  1.0000 0.112286754
H   H58       1.0  0.62574  0.16621  0.23464  1.0000 0.112286754
H   H59       1.0  0.83379  0.45953  0.23464  1.0000 0.112286754
H   H60       1.0  0.54047  0.37426  0.23464  1.0000 0.112286754
H   H61       1.0  0.46565  0.89953  0.46049  1.0000 0.119164644
H   H62       1.0  0.10047  0.56612  0.46049  1.0000 0.119164644
H   H63       1.0  0.43388  0.53435  0.46049  1.0000 0.119164644
H   H64       1.0  0.53435  0.10047  0.96049  1.0000 0.119164644
H   H65       1.0  0.89953  0.43388  0.96049  1.0000 0.119164644
H   H66       1.0  0.56612  0.46565  0.96049  1.0000 0.119164644
H   H67       1.0  0.51810  0.81608  0.62472  1.0000 0.119164644
H   H68       1.0  0.18392  0.70202  0.62472  1.0000 0.119164644
H   H69       1.0  0.29798  0.48190  0.62472  1.0000 0.119164644
H   H70       1.0  0.48190  0.18392  0.12472  1.0000 0.119164644
H   H71       1.0  0.81608  0.29798  0.12472  1.0000 0.119164644
H   H72       1.0  0.70202  0.51810  0.12472  1.0000 0.119164644
H   H73       1.0  0.48740  0.73799  0.60249  1.0000 0.119164644
H   H74       1.0  0.26201  0.74941  0.60249  1.0000 0.119164644
H   H75       1.0  0.25059  0.51260  0.60249  1.0000 0.119164644
H   H76       1.0  0.51260  0.26201  0.10249  1.0000 0.119164644
H   H77       1.0  0.73799  0.25059  0.10249  1.0000 0.119164644
H   H78       1.0  0.74941  0.48740  0.10249  1.0000 0.119164644
H   H79       1.0  0.45557  0.87860  0.84137  1.0000 0.1298811411
H   H80       1.0  0.12140  0.57697  0.84137  1.0000 0.1298811411
H   H81       1.0  0.42303  0.54443  0.84137  1.0000 0.1298811411
H   H82       1.0  0.54443  0.12140  0.34137  1.0000 0.1298811411
H   H83       1.0  0.87860  0.42303  0.34137  1.0000 0.1298811411
H   H84       1.0  0.57697  0.45557  0.34137  1.0000 0.1298811411
H   H85       1.0  0.52268  0.72847  0.40590  1.0000 0.112286754
H   H86       1.0  0.27153  0.79421  0.40590  1.0000 0.112286754
H   H87       1.0  0.20579  0.47732  0.40590  1.0000 0.112286754
H   H88       1.0  0.47732  0.27153  0.90590  1.0000 0.112286754
H   H89       1.0  0.72847  0.20579  0.90590  1.0000 0.112286754
H   H90       1.0  0.79421  0.52268  0.90590  1.0000 0.112286754
H   H91       1.0  0.48885  0.81721  0.41375  1.0000 0.119164644
H   H92       1.0  0.18279  0.67164  0.41375  1.0000 0.119164644
H   H93       1.0  0.32836  0.51115  0.41375  1.0000 0.119164644
H   H94       1.0  0.51115  0.18279  0.91375  1.0000 0.119164644
H   H95       1.0  0.81721  0.32836  0.91375  1.0000 0.119164644
H   H96       1.0  0.67164  0.48885  0.91375  1.0000 0.119164644
H   H97       1.0  0.84921  0.50953  0.60736  1.0000 0.1298811411
H   H98       1.0  0.49047  0.33968  0.60736  1.0000 0.1298811411
H   H99       1.0  0.66032  0.15079  0.60736  1.0000 0.1298811411
H   H100      1.0  0.15079  0.49047  0.10736  1.0000 0.1298811411
H   H101      1.0  0.50953  0.66032  0.10736  1.0000 0.1298811411
H   H102      1.0  0.33968  0.84921  0.10736  1.0000 0.1298811411
H   H103      1.0  0.83209  0.64541  0.52407  1.0000 0.1298811411
H   H104      1.0  0.35459  0.18668  0.52407  1.0000 0.1298811411
H   H105      1.0  0.81332  0.16791  0.52407  1.0000 0.1298811411
H   H106      1.0  0.16791  0.35459  0.02407  1.0000 0.1298811411
H   H107      1.0  0.64541  0.81332  0.02407  1.0000 0.1298811411
H   H108      1.0  0.18668  0.83209  0.02407  1.0000 0.1298811411
H   H109      1.0  0.94322  0.53852  0.55032  1.0000 0.1427331752
H   H110      1.0  0.46148  0.40470  0.55032  1.0000 0.1427331752
H   H111      1.0  0.59530  0.05678  0.55032  1.0000 0.1427331752
H   H112      1.0  0.05678  0.46148  0.05032  1.0000 0.1427331752
H   H113      1.0  0.53852  0.59530  0.05032  1.0000 0.1427331752
H   H114      1.0  0.40470  0.94322  0.05032  1.0000 0.1427331752
H   H115      1.0  0.52812  0.94363  0.90058  1.0000 0.119164644
H   H116      1.0  0.05637  0.58449  0.90058  1.0000 0.119164644
H   H117      1.0  0.41551  0.47188  0.90058  1.0000 0.119164644
H   H118      1.0  0.47188  0.05637  0.40058  1.0000 0.119164644
H   H119      1.0  0.94363  0.41551  0.40058  1.0000 0.119164644
H   H120      1.0  0.58449  0.52812  0.40058  1.0000 0.119164644
H   H121      1.0  0.60865  0.12929  0.75219  1.0000 0.112286754
H   H122      1.0  0.87071  0.47936  0.75219  1.0000 0.112286754
H   H123      1.0  0.52064  0.39135  0.75219  1.0000 0.112286754
H   H124      1.0  0.39135  0.87071  0.25219  1.0000 0.112286754
H   H125      1.0  0.12929  0.52064  0.25219  1.0000 0.112286754
H   H126      1.0  0.47936  0.60865  0.25219  1.0000 0.112286754
H   H127      1.0  0.20152  0.83117  0.88074  1.0000 0.119164644
H   H128      1.0  0.16883  0.37035  0.88074  1.0000 0.119164644
H   H129      1.0  0.62965  0.79848  0.88074  1.0000 0.119164644
H   H130      1.0  0.79848  0.16883  0.38074  1.0000 0.119164644
H   H131      1.0  0.83117  0.62965  0.38074  1.0000 0.119164644
H   H132      1.0  0.37035  0.20152  0.38074  1.0000 0.119164644
H   H133      1.0  0.11268  0.68729  0.20779  1.0000 0.1298811411
H   H134      1.0  0.31271  0.42539  0.20779  1.0000 0.1298811411
H   H135      1.0  0.57461  0.88732  0.20779  1.0000 0.1298811411
H   H136      1.0  0.88732  0.31271  0.70779  1.0000 0.1298811411
H   H137      1.0  0.68729  0.57461  0.70779  1.0000 0.1298811411
H   H138      1.0  0.42539  0.11268  0.70779  1.0000 0.1298811411
H   H139      1.0  0.78719  0.80824  0.60623  1.0000 0.119164644
H   H140      1.0  0.19176  0.97895  0.60623  1.0000 0.119164644
H   H141      1.0  0.02105  0.21281  0.60623  1.0000 0.119164644
H   H142      1.0  0.21281  0.19176  0.10623  1.0000 0.119164644
H   H143      1.0  0.80824  0.02105  0.10623  1.0000 0.119164644
H   H144      1.0  0.97895  0.78719  0.10623  1.0000 0.119164644
H   H145      1.0  0.18536  0.85891  0.31046  1.0000 0.1298811411
H   H146      1.0  0.14109  0.32645  0.31046  1.0000 0.1298811411
H   H147      1.0  0.67355  0.81464  0.31046  1.0000 0.1298811411
H   H148      1.0  0.81464  0.14109  0.81046  1.0000 0.1298811411
H   H149      1.0  0.85891  0.67355  0.81046  1.0000 0.1298811411
H   H150      1.0  0.32645  0.18536  0.81046  1.0000 0.1298811411
H   H151      1.0  0.12655  0.82123  0.37784  1.0000 0.119164644
H   H152      1.0  0.17877  0.30532  0.37784  1.0000 0.119164644
H   H153      1.0  0.69468  0.87345  0.37784  1.0000 0.119164644
H   H154      1.0  0.87345  0.17877  0.87784  1.0000 0.119164644
H   H155      1.0  0.82123  0.69468  0.87784  1.0000 0.119164644
H   H156      1.0  0.30532  0.12655  0.87784  1.0000 0.119164644
H   H157      1.0  0.54930  0.67784  0.46600  1.0000 0.112286754
H   H158      1.0  0.32216  0.87146  0.46600  1.0000 0.112286754
H   H159      1.0  0.12854  0.45070  0.46600  1.0000 0.112286754
H   H160      1.0  0.45070  0.32216  0.96600  1.0000 0.112286754
H   H161      1.0  0.67784  0.12854  0.96600  1.0000 0.112286754
H   H162      1.0  0.87146  0.54930  0.96600  1.0000 0.112286754
H   H163      1.0  0.33120  0.92316  0.72721  1.0000 0.1298811411
H   H164      1.0  0.07684  0.40804  0.72721  1.0000 0.1298811411
H   H165      1.0  0.59196  0.66880  0.72721  1.0000 0.1298811411
H   H166      1.0  0.66880  0.07684  0.22721  1.0000 0.1298811411
H   H167      1.0  0.92316  0.59196  0.22721  1.0000 0.1298811411
H   H168      1.0  0.40804  0.33120  0.22721  1.0000 0.1298811411
H   H169      1.0  0.63817  0.13164  0.83104  1.0000 0.112286754
H   H170      1.0  0.86836  0.50653  0.83104  1.0000 0.112286754
H   H171      1.0  0.49347  0.36183  0.83104  1.0000 0.112286754
H   H172      1.0  0.36183  0.86836  0.33104  1.0000 0.112286754
H   H173      1.0  0.13164  0.49347  0.33104  1.0000 0.112286754
H   H174      1.0  0.50653  0.63817  0.33104  1.0000 0.112286754
H   H175      1.0  0.92217  0.53207  0.46146  1.0000 0.1427331752
H   H176      1.0  0.46793  0.39010  0.46146  1.0000 0.1427331752
H   H177      1.0  0.60990  0.07783  0.46146  1.0000 0.1427331752
H   H178      1.0  0.07783  0.46793  0.96146  1.0000 0.1427331752
H   H179      1.0  0.53207  0.60990  0.96146  1.0000 0.1427331752
H   H180      1.0  0.39010  0.92217  0.96146  1.0000 0.1427331752
H   H181      1.0  0.53636  0.71250  0.53507  1.0000 0.119164644
H   H182      1.0  0.28750  0.82386  0.53507  1.0000 0.119164644
H   H183      1.0  0.17614  0.46364  0.53507  1.0000 0.119164644
H   H184      1.0  0.46364  0.28750  0.03507  1.0000 0.119164644
H   H185      1.0  0.71250  0.17614  0.03507  1.0000 0.119164644
H   H186      1.0  0.82386  0.53636  0.03507  1.0000 0.119164644
H   H187      1.0  0.72997  0.04741  0.60251  1.0000 0.10344946
H   H188      1.0  0.95259  0.68256  0.60251  1.0000 0.10344946
H   H189      1.0  0.31744  0.27003  0.60251  1.0000 0.10344946
H   H190      1.0  0.27003  0.95259  0.10251  1.0000 0.10344946
H   H191      1.0  0.04741  0.31744  0.10251  1.0000 0.10344946
H   H192      1.0  0.68256  0.72997  0.10251  1.0000 0.10344946
H   H193      1.0  0.17859  0.92230  0.83905  1.0000 0.119164644
H   H194      1.0  0.07770  0.25629  0.83905  1.0000 0.119164644
H   H195      1.0  0.74371  0.82141  0.83905  1.0000 0.119164644
H   H196      1.0  0.82141  0.07770  0.33905  1.0000 0.119164644
H   H197      1.0  0.92230  0.74371  0.33905  1.0000 0.119164644
H   H198      1.0  0.25629  0.17859  0.33905  1.0000 0.119164644
H   H199      1.0  0.26489  0.88764  0.24960  1.0000 0.1298811411
H   H200      1.0  0.11236  0.37725  0.24960  1.0000 0.1298811411
H   H201      1.0  0.62275  0.73511  0.24960  1.0000 0.1298811411
H   H202      1.0  0.73511  0.11236  0.74960  1.0000 0.1298811411
H   H203      1.0  0.88764  0.62275  0.74960  1.0000 0.1298811411
H   H204      1.0  0.37725  0.26489  0.74960  1.0000 0.1298811411
H   H205      1.0  0.61976  0.93508  0.60317  1.0000 0.119164644
H   H206      1.0  0.06492  0.68468  0.60317  1.0000 0.119164644
H   H207      1.0  0.31532  0.38024  0.60317  1.0000 0.119164644
H   H208      1.0  0.38024  0.06492  0.10317  1.0000 0.119164644
H   H209      1.0  0.93508  0.31532  0.10317  1.0000 0.119164644
H   H210      1.0  0.68468  0.61976  0.10317  1.0000 0.119164644
H   H211      1.0  0.26602  0.98629  0.72050  1.0000 0.112286754
H   H212      1.0  0.01371  0.27973  0.72050  1.0000 0.112286754
H   H213      1.0  0.72027  0.73398  0.72050  1.0000 0.112286754
H   H214      1.0  0.73398  0.01371  0.22050  1.0000 0.112286754
H   H215      1.0  0.98629  0.72027  0.22050  1.0000 0.112286754
H   H216      1.0  0.27973  0.26602  0.22050  1.0000 0.112286754
H   H217      1.0  0.61738  0.07125  0.89531  1.0000 0.119164644
H   H218      1.0  0.92875  0.54613  0.89531  1.0000 0.119164644
H   H219      1.0  0.45387  0.38262  0.89531  1.0000 0.119164644
H   H220      1.0  0.38262  0.92875  0.39531  1.0000 0.119164644
H   H221      1.0  0.07125  0.45387  0.39531  1.0000 0.119164644
H   H222      1.0  0.54613  0.61738  0.39531  1.0000 0.119164644
H   H223      1.0  0.27825  0.88142  0.17098  1.0000 0.1298811411
H   H224      1.0  0.11858  0.39683  0.17098  1.0000 0.1298811411
H   H225      1.0  0.60317  0.72175  0.17098  1.0000 0.1298811411
H   H226      1.0  0.72175  0.11858  0.67098  1.0000 0.1298811411
H   H227      1.0  0.88142  0.60317  0.67098  1.0000 0.1298811411
H   H228      1.0  0.39683  0.27825  0.67098  1.0000 0.1298811411
H   H229      1.0  0.19269  0.98812  0.77819  1.0000 0.112286754
H   H230      1.0  0.01188  0.20457  0.77819  1.0000 0.112286754
H   H231      1.0  0.79543  0.80731  0.77819  1.0000 0.112286754
H   H232      1.0  0.80731  0.01188  0.27819  1.0000 0.112286754
H   H233      1.0  0.98812  0.79543  0.27819  1.0000 0.112286754
H   H234      1.0  0.20457  0.19269  0.27819  1.0000 0.112286754
H   H235      1.0  0.10256  0.64575  0.27687  1.0000 0.119164644
H   H236      1.0  0.35425  0.45681  0.27687  1.0000 0.119164644
H   H237      1.0  0.54319  0.89744  0.27687  1.0000 0.119164644
H   H238      1.0  0.89744  0.35425  0.77687  1.0000 0.119164644
H   H239      1.0  0.64575  0.54319  0.77687  1.0000 0.119164644
H   H240      1.0  0.45681  0.10256  0.77687  1.0000 0.119164644
H   H241      1.0  0.85126  0.94669  0.60589  1.0000 0.119164644
H   H242      1.0  0.05331  0.90457  0.60589  1.0000 0.119164644
H   H243      1.0  0.09543  0.14874  0.60589  1.0000 0.119164644
H   H244      1.0  0.14874  0.05331  0.10589  1.0000 0.119164644
H   H245      1.0  0.94669  0.09543  0.10589  1.0000 0.119164644
H   H246      1.0  0.90457  0.85126  0.10589  1.0000 0.119164644
H   H247      1.0  0.98961  0.57523  0.39895  1.0000 0.119164644
H   H248      1.0  0.42477  0.41438  0.39895  1.0000 0.119164644
H   H249      1.0  0.58562  0.01039  0.39895  1.0000 0.119164644
H   H250      1.0  0.01039  0.42477  0.89895  1.0000 0.119164644
H   H251      1.0  0.57523  0.58562  0.89895  1.0000 0.119164644
H   H252      1.0  0.41438  0.98961  0.89895  1.0000 0.119164644
H   H253      1.0  0.04035  0.60772  0.34316  1.0000 0.112286754
H   H254      1.0  0.39228  0.43263  0.34316  1.0000 0.112286754
H   H255      1.0  0.56737  0.95965  0.34316  1.0000 0.112286754
H   H256      1.0  0.95965  0.39228  0.84316  1.0000 0.112286754
H   H257      1.0  0.60772  0.56737  0.84316  1.0000 0.112286754
H   H258      1.0  0.43263  0.04035  0.84316  1.0000 0.112286754
H   H259      1.0  0.84456  0.05354  0.60076  1.0000 0.119164644
H   H260      1.0  0.94646  0.79102  0.60076  1.0000 0.119164644
H   H261      1.0  0.20898  0.15544  0.60076  1.0000 0.119164644
H   H262      1.0  0.15544  0.94646  0.10076  1.0000 0.119164644
H   H263      1.0  0.05354  0.20898  0.10076  1.0000 0.119164644
H   H264      1.0  0.79102  0.84456  0.10076  1.0000 0.119164644
H   H265      1.0  0.05209  0.78000  0.43084  1.0000 0.119164644
H   H266      1.0  0.22000  0.27209  0.43084  1.0000 0.119164644
H   H267      1.0  0.72791  0.94791  0.43084  1.0000 0.119164644
H   H268      1.0  0.94791  0.22000  0.93084  1.0000 0.119164644
H   H269      1.0  0.78000  0.72791  0.93084  1.0000 0.119164644
H   H270      1.0  0.27209  0.05209  0.93084  1.0000 0.119164644
H   H271      1.0  0.00750  0.74015  0.50149  1.0000 0.1298811411
H   H272      1.0  0.25985  0.26735  0.50149  1.0000 0.1298811411
H   H273      1.0  0.73265  0.99250  0.50149  1.0000 0.1298811411
H   H274      1.0  0.99250  0.25985  0.00149  1.0000 0.1298811411
H   H275      1.0  0.74015  0.73265  0.00149  1.0000 0.1298811411
H   H276      1.0  0.26735  0.00750  0.00149  1.0000 0.1298811411
H   H277      1.0  0.70779  0.47627  0.18241  1.0000 0.2205901331
H   H278      1.0  0.73975  0.46136  0.22071  1.0000 0.213590027
H   H279      1.0  0.66155  0.44232  0.22071  1.0000 0.213590027
H   H280      1.0  0.72100  0.52154  0.22189  1.0000 0.2309856575
H   H281      1.0  0.76848  0.29221  0.18241  1.0000 0.2205901331
H   H282      1.0  0.72161  0.26025  0.22071  1.0000 0.213590027
H   H283      1.0  0.78077  0.33845  0.22071  1.0000 0.213590027
H   H284      1.0  0.80054  0.27900  0.22189  1.0000 0.2309856575
H   H285      1.0  0.52373  0.23152  0.18241  1.0000 0.2205901331
H   H286      1.0  0.53864  0.27839  0.22071  1.0000 0.213590027
H   H287      1.0  0.55768  0.21923  0.22071  1.0000 0.213590027
H   H288      1.0  0.47846  0.19946  0.22189  1.0000 0.2309856575
H   H289      1.0  0.29221  0.52373  0.68241  1.0000 0.2205901331
H   H290      1.0  0.26025  0.53864  0.72071  1.0000 0.213590027
H   H291      1.0  0.33845  0.55768  0.72071  1.0000 0.213590027
H   H292      1.0  0.27900  0.47846  0.72189  1.0000 0.2309856575
H   H293      1.0  0.23152  0.70779  0.68241  1.0000 0.2205901331
H   H294      1.0  0.27839  0.73975  0.72071  1.0000 0.213590027
H   H295      1.0  0.21923  0.66155  0.72071  1.0000 0.213590027
H   H296      1.0  0.19946  0.72100  0.72189  1.0000 0.2309856575
H   H297      1.0  0.47627  0.76848  0.68241  1.0000 0.2205901331
H   H298      1.0  0.46136  0.72161  0.72071  1.0000 0.213590027
H   H299      1.0  0.44232  0.78077  0.72071  1.0000 0.213590027
H   H300      1.0  0.52154  0.80054  0.72189  1.0000 0.2309856575
H   H301      1.0  0.62587  0.29254  0.07018  1.0000 0.213590027
H   H302      1.0  0.70746  0.33333  0.07018  1.0000 0.213590027
H   H303      1.0  0.66667  0.37413  0.07018  1.0000 0.213590027
H   H304      1.0  0.66667  0.33333  0.10949  1.0000 0.2399830942
H   H305      1.0  0.37413  0.70746  0.57018  1.0000 0.213590027
H   H306      1.0  0.29254  0.66667  0.57018  1.0000 0.213590027
H   H307      1.0  0.33333  0.62587  0.57018  1.0000 0.213590027
H   H308      1.0  0.33333  0.66667  0.60949  1.0000 0.2399830942
C   C1        1.0  0.55330  0.08260  0.67479  1.0000 0.5924483971
C   C2        1.0  0.91740  0.47070  0.67479  1.0000 0.5924483971
C   C3        1.0  0.52930  0.44670  0.67479  1.0000 0.5924483971
C   C4        1.0  0.44670  0.91740  0.17479  1.0000 0.5924483971
C   C5        1.0  0.08260  0.52930  0.17479  1.0000 0.5924483971
C   C6        1.0  0.47070  0.55330  0.17479  1.0000 0.5924483971
C   C7        1.0  0.49490  0.82460  0.48052  1.0000 0.0601554853
C   C8        1.0  0.17540  0.67030  0.48052  1.0000 0.0601554853
C   C9        1.0  0.32970  0.50510  0.48052  1.0000 0.0601554853
C   C10       1.0  0.50510  0.17540  0.98052  1.0000 0.0601554853
C   C11       1.0  0.82460  0.32970  0.98052  1.0000 0.0601554853
C   C12       1.0  0.67030  0.49490  0.98052  1.0000 0.0601554853
C   C13       1.0  0.31330  0.78990  0.82906  1.0000 0.2399830942
C   C14       1.0  0.21010  0.52340  0.82906  1.0000 0.2399830942
C   C15       1.0  0.47660  0.68670  0.82906  1.0000 0.2399830942
C   C16       1.0  0.68670  0.21010  0.32906  1.0000 0.2399830942
C   C17       1.0  0.78990  0.47660  0.32906  1.0000 0.2399830942
C   C18       1.0  0.52340  0.31330  0.32906  1.0000 0.2399830942
C   C19       1.0  0.67570  0.73620  0.61190  1.0000 -0.171449526
C   C20       1.0  0.26380  0.93950  0.61190  1.0000 -0.171449526
C   C21       1.0  0.06050  0.32430  0.61190  1.0000 -0.171449526
C   C22       1.0  0.32430  0.26380  0.11190  1.0000 -0.171449526
C   C23       1.0  0.73620  0.06050  0.11190  1.0000 -0.171449526
C   C24       1.0  0.93950  0.67570  0.11190  1.0000 -0.171449526
C   C25       1.0  0.60480  0.73240  0.61159  1.0000 0.2604704933
C   C26       1.0  0.26760  0.87240  0.61159  1.0000 0.2604704933
C   C27       1.0  0.12760  0.39520  0.61159  1.0000 0.2604704933
C   C28       1.0  0.39520  0.26760  0.11159  1.0000 0.2604704933
C   C29       1.0  0.73240  0.12760  0.11159  1.0000 0.2604704933
C   C30       1.0  0.87240  0.60480  0.11159  1.0000 0.2604704933
C   C31       1.0  0.50700  0.82000  0.55991  1.0000 -0.026565271
C   C32       1.0  0.18000  0.68700  0.55991  1.0000 -0.026565271
C   C33       1.0  0.31300  0.49300  0.55991  1.0000 -0.026565271
C   C34       1.0  0.49300  0.18000  0.05991  1.0000 -0.026565271
C   C35       1.0  0.82000  0.31300  0.05991  1.0000 -0.026565271
C   C36       1.0  0.68700  0.50700  0.05991  1.0000 -0.026565271
C   C37       1.0  0.44860  0.96480  0.52783  1.0000 0.5924483971
C   C38       1.0  0.03520  0.48380  0.52783  1.0000 0.5924483971
C   C39       1.0  0.51620  0.55140  0.52783  1.0000 0.5924483971
C   C40       1.0  0.55140  0.03520  0.02783  1.0000 0.5924483971
C   C41       1.0  0.96480  0.51620  0.02783  1.0000 0.5924483971
C   C42       1.0  0.48380  0.44860  0.02783  1.0000 0.5924483971
C   C43       1.0  0.51130  0.79360  0.51795  1.0000 0.0401918406
C   C44       1.0  0.20640  0.71770  0.51795  1.0000 0.0401918406
C   C45       1.0  0.28230  0.48870  0.51795  1.0000 0.0401918406
C   C46       1.0  0.48870  0.20640  0.01795  1.0000 0.0401918406
C   C47       1.0  0.79360  0.28230  0.01795  1.0000 0.0401918406
C   C48       1.0  0.71770  0.51130  0.01795  1.0000 0.0401918406
C   C49       1.0  0.68220  0.66890  0.61841  1.0000 0.6079599744
C   C50       1.0  0.33110  0.01330  0.61841  1.0000 0.6079599744
C   C51       1.0  0.98670  0.31780  0.61841  1.0000 0.6079599744
C   C52       1.0  0.31780  0.33110  0.11841  1.0000 0.6079599744
C   C53       1.0  0.66890  0.98670  0.11841  1.0000 0.6079599744
C   C54       1.0  0.01330  0.68220  0.11841  1.0000 0.6079599744
C   C55       1.0  0.39460  0.85030  0.76363  1.0000 -0.2546177371
C   C56       1.0  0.14970  0.54430  0.76363  1.0000 -0.2546177371
C   C57       1.0  0.45570  0.60540  0.76363  1.0000 -0.2546177371
C   C58       1.0  0.60540  0.14970  0.26363  1.0000 -0.2546177371
C   C59       1.0  0.85030  0.45570  0.26363  1.0000 -0.2546177371
C   C60       1.0  0.54430  0.39460  0.26363  1.0000 -0.2546177371
C   C61       1.0  0.33050  0.83820  0.79378  1.0000 -0.026565271
C   C62       1.0  0.16180  0.49230  0.79378  1.0000 -0.026565271
C   C63       1.0  0.50770  0.66950  0.79378  1.0000 -0.026565271
C   C64       1.0  0.66950  0.16180  0.29378  1.0000 -0.026565271
C   C65       1.0  0.83820  0.50770  0.29378  1.0000 -0.026565271
C   C66       1.0  0.49230  0.33050  0.29378  1.0000 -0.026565271
C   C67       1.0  0.47490  0.87920  0.48515  1.0000 -0.1512771039
C   C68       1.0  0.12080  0.59570  0.48515  1.0000 -0.1512771039
C   C69       1.0  0.40430  0.52510  0.48515  1.0000 -0.1512771039
C   C70       1.0  0.52510  0.12080  0.98515  1.0000 -0.1512771039
C   C71       1.0  0.87920  0.40430  0.98515  1.0000 -0.1512771039
C   C72       1.0  0.59570  0.47490  0.98515  1.0000 -0.1512771039
C   C73       1.0  0.53300  0.04150  0.71717  1.0000 -0.171449526
C   C74       1.0  0.95850  0.49150  0.71717  1.0000 -0.171449526
C   C75       1.0  0.50850  0.46700  0.71717  1.0000 -0.171449526
C   C76       1.0  0.46700  0.95850  0.21717  1.0000 -0.171449526
C   C77       1.0  0.04150  0.50850  0.21717  1.0000 -0.171449526
C   C78       1.0  0.49150  0.53300  0.21717  1.0000 -0.171449526
C   C79       1.0  0.52480  0.79070  0.59996  1.0000 -0.2588197007
C   C80       1.0  0.20930  0.73410  0.59996  1.0000 -0.2588197007
C   C81       1.0  0.26590  0.47520  0.59996  1.0000 -0.2588197007
C   C82       1.0  0.47520  0.20930  0.09996  1.0000 -0.2588197007
C   C83       1.0  0.79070  0.26590  0.09996  1.0000 -0.2588197007
C   C84       1.0  0.73410  0.52480  0.09996  1.0000 -0.2588197007
C   C85       1.0  0.46830  0.90390  0.52595  1.0000 -0.171449526
C   C86       1.0  0.09610  0.56440  0.52595  1.0000 -0.171449526
C   C87       1.0  0.43560  0.53170  0.52595  1.0000 -0.171449526
C   C88       1.0  0.53170  0.09610  0.02595  1.0000 -0.171449526
C   C89       1.0  0.90390  0.43560  0.02595  1.0000 -0.171449526
C   C90       1.0  0.56440  0.46830  0.02595  1.0000 -0.171449526
C   C91       1.0  0.59960  0.79720  0.60444  1.0000 -0.026565271
C   C92       1.0  0.20280  0.80240  0.60444  1.0000 -0.026565271
C   C93       1.0  0.19760  0.40040  0.60444  1.0000 -0.026565271
C   C94       1.0  0.40040  0.20280  0.10444  1.0000 -0.026565271
C   C95       1.0  0.79720  0.19760  0.10444  1.0000 -0.026565271
C   C96       1.0  0.80240  0.59960  0.10444  1.0000 -0.026565271
C   C97       1.0  0.26360  0.78690  0.86226  1.0000 -0.1603250983
C   C98       1.0  0.21310  0.47670  0.86226  1.0000 -0.1603250983
C   C99       1.0  0.52330  0.73640  0.86226  1.0000 -0.1603250983
C   C100      1.0  0.73640  0.21310  0.36226  1.0000 -0.1603250983
C   C101      1.0  0.78690  0.52330  0.36226  1.0000 -0.1603250983
C   C102      1.0  0.47670  0.26360  0.36226  1.0000 -0.1603250983
C   C103      1.0  0.24870  0.74090  0.90235  1.0000 0.6079599744
C   C104      1.0  0.25910  0.50780  0.90235  1.0000 0.6079599744
C   C105      1.0  0.49220  0.75130  0.90235  1.0000 0.6079599744
C   C106      1.0  0.75130  0.25910  0.40235  1.0000 0.6079599744
C   C107      1.0  0.74090  0.49220  0.40235  1.0000 0.6079599744
C   C108      1.0  0.50780  0.24870  0.40235  1.0000 0.6079599744
C   C109      1.0  0.48340  0.87270  0.56366  1.0000 0.2399830942
C   C110      1.0  0.12730  0.61070  0.56366  1.0000 0.2399830942
C   C111      1.0  0.38930  0.51660  0.56366  1.0000 0.2399830942
C   C112      1.0  0.51660  0.12730  0.06366  1.0000 0.2399830942
C   C113      1.0  0.87270  0.38930  0.06366  1.0000 0.2399830942
C   C114      1.0  0.61070  0.48340  0.06366  1.0000 0.2399830942
C   C115      1.0  0.29380  0.87950  0.78840  1.0000 0.0401918406
C   C116      1.0  0.12050  0.41430  0.78840  1.0000 0.0401918406
C   C117      1.0  0.58570  0.70620  0.78840  1.0000 0.0401918406
C   C118      1.0  0.70620  0.12050  0.28840  1.0000 0.0401918406
C   C119      1.0  0.87950  0.58570  0.28840  1.0000 0.0401918406
C   C120      1.0  0.41430  0.29380  0.28840  1.0000 0.0401918406
C   C121      1.0  0.49160  0.92910  0.83864  1.0000 -0.129272603
C   C122      1.0  0.07090  0.56250  0.83864  1.0000 -0.129272603
C   C123      1.0  0.43750  0.50840  0.83864  1.0000 -0.129272603
C   C124      1.0  0.50840  0.07090  0.33864  1.0000 -0.129272603
C   C125      1.0  0.92910  0.43750  0.33864  1.0000 -0.129272603
C   C126      1.0  0.56250  0.49160  0.33864  1.0000 -0.129272603
C   C127      1.0  0.47580  0.96550  0.72051  1.0000 0.2399830942
C   C128      1.0  0.03450  0.51030  0.72051  1.0000 0.2399830942
C   C129      1.0  0.48970  0.52420  0.72051  1.0000 0.2399830942
C   C130      1.0  0.52420  0.03450  0.22051  1.0000 0.2399830942
C   C131      1.0  0.96550  0.48970  0.22051  1.0000 0.2399830942
C   C132      1.0  0.51030  0.47580  0.22051  1.0000 0.2399830942
C   C133      1.0  0.07180  0.71020  0.36680  1.0000 0.0688685985
C   C134      1.0  0.28980  0.36160  0.36680  1.0000 0.0688685985
C   C135      1.0  0.63840  0.92820  0.36680  1.0000 0.0688685985
C   C136      1.0  0.92820  0.28980  0.86680  1.0000 0.0688685985
C   C137      1.0  0.71020  0.63840  0.86680  1.0000 0.0688685985
C   C138      1.0  0.36160  0.07180  0.86680  1.0000 0.0688685985
C   C139      1.0  0.55900  0.04230  0.79422  1.0000 0.0472583366
C   C140      1.0  0.95770  0.51670  0.79422  1.0000 0.0472583366
C   C141      1.0  0.48330  0.44100  0.79422  1.0000 0.0472583366
C   C142      1.0  0.44100  0.95770  0.29422  1.0000 0.0472583366
C   C143      1.0  0.04230  0.48330  0.29422  1.0000 0.0472583366
C   C144      1.0  0.51670  0.55900  0.29422  1.0000 0.0472583366
C   C145      1.0  0.51930  0.74470  0.43360  1.0000 -0.1013437955
C   C146      1.0  0.25530  0.77460  0.43360  1.0000 -0.1013437955
C   C147      1.0  0.22540  0.48070  0.43360  1.0000 -0.1013437955
C   C148      1.0  0.48070  0.25530  0.93360  1.0000 -0.1013437955
C   C149      1.0  0.74470  0.22540  0.93360  1.0000 -0.1013437955
C   C150      1.0  0.77460  0.51930  0.93360  1.0000 -0.1013437955
C   C151      1.0  0.14650  0.75450  0.28710  1.0000 0.149273126
C   C152      1.0  0.24550  0.39200  0.28710  1.0000 0.149273126
C   C153      1.0  0.60800  0.85350  0.28710  1.0000 0.149273126
C   C154      1.0  0.85350  0.24550  0.78710  1.0000 0.149273126
C   C155      1.0  0.75450  0.60800  0.78710  1.0000 0.149273126
C   C156      1.0  0.39200  0.14650  0.78710  1.0000 0.149273126
C   C157      1.0  0.02970  0.68400  0.40860  1.0000 0.0601554853
C   C158      1.0  0.31600  0.34570  0.40860  1.0000 0.0601554853
C   C159      1.0  0.65430  0.97030  0.40860  1.0000 0.0601554853
C   C160      1.0  0.97030  0.31600  0.90860  1.0000 0.0601554853
C   C161      1.0  0.68400  0.65430  0.90860  1.0000 0.0601554853
C   C162      1.0  0.34570  0.02970  0.90860  1.0000 0.0601554853
C   C163      1.0  0.66690  0.86770  0.60350  1.0000 0.0472583366
C   C164      1.0  0.13230  0.79920  0.60350  1.0000 0.0472583366
C   C165      1.0  0.20080  0.33310  0.60350  1.0000 0.0472583366
C   C166      1.0  0.33310  0.13230  0.10350  1.0000 0.0472583366
C   C167      1.0  0.86770  0.20080  0.10350  1.0000 0.0472583366
C   C168      1.0  0.79920  0.66690  0.10350  1.0000 0.0472583366
C   C169      1.0  0.49960  0.79780  0.43830  1.0000 -0.1417092368
C   C170      1.0  0.20220  0.70180  0.43830  1.0000 -0.1417092368
C   C171      1.0  0.29820  0.50040  0.43830  1.0000 -0.1417092368
C   C172      1.0  0.50040  0.20220  0.93830  1.0000 -0.1417092368
C   C173      1.0  0.79780  0.29820  0.93830  1.0000 -0.1417092368
C   C174      1.0  0.70180  0.49960  0.93830  1.0000 -0.1417092368
C   C175      1.0  0.85810  0.54110  0.58371  1.0000 -0.0494078237
C   C176      1.0  0.45890  0.31700  0.58371  1.0000 -0.0494078237
C   C177      1.0  0.68300  0.14190  0.58371  1.0000 -0.0494078237
C   C178      1.0  0.14190  0.45890  0.08371  1.0000 -0.0494078237
C   C179      1.0  0.54110  0.68300  0.08371  1.0000 -0.0494078237
C   C180      1.0  0.31700  0.85810  0.08371  1.0000 -0.0494078237
C   C181      1.0  0.50230  0.96630  0.79794  1.0000 0.0401918406
C   C182      1.0  0.03370  0.53600  0.79794  1.0000 0.0401918406
C   C183      1.0  0.46400  0.49770  0.79794  1.0000 0.0401918406
C   C184      1.0  0.49770  0.03370  0.29794  1.0000 0.0401918406
C   C185      1.0  0.96630  0.46400  0.29794  1.0000 0.0401918406
C   C186      1.0  0.53600  0.50230  0.29794  1.0000 0.0401918406
C   C187      1.0  0.94580  0.63190  0.48380  1.0000 0.1427331752
C   C188      1.0  0.36810  0.31390  0.48380  1.0000 0.1427331752
C   C189      1.0  0.68610  0.05420  0.48380  1.0000 0.1427331752
C   C190      1.0  0.05420  0.36810  0.98380  1.0000 0.1427331752
C   C191      1.0  0.63190  0.68610  0.98380  1.0000 0.1427331752
C   C192      1.0  0.31390  0.94580  0.98380  1.0000 0.1427331752
C   C193      1.0  0.84830  0.61590  0.53800  1.0000 0.0920997844
C   C194      1.0  0.38410  0.23240  0.53800  1.0000 0.0920997844
C   C195      1.0  0.76760  0.15170  0.53800  1.0000 0.0920997844
C   C196      1.0  0.15170  0.38410  0.03800  1.0000 0.0920997844
C   C197      1.0  0.61590  0.76760  0.03800  1.0000 0.0920997844
C   C198      1.0  0.23240  0.84830  0.03800  1.0000 0.0920997844
C   C199      1.0  0.90980  0.55640  0.55210  1.0000 -0.092451467
C   C200      1.0  0.44360  0.35340  0.55210  1.0000 -0.092451467
C   C201      1.0  0.64660  0.09020  0.55210  1.0000 -0.092451467
C   C202      1.0  0.09020  0.44360  0.05210  1.0000 -0.092451467
C   C203      1.0  0.55640  0.64660  0.05210  1.0000 -0.092451467
C   C204      1.0  0.35340  0.90980  0.05210  1.0000 -0.092451467
C   C205      1.0  0.53500  0.96830  0.87420  1.0000 -0.07947698
C   C206      1.0  0.03170  0.56670  0.87420  1.0000 -0.07947698
C   C207      1.0  0.43330  0.46500  0.87420  1.0000 -0.07947698
C   C208      1.0  0.46500  0.03170  0.37420  1.0000 -0.07947698
C   C209      1.0  0.96830  0.43330  0.37420  1.0000 -0.07947698
C   C210      1.0  0.56670  0.53500  0.37420  1.0000 -0.07947698
C   C211      1.0  0.57240  0.07880  0.75410  1.0000 -0.171449526
C   C212      1.0  0.92120  0.49360  0.75410  1.0000 -0.171449526
C   C213      1.0  0.50640  0.42760  0.75410  1.0000 -0.171449526
C   C214      1.0  0.42760  0.92120  0.25410  1.0000 -0.171449526
C   C215      1.0  0.07880  0.50640  0.25410  1.0000 -0.171449526
C   C216      1.0  0.49360  0.57240  0.25410  1.0000 -0.171449526
C   C217      1.0  0.23220  0.83140  0.85840  1.0000 -0.1417092368
C   C218      1.0  0.16860  0.40080  0.85840  1.0000 -0.1417092368
C   C219      1.0  0.59920  0.76780  0.85840  1.0000 -0.1417092368
C   C220      1.0  0.76780  0.16860  0.35840  1.0000 -0.1417092368
C   C221      1.0  0.83140  0.59920  0.35840  1.0000 -0.1417092368
C   C222      1.0  0.40080  0.23220  0.35840  1.0000 -0.1417092368
C   C223      1.0  0.45760  0.92760  0.76065  1.0000 -0.026565271
C   C224      1.0  0.07240  0.53000  0.76065  1.0000 -0.026565271
C   C225      1.0  0.47000  0.54240  0.76065  1.0000 -0.026565271
C   C226      1.0  0.54240  0.07240  0.26065  1.0000 -0.026565271
C   C227      1.0  0.92760  0.47000  0.26065  1.0000 -0.026565271
C   C228      1.0  0.53000  0.45760  0.26065  1.0000 -0.026565271
C   C229      1.0  0.15400  0.73560  0.20840  1.0000 0.1298811411
C   C230      1.0  0.26440  0.41840  0.20840  1.0000 0.1298811411
C   C231      1.0  0.58160  0.84600  0.20840  1.0000 0.1298811411
C   C232      1.0  0.84600  0.26440  0.70840  1.0000 0.1298811411
C   C233      1.0  0.73560  0.58160  0.70840  1.0000 0.1298811411
C   C234      1.0  0.41840  0.15400  0.70840  1.0000 0.1298811411
C   C235      1.0  0.74080  0.80570  0.60750  1.0000 -0.1512771039
C   C236      1.0  0.19430  0.93510  0.60750  1.0000 -0.1512771039
C   C237      1.0  0.06490  0.25920  0.60750  1.0000 -0.1512771039
C   C238      1.0  0.25920  0.19430  0.10750  1.0000 -0.1512771039
C   C239      1.0  0.80570  0.06490  0.10750  1.0000 -0.1512771039
C   C240      1.0  0.93510  0.74080  0.10750  1.0000 -0.1512771039
C   C241      1.0  0.15550  0.80820  0.31690  1.0000 -0.1759699299
C   C242      1.0  0.19180  0.34730  0.31690  1.0000 -0.1759699299
C   C243      1.0  0.65270  0.84450  0.31690  1.0000 -0.1759699299
C   C244      1.0  0.84450  0.19180  0.81690  1.0000 -0.1759699299
C   C245      1.0  0.80820  0.65270  0.81690  1.0000 -0.1759699299
C   C246      1.0  0.34730  0.15550  0.81690  1.0000 -0.1759699299
C   C247      1.0  0.24420  0.87730  0.82220  1.0000 0.0601554853
C   C248      1.0  0.12270  0.36690  0.82220  1.0000 0.0601554853
C   C249      1.0  0.63310  0.75580  0.82220  1.0000 0.0601554853
C   C250      1.0  0.75580  0.12270  0.32220  1.0000 0.0601554853
C   C251      1.0  0.87730  0.63310  0.32220  1.0000 0.0601554853
C   C252      1.0  0.36690  0.24420  0.32220  1.0000 0.0601554853
C   C253      1.0  0.11890  0.78510  0.35710  1.0000 -0.129272603
C   C254      1.0  0.21490  0.33380  0.35710  1.0000 -0.129272603
C   C255      1.0  0.66620  0.88110  0.35710  1.0000 -0.129272603
C   C256      1.0  0.88110  0.21490  0.85710  1.0000 -0.129272603
C   C257      1.0  0.78510  0.66620  0.85710  1.0000 -0.129272603
C   C258      1.0  0.33380  0.11890  0.85710  1.0000 -0.129272603
C   C259      1.0  0.53480  0.71370  0.46990  1.0000 -0.092451467
C   C260      1.0  0.28630  0.82110  0.46990  1.0000 -0.092451467
C   C261      1.0  0.17890  0.46520  0.46990  1.0000 -0.092451467
C   C262      1.0  0.46520  0.28630  0.96990  1.0000 -0.092451467
C   C263      1.0  0.71370  0.17890  0.96990  1.0000 -0.092451467
C   C264      1.0  0.82110  0.53480  0.96990  1.0000 -0.092451467
C   C265      1.0  0.30050  0.92180  0.74990  1.0000 -0.129272603
C   C266      1.0  0.07820  0.37870  0.74990  1.0000 -0.129272603
C   C267      1.0  0.62130  0.69950  0.74990  1.0000 -0.129272603
C   C268      1.0  0.69950  0.07820  0.24990  1.0000 -0.129272603
C   C269      1.0  0.92180  0.62130  0.24990  1.0000 -0.129272603
C   C270      1.0  0.37870  0.30050  0.24990  1.0000 -0.129272603
C   C271      1.0  0.60180  0.08110  0.83290  1.0000 -0.1603250983
C   C272      1.0  0.91890  0.52070  0.83290  1.0000 -0.1603250983
C   C273      1.0  0.47930  0.39820  0.83290  1.0000 -0.1603250983
C   C274      1.0  0.39820  0.91890  0.33290  1.0000 -0.1603250983
C   C275      1.0  0.08110  0.47930  0.33290  1.0000 -0.1603250983
C   C276      1.0  0.52070  0.60180  0.33290  1.0000 -0.1603250983
C   C277      1.0  0.94830  0.58330  0.45560  1.0000 -0.1417092368
C   C278      1.0  0.41670  0.36500  0.45560  1.0000 -0.1417092368
C   C279      1.0  0.63500  0.05170  0.45560  1.0000 -0.1417092368
C   C280      1.0  0.05170  0.41670  0.95560  1.0000 -0.1417092368
C   C281      1.0  0.58330  0.63500  0.95560  1.0000 -0.1417092368
C   C282      1.0  0.36500  0.94830  0.95560  1.0000 -0.1417092368
C   C283      1.0  0.52880  0.73580  0.51120  1.0000 -0.1188199136
C   C284      1.0  0.26420  0.79300  0.51120  1.0000 -0.1188199136
C   C285      1.0  0.20700  0.47120  0.51120  1.0000 -0.1188199136
C   C286      1.0  0.47120  0.26420  0.01120  1.0000 -0.1188199136
C   C287      1.0  0.73580  0.20700  0.01120  1.0000 -0.1188199136
C   C288      1.0  0.79300  0.52880  0.01120  1.0000 -0.1188199136
C   C289      1.0  0.73160  0.00310  0.60270  1.0000 -0.1013437955
C   C290      1.0  0.99690  0.72850  0.60270  1.0000 -0.1013437955
C   C291      1.0  0.27150  0.26840  0.60270  1.0000 -0.1013437955
C   C292      1.0  0.26840  0.99690  0.10270  1.0000 -0.1013437955
C   C293      1.0  0.00310  0.27150  0.10270  1.0000 -0.1013437955
C   C294      1.0  0.72850  0.73160  0.10270  1.0000 -0.1013437955
C   C295      1.0  0.20850  0.92110  0.81670  1.0000 -0.1417092368
C   C296      1.0  0.07890  0.28740  0.81670  1.0000 -0.1417092368
C   C297      1.0  0.71260  0.79150  0.81670  1.0000 -0.1417092368
C   C298      1.0  0.79150  0.07890  0.31670  1.0000 -0.1417092368
C   C299      1.0  0.92110  0.71260  0.31670  1.0000 -0.1417092368
C   C300      1.0  0.28740  0.20850  0.31670  1.0000 -0.1417092368
C   C301      1.0  0.23680  0.84630  0.23180  1.0000 -0.1106497808
C   C302      1.0  0.15370  0.39050  0.23180  1.0000 -0.1106497808
C   C303      1.0  0.60950  0.76320  0.23180  1.0000 -0.1106497808
C   C304      1.0  0.76320  0.15370  0.73180  1.0000 -0.1106497808
C   C305      1.0  0.84630  0.60950  0.73180  1.0000 -0.1106497808
C   C306      1.0  0.39050  0.23680  0.73180  1.0000 -0.1106497808
C   C307      1.0  0.66540  0.93590  0.60310  1.0000 -0.1188199136
C   C308      1.0  0.06410  0.72950  0.60310  1.0000 -0.1188199136
C   C309      1.0  0.27050  0.33460  0.60310  1.0000 -0.1188199136
C   C310      1.0  0.33460  0.06410  0.10310  1.0000 -0.1188199136
C   C311      1.0  0.93590  0.27050  0.10310  1.0000 -0.1188199136
C   C312      1.0  0.72950  0.66540  0.10310  1.0000 -0.1188199136
C   C313      1.0  0.26220  0.96020  0.74600  1.0000 -0.1013437955
C   C314      1.0  0.03980  0.30200  0.74600  1.0000 -0.1013437955
C   C315      1.0  0.69800  0.73780  0.74600  1.0000 -0.1013437955
C   C316      1.0  0.73780  0.03980  0.24600  1.0000 -0.1013437955
C   C317      1.0  0.96020  0.69800  0.24600  1.0000 -0.1013437955
C   C318      1.0  0.30200  0.26220  0.24600  1.0000 -0.1013437955
C   C319      1.0  0.73720  0.87070  0.60510  1.0000 0.0601554853
C   C320      1.0  0.12930  0.86650  0.60510  1.0000 0.0601554853
C   C321      1.0  0.13350  0.26280  0.60510  1.0000 0.0601554853
C   C322      1.0  0.26280  0.12930  0.10510  1.0000 0.0601554853
C   C323      1.0  0.87070  0.13350  0.10510  1.0000 0.0601554853
C   C324      1.0  0.86650  0.73720  0.10510  1.0000 0.0601554853
C   C325      1.0  0.58980  0.04540  0.87090  1.0000 -0.1013437955
C   C326      1.0  0.95460  0.54440  0.87090  1.0000 -0.1013437955
C   C327      1.0  0.45560  0.41020  0.87090  1.0000 -0.1013437955
C   C328      1.0  0.41020  0.95460  0.37090  1.0000 -0.1013437955
C   C329      1.0  0.04540  0.45560  0.37090  1.0000 -0.1013437955
C   C330      1.0  0.54440  0.58980  0.37090  1.0000 -0.1013437955
C   C331      1.0  0.24440  0.84210  0.18850  1.0000 -0.0207258756
C   C332      1.0  0.15790  0.40230  0.18850  1.0000 -0.0207258756
C   C333      1.0  0.59770  0.75560  0.18850  1.0000 -0.0207258756
C   C334      1.0  0.75560  0.15790  0.68850  1.0000 -0.0207258756
C   C335      1.0  0.84210  0.59770  0.68850  1.0000 -0.0207258756
C   C336      1.0  0.40230  0.24440  0.68850  1.0000 -0.0207258756
C   C337      1.0  0.21690  0.96030  0.78070  1.0000 -0.1013437955
C   C338      1.0  0.03970  0.25660  0.78070  1.0000 -0.1013437955
C   C339      1.0  0.74340  0.78310  0.78070  1.0000 -0.1013437955
C   C340      1.0  0.78310  0.03970  0.28070  1.0000 -0.1013437955
C   C341      1.0  0.96030  0.74340  0.28070  1.0000 -0.1013437955
C   C342      1.0  0.25660  0.21690  0.28070  1.0000 -0.1013437955
C   C343      1.0  0.10590  0.68140  0.29670  1.0000 -0.1603250983
C   C344      1.0  0.31860  0.42450  0.29670  1.0000 -0.1603250983
C   C345      1.0  0.57550  0.89410  0.29670  1.0000 -0.1603250983
C   C346      1.0  0.89410  0.31860  0.79670  1.0000 -0.1603250983
C   C347      1.0  0.68140  0.57550  0.79670  1.0000 -0.1603250983
C   C348      1.0  0.42450  0.10590  0.79670  1.0000 -0.1603250983
C   C349      1.0  0.80460  0.94360  0.60470  1.0000 -0.1417092368
C   C350      1.0  0.05640  0.86100  0.60470  1.0000 -0.1417092368
C   C351      1.0  0.13900  0.19540  0.60470  1.0000 -0.1417092368
C   C352      1.0  0.19540  0.05640  0.10470  1.0000 -0.1417092368
C   C353      1.0  0.94360  0.13900  0.10470  1.0000 -0.1417092368
C   C354      1.0  0.86100  0.80460  0.10470  1.0000 -0.1417092368
C   C355      1.0  0.98920  0.60960  0.41850  1.0000 -0.1417092368
C   C356      1.0  0.39040  0.37960  0.41850  1.0000 -0.1417092368
C   C357      1.0  0.62040  0.01080  0.41850  1.0000 -0.1417092368
C   C358      1.0  0.01080  0.39040  0.91850  1.0000 -0.1417092368
C   C359      1.0  0.60960  0.62040  0.91850  1.0000 -0.1417092368
C   C360      1.0  0.37960  0.98920  0.91850  1.0000 -0.1417092368
C   C361      1.0  0.06830  0.65870  0.33670  1.0000 -0.1188199136
C   C362      1.0  0.34130  0.40960  0.33670  1.0000 -0.1188199136
C   C363      1.0  0.59040  0.93170  0.33670  1.0000 -0.1188199136
C   C364      1.0  0.93170  0.34130  0.83670  1.0000 -0.1188199136
C   C365      1.0  0.65870  0.59040  0.83670  1.0000 -0.1188199136
C   C366      1.0  0.40960  0.06830  0.83670  1.0000 -0.1188199136
C   C367      1.0  0.80080  0.00710  0.60240  1.0000 -0.1106497808
C   C368      1.0  0.99290  0.79370  0.60240  1.0000 -0.1106497808
C   C369      1.0  0.20630  0.19920  0.60240  1.0000 -0.1106497808
C   C370      1.0  0.19920  0.99290  0.10240  1.0000 -0.1106497808
C   C371      1.0  0.00710  0.20630  0.10240  1.0000 -0.1106497808
C   C372      1.0  0.79370  0.80080  0.10240  1.0000 -0.1106497808
C   C373      1.0  0.02910  0.72920  0.43770  1.0000 -0.1417092368
C   C374      1.0  0.27080  0.29990  0.43770  1.0000 -0.1417092368
C   C375      1.0  0.70010  0.97090  0.43770  1.0000 -0.1417092368
C   C376      1.0  0.97090  0.27080  0.93770  1.0000 -0.1417092368
C   C377      1.0  0.72920  0.70010  0.93770  1.0000 -0.1417092368
C   C378      1.0  0.29990  0.02910  0.93770  1.0000 -0.1417092368
C   C379      1.0  0.99590  0.70620  0.47880  1.0000 -0.1603250983
C   C380      1.0  0.29380  0.28970  0.47880  1.0000 -0.1603250983
C   C381      1.0  0.71030  0.00410  0.47880  1.0000 -0.1603250983
C   C382      1.0  0.00410  0.29380  0.97880  1.0000 -0.1603250983
C   C383      1.0  0.70620  0.71030  0.97880  1.0000 -0.1603250983
C   C384      1.0  0.28970  0.99590  0.97880  1.0000 -0.1603250983
N   N1        1.0  0.75830  0.42220  0.49960  1.0000 -0.771964452
N   N2        1.0  0.57780  0.33610  0.49960  1.0000 -0.771964452
N   N3        1.0  0.66390  0.24170  0.49960  1.0000 -0.771964452
N   N4        1.0  0.24170  0.57780  0.99960  1.0000 -0.771964452
N   N5        1.0  0.42220  0.66390  0.99960  1.0000 -0.771964452
N   N6        1.0  0.33610  0.75830  0.99960  1.0000 -0.771964452
N   N7        1.0  0.64800  0.34300  0.58490  1.0000 0.1298811411
N   N8        1.0  0.65700  0.30500  0.58490  1.0000 0.1298811411
N   N9        1.0  0.69500  0.35200  0.58490  1.0000 0.1298811411
N   N10       1.0  0.35200  0.65700  0.08490  1.0000 0.1298811411
N   N11       1.0  0.34300  0.69500  0.08490  1.0000 0.1298811411
N   N12       1.0  0.30500  0.64800  0.08490  1.0000 0.1298811411
N   N13       1.0  0.19370  0.77000  0.17395  1.0000 -0.2876953546
N   N14       1.0  0.23000  0.42370  0.17395  1.0000 -0.2876953546
N   N15       1.0  0.57630  0.80630  0.17395  1.0000 -0.2876953546
N   N16       1.0  0.80630  0.23000  0.67395  1.0000 -0.2876953546
N   N17       1.0  0.77000  0.57630  0.67395  1.0000 -0.2876953546
N   N18       1.0  0.42370  0.19370  0.67395  1.0000 -0.2876953546
N   N19       1.0  0.82110  0.57980  0.57522  1.0000 -0.2978853895
N   N20       1.0  0.42020  0.24130  0.57522  1.0000 -0.2978853895
N   N21       1.0  0.75870  0.17890  0.57522  1.0000 -0.2978853895
N   N22       1.0  0.17890  0.42020  0.07522  1.0000 -0.2978853895
N   N23       1.0  0.57980  0.75870  0.07522  1.0000 -0.2978853895
N   N24       1.0  0.24130  0.82110  0.07522  1.0000 -0.2978853895
N   N25       1.0  0.90290  0.60370  0.52317  1.0000 0.0058576514
N   N26       1.0  0.39630  0.29920  0.52317  1.0000 0.0058576514
N   N27       1.0  0.70080  0.09710  0.52317  1.0000 0.0058576514
N   N28       1.0  0.09710  0.39630  0.02317  1.0000 0.0058576514
N   N29       1.0  0.60370  0.70080  0.02317  1.0000 0.0058576514
N   N30       1.0  0.29920  0.90290  0.02317  1.0000 0.0058576514
N   N31       1.0  0.64610  0.48640  0.58859  1.0000 -0.812472762
N   N32       1.0  0.51360  0.15970  0.58859  1.0000 -0.812472762
N   N33       1.0  0.84030  0.35390  0.58859  1.0000 -0.812472762
N   N34       1.0  0.35390  0.51360  0.08859  1.0000 -0.812472762
N   N35       1.0  0.48640  0.84030  0.08859  1.0000 -0.812472762
N   N36       1.0  0.15970  0.64610  0.08859  1.0000 -0.812472762
N   N37       1.0  0.17880  0.77670  0.24437  1.0000 0.0058576514
N   N38       1.0  0.22330  0.40210  0.24437  1.0000 0.0058576514
N   N39       1.0  0.59790  0.82120  0.24437  1.0000 0.0058576514
N   N40       1.0  0.82120  0.22330  0.74437  1.0000 0.0058576514
N   N41       1.0  0.77670  0.59790  0.74437  1.0000 0.0058576514
N   N42       1.0  0.40210  0.17880  0.74437  1.0000 0.0058576514
N   N43       1.0  0.70740  0.47510  0.21139  1.0000 -0.7057377114
N   N44       1.0  0.76770  0.29260  0.21139  1.0000 -0.7057377114
N   N45       1.0  0.52490  0.23230  0.21139  1.0000 -0.7057377114
N   N46       1.0  0.29260  0.52490  0.71139  1.0000 -0.7057377114
N   N47       1.0  0.23230  0.70740  0.71139  1.0000 -0.7057377114
N   N48       1.0  0.47510  0.76770  0.71139  1.0000 -0.7057377114
N   N49       1.0  0.66667  0.33333  0.07990  1.0000 -0.703528048
N   N50       1.0  0.33333  0.66667  0.57990  1.0000 -0.703528048
O   O1        1.0  0.63620  0.49430  0.49261  1.0000 -0.6743302557
O   O2        1.0  0.50570  0.14190  0.49261  1.0000 -0.6743302557
O   O3        1.0  0.85810  0.36380  0.49261  1.0000 -0.6743302557
O   O4        1.0  0.36380  0.50570  0.99261  1.0000 -0.6743302557
O   O5        1.0  0.49430  0.85810  0.99261  1.0000 -0.6743302557
O   O6        1.0  0.14190  0.63620  0.99261  1.0000 -0.6743302557
O   O7        1.0  0.52954  0.04451  0.63930  1.0000 -0.6362696254
O   O8        1.0  0.95549  0.48503  0.63930  1.0000 -0.6362696254
O   O9        1.0  0.51497  0.47046  0.63930  1.0000 -0.6362696254
O   O10       1.0  0.47046  0.95549  0.13930  1.0000 -0.6362696254
O   O11       1.0  0.04451  0.51497  0.13930  1.0000 -0.6362696254
O   O12       1.0  0.48503  0.52954  0.13930  1.0000 -0.6362696254
O   O13       1.0  0.34814  0.74967  0.83280  1.0000 -0.6203070023
O   O14       1.0  0.25033  0.59847  0.83280  1.0000 -0.6203070023
O   O15       1.0  0.40153  0.65186  0.83280  1.0000 -0.6203070023
O   O16       1.0  0.65186  0.25033  0.33280  1.0000 -0.6203070023
O   O17       1.0  0.74967  0.40153  0.33280  1.0000 -0.6203070023
O   O18       1.0  0.59847  0.34814  0.33280  1.0000 -0.6203070023
O   O19       1.0  0.44720  0.99219  0.56540  1.0000 -0.6203070023
O   O20       1.0  0.00781  0.45501  0.56540  1.0000 -0.6203070023
O   O21       1.0  0.54499  0.55280  0.56540  1.0000 -0.6203070023
O   O22       1.0  0.55280  0.00781  0.06540  1.0000 -0.6203070023
O   O23       1.0  0.99219  0.54499  0.06540  1.0000 -0.6203070023
O   O24       1.0  0.45501  0.44720  0.06540  1.0000 -0.6203070023
O   O25       1.0  0.62966  0.61117  0.63707  1.0000 -0.6203070023
O   O26       1.0  0.38883  0.01849  0.63707  1.0000 -0.6203070023
O   O27       1.0  0.98151  0.37034  0.63707  1.0000 -0.6203070023
O   O28       1.0  0.37034  0.38883  0.13707  1.0000 -0.6203070023
O   O29       1.0  0.61117  0.98151  0.13707  1.0000 -0.6203070023
O   O30       1.0  0.01849  0.62966  0.13707  1.0000 -0.6203070023
O   O31       1.0  0.43540  0.92830  0.68503  1.0000 -0.6362696254
O   O32       1.0  0.07170  0.50710  0.68503  1.0000 -0.6362696254
O   O33       1.0  0.49290  0.56460  0.68503  1.0000 -0.6362696254
O   O34       1.0  0.56460  0.07170  0.18503  1.0000 -0.6362696254
O   O35       1.0  0.92830  0.49290  0.18503  1.0000 -0.6362696254
O   O36       1.0  0.50710  0.43540  0.18503  1.0000 -0.6362696254
O   O37       1.0  0.27471  0.69580  0.90556  1.0000 -0.631309153
O   O38       1.0  0.30420  0.57891  0.90556  1.0000 -0.631309153
O   O39       1.0  0.42109  0.72529  0.90556  1.0000 -0.631309153
O   O40       1.0  0.72529  0.30420  0.40556  1.0000 -0.631309153
O   O41       1.0  0.69580  0.42109  0.40556  1.0000 -0.631309153
O   O42       1.0  0.57891  0.27471  0.40556  1.0000 -0.631309153
O   O43       1.0  0.43770  0.98980  0.49385  1.0000 -0.5190166282
O   O44       1.0  0.01020  0.44790  0.49385  1.0000 -0.5190166282
O   O45       1.0  0.55210  0.56230  0.49385  1.0000 -0.5190166282
O   O46       1.0  0.56230  0.01020  0.99385  1.0000 -0.5190166282
O   O47       1.0  0.98980  0.55210  0.99385  1.0000 -0.5190166282
O   O48       1.0  0.44790  0.43770  0.99385  1.0000 -0.5190166282
O   O49       1.0  0.54192  0.66605  0.61539  1.0000 -0.6203070023
O   O50       1.0  0.33395  0.87587  0.61539  1.0000 -0.6203070023
O   O51       1.0  0.12413  0.45808  0.61539  1.0000 -0.6203070023
O   O52       1.0  0.45808  0.33395  0.11539  1.0000 -0.6203070023
O   O53       1.0  0.66605  0.12413  0.11539  1.0000 -0.6203070023
O   O54       1.0  0.87587  0.54192  0.11539  1.0000 -0.6203070023
O   O55       1.0  0.47550  0.89473  0.60376  1.0000 -0.631309153
O   O56       1.0  0.10527  0.58077  0.60376  1.0000 -0.631309153
O   O57       1.0  0.41923  0.52450  0.60376  1.0000 -0.631309153
O   O58       1.0  0.52450  0.10527  0.10376  1.0000 -0.631309153
O   O59       1.0  0.89473  0.41923  0.10376  1.0000 -0.631309153
O   O60       1.0  0.58077  0.47550  0.10376  1.0000 -0.631309153
O   O61       1.0  0.59310  0.15150  0.67419  1.0000 -0.5190166282
O   O62       1.0  0.84850  0.44160  0.67419  1.0000 -0.5190166282
O   O63       1.0  0.55840  0.40690  0.67419  1.0000 -0.5190166282
O   O64       1.0  0.40690  0.84850  0.17419  1.0000 -0.5190166282
O   O65       1.0  0.15150  0.55840  0.17419  1.0000 -0.5190166282
O   O66       1.0  0.44160  0.59310  0.17419  1.0000 -0.5190166282
O   O67       1.0  0.74190  0.67070  0.60650  1.0000 -0.5190166282
O   O68       1.0  0.32930  0.07120  0.60650  1.0000 -0.5190166282
O   O69       1.0  0.92880  0.25810  0.60650  1.0000 -0.5190166282
O   O70       1.0  0.25810  0.32930  0.10650  1.0000 -0.5190166282
O   O71       1.0  0.67070  0.92880  0.10650  1.0000 -0.5190166282
O   O72       1.0  0.07120  0.74190  0.10650  1.0000 -0.5190166282
O   O73       1.0  0.21180  0.74770  0.93254  1.0000 -0.5410257592
O   O74       1.0  0.25230  0.46410  0.93254  1.0000 -0.5410257592
O   O75       1.0  0.53590  0.78820  0.93254  1.0000 -0.5410257592
O   O76       1.0  0.78820  0.25230  0.43254  1.0000 -0.5410257592
O   O77       1.0  0.74770  0.53590  0.43254  1.0000 -0.5410257592
O   O78       1.0  0.46410  0.21180  0.43254  1.0000 -0.5410257592
