# DDEC6 charges by PACMAN v1.1 (https://github.com/mtap-research/PACMAN-charge/)
data_2023[Ni][dia]3[ION]4
_chemical_formula_sum              "Ni4 H72 C76 N16 O24"
_cell_length_a       9.8605
_cell_length_b       15.9717
_cell_length_c       18.0744
_cell_angle_alpha    90
_cell_angle_beta     90
_cell_angle_gamma    90

_symmetry_space_group_name_H-M    "P 1"
_symmetry_Int_Tables_number       1

loop_
  _symmetry_equiv_pos_as_xyz
  'x, y, z'

loop_
  _atom_site_type_symbol
  _atom_site_label
  _atom_site_symmetry_multiplicity
  _atom_site_fract_x
  _atom_site_fract_y
  _atom_site_fract_z
  _atom_site_occupancy
  _atom_site_charge
Ni  Ni1       1.0  0.16675  0.76740  0.55212  1.0000 0.6934567109
Ni  Ni2       1.0  0.33325  0.23260  0.05212  1.0000 0.6934567109
Ni  Ni3       1.0  0.83325  0.26740  0.94788  1.0000 0.6934567109
Ni  Ni4       1.0  0.66675  0.73260  0.44788  1.0000 0.6934567109
H   H1        1.0  0.15141  0.87594  0.44772  1.0000 0.3323696101
H   H2        1.0  0.34859  0.12406  0.94772  1.0000 0.3323696101
H   H3        1.0  0.84859  0.37594  0.05228  1.0000 0.3323696101
H   H4        1.0  0.65141  0.62406  0.55228  1.0000 0.3323696101
H   H5        1.0  0.25664  0.90313  0.49356  1.0000 0.3444508756
H   H6        1.0  0.24336  0.09687  0.99356  1.0000 0.3444508756
H   H7        1.0  0.74336  0.40313  0.00644  1.0000 0.3444508756
H   H8        1.0  0.75664  0.59687  0.50644  1.0000 0.3444508756
H   H9        1.0  0.79012  0.80734  0.55628  1.0000 0.2704106415
H   H10       1.0  0.70988  0.19266  0.05628  1.0000 0.2704106415
H   H11       1.0  0.20988  0.30734  0.94372  1.0000 0.2704106415
H   H12       1.0  0.29012  0.69266  0.44372  1.0000 0.2704106415
H   H13       1.0  0.91763  0.68258  0.60366  1.0000 0.1120906538
H   H14       1.0  0.58237  0.31742  0.10366  1.0000 0.1120906538
H   H15       1.0  0.08237  0.18258  0.89634  1.0000 0.1120906538
H   H16       1.0  0.41763  0.81742  0.39634  1.0000 0.1120906538
H   H17       1.0  0.83817  0.58694  0.68833  1.0000 0.1289607102
H   H18       1.0  0.66183  0.41306  0.18833  1.0000 0.1289607102
H   H19       1.0  0.16183  0.08694  0.81167  1.0000 0.1289607102
H   H20       1.0  0.33817  0.91306  0.31167  1.0000 0.1289607102
H   H21       1.0  0.22196  0.56122  0.76420  1.0000 0.1289607102
H   H22       1.0  0.27804  0.43878  0.26420  1.0000 0.1289607102
H   H23       1.0  0.77804  0.06122  0.73580  1.0000 0.1289607102
H   H24       1.0  0.72196  0.93878  0.23580  1.0000 0.1289607102
H   H25       1.0  0.28839  0.65817  0.67886  1.0000 0.1120906538
H   H26       1.0  0.21161  0.34183  0.17886  1.0000 0.1120906538
H   H27       1.0  0.71161  0.15817  0.82114  1.0000 0.1120906538
H   H28       1.0  0.78839  0.84183  0.32114  1.0000 0.1120906538
H   H29       1.0  0.09875  0.52042  0.87215  1.0000 0.1289607102
H   H30       1.0  0.40125  0.47958  0.37215  1.0000 0.1289607102
H   H31       1.0  0.90125  0.02042  0.62785  1.0000 0.1289607102
H   H32       1.0  0.59875  0.97958  0.12785  1.0000 0.1289607102
H   H33       1.0  0.01831  0.41537  0.94888  1.0000 0.1033837343
H   H34       1.0  0.48169  0.58463  0.44888  1.0000 0.1033837343
H   H35       1.0  0.98169  0.91537  0.55112  1.0000 0.1033837343
H   H36       1.0  0.51831  0.08463  0.05112  1.0000 0.1033837343
H   H37       1.0  0.76006  0.33869  0.79622  1.0000 0.1120906538
H   H38       1.0  0.73994  0.66131  0.29622  1.0000 0.1120906538
H   H39       1.0  0.23994  0.83869  0.70378  1.0000 0.1120906538
H   H40       1.0  0.26006  0.16131  0.20378  1.0000 0.1120906538
H   H41       1.0  0.82869  0.44631  0.71726  1.0000 0.1352620268
H   H42       1.0  0.67131  0.55369  0.21726  1.0000 0.1352620268
H   H43       1.0  0.17131  0.94631  0.78274  1.0000 0.1352620268
H   H44       1.0  0.32869  0.05369  0.28274  1.0000 0.1352620268
H   H45       1.0  0.63550  0.75699  0.62938  1.0000 0.1120906538
H   H46       1.0  0.86450  0.24301  0.12938  1.0000 0.1120906538
H   H47       1.0  0.36450  0.25699  0.87062  1.0000 0.1120906538
H   H48       1.0  0.13550  0.74301  0.37062  1.0000 0.1120906538
H   H49       1.0  0.47570  0.88931  0.65064  1.0000 0.1289607102
H   H50       1.0  0.02430  0.11069  0.15064  1.0000 0.1289607102
H   H51       1.0  0.52430  0.38931  0.84936  1.0000 0.1289607102
H   H52       1.0  0.97570  0.61069  0.34936  1.0000 0.1289607102
H   H53       1.0  0.62757  0.88511  0.68373  1.0000 0.1289607102
H   H54       1.0  0.87243  0.11489  0.18373  1.0000 0.1289607102
H   H55       1.0  0.37243  0.38511  0.81627  1.0000 0.1289607102
H   H56       1.0  0.12757  0.61489  0.31627  1.0000 0.1289607102
H   H57       1.0  0.55262  0.06102  0.62150  1.0000 0.1186990204
H   H58       1.0  0.94738  0.93898  0.12150  1.0000 0.1289607102
H   H59       1.0  0.44738  0.56102  0.87850  1.0000 0.1186990204
H   H60       1.0  0.05262  0.43898  0.37850  1.0000 0.1186990204
H   H61       1.0  0.81026  0.93179  0.43643  1.0000 0.1289607102
H   H62       1.0  0.68974  0.06821  0.93643  1.0000 0.1289607102
H   H63       1.0  0.18974  0.43179  0.06357  1.0000 0.1289607102
H   H64       1.0  0.31026  0.56821  0.56357  1.0000 0.1289607102
H   H65       1.0  0.78844  0.07766  0.43843  1.0000 0.1120906538
H   H66       1.0  0.71156  0.92234  0.93843  1.0000 0.1120906538
H   H67       1.0  0.21156  0.57766  0.06157  1.0000 0.1120906538
H   H68       1.0  0.28844  0.42234  0.56157  1.0000 0.1120906538
H   H69       1.0  0.65962  0.14228  0.53096  1.0000 0.1120906538
H   H70       1.0  0.84038  0.85772  0.03096  1.0000 0.1120906538
H   H71       1.0  0.34038  0.64228  0.96904  1.0000 0.1120906538
H   H72       1.0  0.15962  0.35772  0.46904  1.0000 0.1120906538
C   C1        1.0  0.46920  0.76790  0.55700  1.0000 0.5721720899
C   C2        1.0  0.03080  0.23210  0.05700  1.0000 0.5721720899
C   C3        1.0  0.53080  0.26790  0.94300  1.0000 0.5721720899
C   C4        1.0  0.96920  0.73210  0.44300  1.0000 0.5721720899
C   C5        1.0  0.98010  0.65760  0.63710  1.0000 0.0702779969
C   C6        1.0  0.51990  0.34240  0.13710  1.0000 0.0702779969
C   C7        1.0  0.01990  0.15760  0.86290  1.0000 0.0646628657
C   C8        1.0  0.48010  0.84240  0.36290  1.0000 0.0702779969
C   C9        1.0  0.93210  0.59990  0.68660  1.0000 -0.1739963224
C   C10       1.0  0.56790  0.40010  0.18660  1.0000 -0.1739963224
C   C11       1.0  0.06790  0.09990  0.81340  1.0000 -0.1739963224
C   C12       1.0  0.43210  0.90010  0.31340  1.0000 -0.1739963224
C   C13       1.0  0.02200  0.56080  0.73390  1.0000 0.1186990204
C   C14       1.0  0.47800  0.43920  0.23390  1.0000 0.1186990204
C   C15       1.0  0.97800  0.06080  0.76610  1.0000 0.1186990204
C   C16       1.0  0.52200  0.93920  0.26610  1.0000 0.1186990204
C   C17       1.0  0.15740  0.58490  0.73130  1.0000 -0.1804469581
C   C18       1.0  0.34260  0.41510  0.23130  1.0000 -0.1804469581
C   C19       1.0  0.84260  0.08490  0.76870  1.0000 -0.1804469581
C   C20       1.0  0.65740  0.91510  0.26870  1.0000 -0.1804469581
C   C21       1.0  0.19520  0.64320  0.68060  1.0000 0.0836394126
C   C22       1.0  0.30480  0.35680  0.18060  1.0000 0.0836394126
C   C23       1.0  0.80480  0.14320  0.81940  1.0000 0.0836394126
C   C24       1.0  0.69520  0.85680  0.31940  1.0000 0.0836394126
C   C25       1.0  0.97350  0.49350  0.78560  1.0000 0.1186990204
C   C26       1.0  0.52650  0.50650  0.28560  1.0000 0.1186990204
C   C27       1.0  0.02650  0.99350  0.71440  1.0000 0.1186990204
C   C28       1.0  0.47350  0.00650  0.21440  1.0000 0.1186990204
C   C29       1.0  0.02920  0.48380  0.85540  1.0000 -0.1804469581
C   C30       1.0  0.47080  0.51620  0.35540  1.0000 -0.1804469581
C   C31       1.0  0.97080  0.98380  0.64460  1.0000 -0.1804469581
C   C32       1.0  0.52920  0.01620  0.14460  1.0000 -0.1804469581
C   C33       1.0  0.98220  0.42020  0.90030  1.0000 0.0702779969
C   C34       1.0  0.51780  0.57980  0.40030  1.0000 0.0702779969
C   C35       1.0  0.01780  0.92020  0.59970  1.0000 0.0702779969
C   C36       1.0  0.48220  0.07980  0.09970  1.0000 0.0702779969
C   C37       1.0  0.83010  0.37560  0.81150  1.0000 0.0920850405
C   C38       1.0  0.66990  0.62440  0.31150  1.0000 0.0920850405
C   C39       1.0  0.16990  0.87560  0.68850  1.0000 0.0920850405
C   C40       1.0  0.33010  0.12440  0.18850  1.0000 0.0920850405
C   C41       1.0  0.87100  0.43970  0.76410  1.0000 -0.1804469581
C   C42       1.0  0.62900  0.56030  0.26410  1.0000 -0.1804469581
C   C43       1.0  0.12900  0.93970  0.73590  1.0000 -0.1804469581
C   C44       1.0  0.37100  0.06030  0.23590  1.0000 -0.1804469581
C   C45       1.0  0.59790  0.80060  0.59540  1.0000 -0.0061311499
C   C46       1.0  0.90210  0.19940  0.09540  1.0000 -0.0061311499
C   C47       1.0  0.40210  0.30060  0.90460  1.0000 -0.0061311499
C   C48       1.0  0.09790  0.69940  0.40460  1.0000 -0.0061311499
C   C49       1.0  0.57270  0.88260  0.63790  1.0000 -0.2532275325
C   C50       1.0  0.92730  0.11740  0.13790  1.0000 -0.2532275325
C   C51       1.0  0.42730  0.38260  0.86210  1.0000 -0.2532275325
C   C52       1.0  0.07270  0.61740  0.36210  1.0000 -0.2532275325
C   C53       1.0  0.60490  0.03480  0.58390  1.0000 -0.1570835566
C   C54       1.0  0.89510  0.96520  0.08390  1.0000 -0.1570835566
C   C55       1.0  0.39510  0.53480  0.91610  1.0000 -0.1570835566
C   C56       1.0  0.10490  0.46520  0.41610  1.0000 -0.1570835566
C   C57       1.0  0.61790  0.94810  0.58280  1.0000 0.0455261054
C   C58       1.0  0.88210  0.05190  0.08280  1.0000 0.0455261054
C   C59       1.0  0.38210  0.44810  0.91720  1.0000 0.0455261054
C   C60       1.0  0.11790  0.55190  0.41720  1.0000 0.0455261054
C   C61       1.0  0.69440  0.90980  0.52780  1.0000 0.1467467541
C   C62       1.0  0.80560  0.09020  0.02780  1.0000 0.1467467541
C   C63       1.0  0.30560  0.40980  0.97220  1.0000 0.1467467541
C   C64       1.0  0.19440  0.59020  0.47220  1.0000 0.1467467541
C   C65       1.0  0.75800  0.95800  0.47400  1.0000 -0.1881572722
C   C66       1.0  0.74200  0.04200  0.97400  1.0000 -0.1881572722
C   C67       1.0  0.24200  0.45800  0.02600  1.0000 -0.1881572722
C   C68       1.0  0.25800  0.54200  0.52600  1.0000 -0.1881572722
C   C69       1.0  0.74500  0.04470  0.47520  1.0000 -0.0913723787
C   C70       1.0  0.75500  0.95530  0.97520  1.0000 -0.0913723787
C   C71       1.0  0.25500  0.54470  0.02480  1.0000 -0.0913723787
C   C72       1.0  0.24500  0.45530  0.52480  1.0000 -0.0913723787
C   C73       1.0  0.66850  0.08310  0.53010  1.0000 -0.109463804
C   C74       1.0  0.83150  0.91690  0.03010  1.0000 -0.109463804
C   C75       1.0  0.33150  0.58310  0.96990  1.0000 -0.109463804
C   C76       1.0  0.16850  0.41690  0.46990  1.0000 -0.109463804
N   N1        1.0  0.69880  0.82060  0.53520  1.0000 -0.385896728
N   N2        1.0  0.80120  0.17940  0.03520  1.0000 -0.385896728
N   N3        1.0  0.30120  0.32060  0.96480  1.0000 -0.385896728
N   N4        1.0  0.19880  0.67940  0.46480  1.0000 -0.385896728
N   N5        1.0  0.11190  0.68090  0.63330  1.0000 -0.2153701639
N   N6        1.0  0.38810  0.31910  0.13330  1.0000 -0.2153701639
N   N7        1.0  0.88810  0.18090  0.86670  1.0000 -0.2153701639
N   N8        1.0  0.61190  0.81910  0.36670  1.0000 -0.2153701639
N   N9        1.0  0.88740  0.36480  0.87850  1.0000 -0.2331234558
N   N10       1.0  0.61260  0.63520  0.37850  1.0000 -0.2331234558
N   N11       1.0  0.11260  0.86480  0.62150  1.0000 -0.2331234558
N   N12       1.0  0.38740  0.13520  0.12150  1.0000 -0.2331234558
N   N13       1.0  0.55090  0.52800  0.65940  1.0000 0.6934567109
N   N14       1.0  0.94910  0.47200  0.15940  1.0000 0.6934567109
N   N15       1.0  0.44910  0.02800  0.84060  1.0000 0.6951861823
N   N16       1.0  0.05090  0.97200  0.34060  1.0000 0.6934567109
O   O1        1.0  0.47800  0.73350  0.49520  1.0000 -0.5417288696
O   O2        1.0  0.02200  0.26650  0.99520  1.0000 -0.5417288696
O   O3        1.0  0.52200  0.23350  0.00480  1.0000 -0.5417288696
O   O4        1.0  0.97800  0.76650  0.50480  1.0000 -0.5417288696
O   O5        1.0  0.35970  0.77440  0.59330  1.0000 -0.5417288696
O   O6        1.0  0.14030  0.22560  0.09330  1.0000 -0.5417288696
O   O7        1.0  0.64030  0.27440  0.90670  1.0000 -0.5417288696
O   O8        1.0  0.85970  0.72560  0.40670  1.0000 -0.5417288696
O   O9        1.0  0.22390  0.85720  0.47200  1.0000 -0.6686579591
O   O10       1.0  0.27610  0.14280  0.97200  1.0000 -0.6686579591
O   O11       1.0  0.77610  0.35720  0.02800  1.0000 -0.6686579591
O   O12       1.0  0.72390  0.64280  0.52800  1.0000 -0.6686579591
O   O13       1.0  0.54240  0.59930  0.63130  1.0000 -0.4537518626
O   O14       1.0  0.63900  0.47730  0.63150  1.0000 -0.482896634
O   O15       1.0  0.47100  0.50430  0.70620  1.0000 -0.413587526
O   O16       1.0  0.95760  0.40070  0.13130  1.0000 -0.4537518626
O   O17       1.0  0.86100  0.52270  0.13150  1.0000 -0.482896634
O   O18       1.0  0.02900  0.49570  0.20620  1.0000 -0.413587526
O   O19       1.0  0.45760  0.09930  0.86870  1.0000 -0.4537518626
O   O20       1.0  0.36100  0.97730  0.86850  1.0000 -0.482896634
O   O21       1.0  0.52900  0.00430  0.79380  1.0000 -0.413587526
O   O22       1.0  0.04240  0.90070  0.36870  1.0000 -0.4537518626
O   O23       1.0  0.13900  0.02270  0.36850  1.0000 -0.482896634
O   O24       1.0  0.97100  0.99570  0.29380  1.0000 -0.413587526
