# DDEC6 charges by PACMAN v1.1 (https://github.com/mtap-research/PACMAN-charge/)
data_2023[Yb][nan]3[ION]1
_chemical_formula_sum              "Yb8 H148 C108 Br4 N24 Cl4 O56"
_cell_length_a       16.8401
_cell_length_b       16.0799
_cell_length_c       17.4202
_cell_angle_alpha    90
_cell_angle_beta     108.999
_cell_angle_gamma    90

_symmetry_space_group_name_H-M    "P 1"
_symmetry_Int_Tables_number       1

loop_
  _symmetry_equiv_pos_as_xyz
  'x, y, z'

loop_
  _atom_site_type_symbol
  _atom_site_label
  _atom_site_symmetry_multiplicity
  _atom_site_fract_x
  _atom_site_fract_y
  _atom_site_fract_z
  _atom_site_occupancy
  _atom_site_charge
Yb  Yb1       1.0  0.41020  0.07711  0.03051  1.0000 2.1298327057
Yb  Yb2       1.0  0.58980  0.57711  0.46949  1.0000 2.1298327057
Yb  Yb3       1.0  0.58980  0.92289  0.96949  1.0000 2.1298327057
Yb  Yb4       1.0  0.41020  0.42289  0.53051  1.0000 2.1298327057
Yb  Yb5       1.0  0.11079  0.07533  0.03408  1.0000 2.1119972079
Yb  Yb6       1.0  0.88921  0.57533  0.46592  1.0000 2.1119972079
Yb  Yb7       1.0  0.88921  0.92467  0.96592  1.0000 2.1119972079
Yb  Yb8       1.0  0.11079  0.42467  0.53408  1.0000 2.1119972079
H   H1        1.0  0.40520  0.23100  0.10670  1.0000 0.3420173212
H   H2        1.0  0.59480  0.73100  0.39330  1.0000 0.3420173212
H   H3        1.0  0.59480  0.76900  0.89330  1.0000 0.3420173212
H   H4        1.0  0.40520  0.26900  0.60670  1.0000 0.3420173212
H   H5        1.0  0.48650  0.23320  0.10520  1.0000 0.3587381451
H   H6        1.0  0.51350  0.73320  0.39480  1.0000 0.3587381451
H   H7        1.0  0.51350  0.76680  0.89480  1.0000 0.3587381451
H   H8        1.0  0.48650  0.26680  0.60520  1.0000 0.3587381451
H   H9        1.0  0.15680  0.23850  0.09530  1.0000 0.3420173212
H   H10       1.0  0.84320  0.73850  0.40470  1.0000 0.3420173212
H   H11       1.0  0.84320  0.76150  0.90470  1.0000 0.3420173212
H   H12       1.0  0.15680  0.26150  0.59530  1.0000 0.3420173212
H   H13       1.0  0.07560  0.23510  0.09710  1.0000 0.3754804715
H   H14       1.0  0.92440  0.73510  0.40290  1.0000 0.3754804715
H   H15       1.0  0.92440  0.76490  0.90290  1.0000 0.3754804715
H   H16       1.0  0.07560  0.26490  0.59710  1.0000 0.3754804715
H   H17       1.0  0.18730  0.86760  0.83350  1.0000 0.1303664749
H   H18       1.0  0.81270  0.36760  0.66650  1.0000 0.1303664749
H   H19       1.0  0.81270  0.13240  0.16650  1.0000 0.1303664749
H   H20       1.0  0.18730  0.63240  0.33350  1.0000 0.1303664749
H   H21       1.0  0.08510  0.07330  0.70740  1.0000 0.1478862504
H   H22       1.0  0.91490  0.57330  0.79260  1.0000 0.1478862504
H   H23       1.0  0.91490  0.92670  0.29260  1.0000 0.1478862504
H   H24       1.0  0.08510  0.42670  0.20740  1.0000 0.1478862504
H   H25       1.0  0.22800  0.05110  0.69880  1.0000 0.1392791021
H   H26       1.0  0.77200  0.55110  0.80120  1.0000 0.1392791021
H   H27       1.0  0.77200  0.94890  0.30120  1.0000 0.1392791021
H   H28       1.0  0.22800  0.44890  0.19880  1.0000 0.1392791021
H   H29       1.0  0.32380  0.86740  0.81400  1.0000 0.1177705681
H   H30       1.0  0.67620  0.36740  0.68600  1.0000 0.1177705681
H   H31       1.0  0.67620  0.13260  0.18600  1.0000 0.1177705681
H   H32       1.0  0.32380  0.63260  0.31400  1.0000 0.1177705681
H   H33       1.0  0.32950  0.96510  0.68450  1.0000 0.1478862504
H   H34       1.0  0.67050  0.46510  0.81550  1.0000 0.1478862504
H   H35       1.0  0.67050  0.03490  0.31550  1.0000 0.1478862504
H   H36       1.0  0.32950  0.53490  0.18450  1.0000 0.1478862504
H   H37       1.0  0.40560  0.90780  0.72990  1.0000 0.1478862504
H   H38       1.0  0.59440  0.40780  0.77010  1.0000 0.1478862504
H   H39       1.0  0.59440  0.09220  0.27010  1.0000 0.1478862504
H   H40       1.0  0.40560  0.59220  0.22990  1.0000 0.1478862504
H   H41       1.0  0.31710  0.86860  0.68640  1.0000 0.1303664749
H   H42       1.0  0.68290  0.36860  0.81360  1.0000 0.1303664749
H   H43       1.0  0.68290  0.13140  0.31360  1.0000 0.1303664749
H   H44       1.0  0.31710  0.63140  0.18640  1.0000 0.1303664749
H   H45       1.0  0.04170  0.87130  0.79880  1.0000 0.1303664749
H   H46       1.0  0.95830  0.37130  0.70120  1.0000 0.1303664749
H   H47       1.0  0.95830  0.12870  0.20120  1.0000 0.1303664749
H   H48       1.0  0.04170  0.62870  0.29880  1.0000 0.1303664749
H   H49       1.0  0.95400  0.00550  0.70780  1.0000 0.1392791021
H   H50       1.0  0.04600  0.50550  0.79220  1.0000 0.1392791021
H   H51       1.0  0.04600  0.99450  0.29220  1.0000 0.1392791021
H   H52       1.0  0.95400  0.49450  0.20780  1.0000 0.1392791021
H   H53       1.0  0.95250  0.91300  0.67910  1.0000 0.1303664749
H   H54       1.0  0.04750  0.41300  0.82090  1.0000 0.1303664749
H   H55       1.0  0.04750  0.08700  0.32090  1.0000 0.1303664749
H   H56       1.0  0.95250  0.58700  0.17910  1.0000 0.1303664749
H   H57       1.0  0.90860  0.93730  0.74260  1.0000 0.1478862504
H   H58       1.0  0.09140  0.43730  0.75740  1.0000 0.1478862504
H   H59       1.0  0.09140  0.06270  0.25740  1.0000 0.1478862504
H   H60       1.0  0.90860  0.56270  0.24260  1.0000 0.1478862504
H   H61       1.0  0.26020  0.26880  0.76090  1.0000 0.1303664749
H   H62       1.0  0.73980  0.76880  0.73910  1.0000 0.1303664749
H   H63       1.0  0.73980  0.73120  0.23910  1.0000 0.1303664749
H   H64       1.0  0.26020  0.23120  0.26090  1.0000 0.1303664749
H   H65       1.0  0.33210  0.48350  0.88630  1.0000 0.1303664749
H   H66       1.0  0.66790  0.98350  0.61370  1.0000 0.1303664749
H   H67       1.0  0.66790  0.51650  0.11370  1.0000 0.1303664749
H   H68       1.0  0.33210  0.01650  0.38630  1.0000 0.1303664749
H   H69       1.0  0.25350  0.39680  0.95790  1.0000 0.1392791021
H   H70       1.0  0.74650  0.89680  0.54210  1.0000 0.1392791021
H   H71       1.0  0.74650  0.60320  0.04210  1.0000 0.1392791021
H   H72       1.0  0.25350  0.10320  0.45790  1.0000 0.1392791021
H   H73       1.0  0.16270  0.28470  0.92540  1.0000 0.1177705681
H   H74       1.0  0.83730  0.78470  0.57460  1.0000 0.1177705681
H   H75       1.0  0.83730  0.71530  0.07460  1.0000 0.1177705681
H   H76       1.0  0.16270  0.21530  0.42540  1.0000 0.1177705681
H   H77       1.0  0.09960  0.16710  0.82260  1.0000 0.1478862504
H   H78       1.0  0.90040  0.66710  0.67740  1.0000 0.1478862504
H   H79       1.0  0.90040  0.83290  0.17740  1.0000 0.1478862504
H   H80       1.0  0.09960  0.33290  0.32260  1.0000 0.1478862504
H   H81       1.0  0.06010  0.25510  0.82410  1.0000 0.1392791021
H   H82       1.0  0.93990  0.75510  0.67590  1.0000 0.1392791021
H   H83       1.0  0.93990  0.74490  0.17590  1.0000 0.1392791021
H   H84       1.0  0.06010  0.24490  0.32410  1.0000 0.1392791021
H   H85       1.0  0.11680  0.23940  0.76970  1.0000 0.1303664749
H   H86       1.0  0.88320  0.73940  0.73030  1.0000 0.1303664749
H   H87       1.0  0.88320  0.76060  0.23030  1.0000 0.1303664749
H   H88       1.0  0.11680  0.26060  0.26970  1.0000 0.1303664749
H   H89       1.0  0.39010  0.34870  0.74460  1.0000 0.1177705681
H   H90       1.0  0.60990  0.84870  0.75540  1.0000 0.1177705681
H   H91       1.0  0.60990  0.65130  0.25540  1.0000 0.1177705681
H   H92       1.0  0.39010  0.15130  0.24460  1.0000 0.1177705681
H   H93       1.0  0.47980  0.44410  0.79640  1.0000 0.1392791021
H   H94       1.0  0.52020  0.94410  0.70360  1.0000 0.1392791021
H   H95       1.0  0.52020  0.55590  0.20360  1.0000 0.1392791021
H   H96       1.0  0.47980  0.05590  0.29640  1.0000 0.1392791021
H   H97       1.0  0.41470  0.49990  0.81950  1.0000 0.1177705681
H   H98       1.0  0.58530  0.99990  0.68050  1.0000 0.1177705681
H   H99       1.0  0.58530  0.50010  0.18050  1.0000 0.1177705681
H   H100      1.0  0.41470  0.00010  0.31950  1.0000 0.1177705681
H   H101      1.0  0.42040  0.50360  0.73150  1.0000 0.1392791021
H   H102      1.0  0.57960  0.00360  0.76850  1.0000 0.1392791021
H   H103      1.0  0.57960  0.49640  0.26850  1.0000 0.1392791021
H   H104      1.0  0.42040  0.99640  0.23150  1.0000 0.1392791021
H   H105      1.0  0.74510  0.23450  0.99070  1.0000 0.1392791021
H   H106      1.0  0.25490  0.73450  0.50930  1.0000 0.1392791021
H   H107      1.0  0.25490  0.76550  0.00930  1.0000 0.1392791021
H   H108      1.0  0.74510  0.26550  0.49070  1.0000 0.1392791021
H   H109      1.0  0.74990  0.16040  0.76740  1.0000 0.1478862504
H   H110      1.0  0.25010  0.66040  0.73260  1.0000 0.1478862504
H   H111      1.0  0.25010  0.83960  0.23260  1.0000 0.1478862504
H   H112      1.0  0.74990  0.33960  0.26740  1.0000 0.1478862504
H   H113      1.0  0.60060  0.15350  0.76730  1.0000 0.1303664749
H   H114      1.0  0.39940  0.65350  0.73270  1.0000 0.1303664749
H   H115      1.0  0.39940  0.84650  0.23270  1.0000 0.1303664749
H   H116      1.0  0.60060  0.34650  0.26730  1.0000 0.1303664749
H   H117      1.0  0.58280  0.24390  0.94510  1.0000 0.1177705681
H   H118      1.0  0.41720  0.74390  0.55490  1.0000 0.1177705681
H   H119      1.0  0.41720  0.75610  0.05490  1.0000 0.1177705681
H   H120      1.0  0.58280  0.25610  0.44510  1.0000 0.1177705681
H   H121      1.0  0.54040  0.30040  0.82090  1.0000 0.1303664749
H   H122      1.0  0.45960  0.80040  0.67910  1.0000 0.1303664749
H   H123      1.0  0.45960  0.69960  0.17910  1.0000 0.1303664749
H   H124      1.0  0.54040  0.19960  0.32090  1.0000 0.1303664749
H   H125      1.0  0.50340  0.21560  0.78070  1.0000 0.1478862504
H   H126      1.0  0.49660  0.71560  0.71930  1.0000 0.1478862504
H   H127      1.0  0.49660  0.78440  0.21930  1.0000 0.1478862504
H   H128      1.0  0.50340  0.28440  0.28070  1.0000 0.1478862504
H   H129      1.0  0.46220  0.26160  0.83760  1.0000 0.1478862504
H   H130      1.0  0.53780  0.76160  0.66240  1.0000 0.1478862504
H   H131      1.0  0.53780  0.73840  0.16240  1.0000 0.1478862504
H   H132      1.0  0.46220  0.23840  0.33760  1.0000 0.1478862504
H   H133      1.0  0.87660  0.22430  0.95620  1.0000 0.1177705681
H   H134      1.0  0.12340  0.72430  0.54380  1.0000 0.1177705681
H   H135      1.0  0.12340  0.77570  0.04380  1.0000 0.1177705681
H   H136      1.0  0.87660  0.27570  0.45620  1.0000 0.1177705681
H   H137      1.0  0.86180  0.30890  0.83490  1.0000 0.1177705681
H   H138      1.0  0.13820  0.80890  0.66510  1.0000 0.1177705681
H   H139      1.0  0.13820  0.69110  0.16510  1.0000 0.1177705681
H   H140      1.0  0.86180  0.19110  0.33490  1.0000 0.1177705681
H   H141      1.0  0.94800  0.26220  0.85620  1.0000 0.1478862504
H   H142      1.0  0.05200  0.76220  0.64380  1.0000 0.1478862504
H   H143      1.0  0.05200  0.73780  0.14380  1.0000 0.1478862504
H   H144      1.0  0.94800  0.23780  0.35620  1.0000 0.1478862504
H   H145      1.0  0.92670  0.31450  0.92280  1.0000 0.1478862504
H   H146      1.0  0.07330  0.81450  0.57720  1.0000 0.1478862504
H   H147      1.0  0.07330  0.68550  0.07720  1.0000 0.1478862504
H   H148      1.0  0.92670  0.18550  0.42280  1.0000 0.1478862504
C   C1        1.0  0.18080  0.91460  0.80090  1.0000 -0.0390253725
C   C2        1.0  0.81920  0.41460  0.69910  1.0000 -0.0390253725
C   C3        1.0  0.81920  0.08540  0.19910  1.0000 -0.0390253725
C   C4        1.0  0.18080  0.58540  0.30090  1.0000 -0.0390253725
C   C5        1.0  0.12160  0.02950  0.72890  1.0000 -0.0477867328
C   C6        1.0  0.87840  0.52950  0.77110  1.0000 -0.0477867328
C   C7        1.0  0.87840  0.97050  0.27110  1.0000 -0.0477867328
C   C8        1.0  0.12160  0.47050  0.22890  1.0000 -0.0477867328
C   C9        1.0  0.20280  0.01780  0.72800  1.0000 -0.0882629033
C   C10       1.0  0.79720  0.51780  0.77200  1.0000 -0.0882629033
C   C11       1.0  0.79720  0.98220  0.27200  1.0000 -0.0882629033
C   C12       1.0  0.20280  0.48220  0.22800  1.0000 -0.0882629033
C   C13       1.0  0.38390  0.97010  0.86520  1.0000 0.626361972
C   C14       1.0  0.61610  0.47010  0.63480  1.0000 0.626361972
C   C15       1.0  0.61610  0.02990  0.13480  1.0000 0.626361972
C   C16       1.0  0.38390  0.52990  0.36520  1.0000 0.626361972
C   C17       1.0  0.32430  0.92450  0.79450  1.0000 -0.0003416418
C   C18       1.0  0.67570  0.42450  0.70550  1.0000 -0.0003416418
C   C19       1.0  0.67570  0.07550  0.20550  1.0000 -0.0003416418
C   C20       1.0  0.32430  0.57550  0.29450  1.0000 -0.0003416418
C   C21       1.0  0.34620  0.91570  0.71660  1.0000 -0.4203217865
C   C22       1.0  0.65380  0.41570  0.78340  1.0000 -0.4203217865
C   C23       1.0  0.65380  0.08430  0.28340  1.0000 -0.4203217865
C   C24       1.0  0.34620  0.58430  0.21660  1.0000 -0.4203217865
C   C25       1.0  0.03550  0.96560  0.87250  1.0000 0.6365795716
C   C26       1.0  0.96450  0.46560  0.62750  1.0000 0.6365795716
C   C27       1.0  0.96450  0.03440  0.12750  1.0000 0.6365795716
C   C28       1.0  0.03550  0.53440  0.37250  1.0000 0.6365795716
C   C29       1.0  0.03650  0.93180  0.79260  1.0000 -0.0220872778
C   C30       1.0  0.96350  0.43180  0.70740  1.0000 -0.0220872778
C   C31       1.0  0.96350  0.06820  0.20740  1.0000 -0.0220872778
C   C32       1.0  0.03650  0.56820  0.29260  1.0000 -0.0220872778
C   C33       1.0  0.95550  0.94840  0.72430  1.0000 -0.4093495102
C   C34       1.0  0.04450  0.44840  0.77570  1.0000 -0.4093495102
C   C35       1.0  0.04450  0.05160  0.27570  1.0000 -0.4093495102
C   C36       1.0  0.95550  0.55160  0.22430  1.0000 -0.4093495102
C   C37       1.0  0.27090  0.30820  0.80210  1.0000 0.0378083286
C   C38       1.0  0.72910  0.80820  0.69790  1.0000 0.0378083286
C   C39       1.0  0.72910  0.69180  0.19790  1.0000 0.0378083286
C   C40       1.0  0.27090  0.19180  0.30210  1.0000 0.0378083286
C   C41       1.0  0.31140  0.42990  0.87320  1.0000 -0.0882629033
C   C42       1.0  0.68860  0.92990  0.62680  1.0000 -0.0882629033
C   C43       1.0  0.68860  0.57010  0.12680  1.0000 -0.0791876779
C   C44       1.0  0.31140  0.07010  0.37320  1.0000 -0.0882629033
C   C45       1.0  0.26590  0.38190  0.91140  1.0000 -0.0882629033
C   C46       1.0  0.73410  0.88190  0.58860  1.0000 -0.0882629033
C   C47       1.0  0.73410  0.61810  0.08860  1.0000 -0.0882629033
C   C48       1.0  0.26590  0.11810  0.41140  1.0000 -0.0882629033
C   C49       1.0  0.23340  0.18270  0.94550  1.0000 0.6601185708
C   C50       1.0  0.76660  0.68270  0.55450  1.0000 0.6601185708
C   C51       1.0  0.76660  0.81730  0.05450  1.0000 0.6601185708
C   C52       1.0  0.23340  0.31730  0.44550  1.0000 0.6601185708
C   C53       1.0  0.18560  0.25130  0.89040  1.0000 -0.0220872778
C   C54       1.0  0.81440  0.75130  0.60960  1.0000 -0.0220872778
C   C55       1.0  0.81440  0.74870  0.10960  1.0000 -0.0220872778
C   C56       1.0  0.18560  0.24870  0.39040  1.0000 -0.0220872778
C   C57       1.0  0.10840  0.22590  0.82020  1.0000 -0.42852479
C   C58       1.0  0.89160  0.72590  0.67980  1.0000 -0.42852479
C   C59       1.0  0.89160  0.77410  0.17980  1.0000 -0.42852479
C   C60       1.0  0.10840  0.27410  0.32020  1.0000 -0.42852479
C   C61       1.0  0.30000  0.41890  0.66710  1.0000 0.6365795716
C   C62       1.0  0.70000  0.91890  0.83290  1.0000 0.6365795716
C   C63       1.0  0.70000  0.58110  0.33290  1.0000 0.6365795716
C   C64       1.0  0.30000  0.08110  0.16710  1.0000 0.6365795716
C   C65       1.0  0.35950  0.39890  0.75050  1.0000 -0.0261545048
C   C66       1.0  0.64050  0.89890  0.74950  1.0000 -0.0261545048
C   C67       1.0  0.64050  0.60110  0.24950  1.0000 -0.0261545048
C   C68       1.0  0.35950  0.10110  0.25050  1.0000 -0.0261545048
C   C69       1.0  0.42460  0.46800  0.77690  1.0000 -0.4203217865
C   C70       1.0  0.57540  0.96800  0.72310  1.0000 -0.4203217865
C   C71       1.0  0.57540  0.53200  0.22310  1.0000 -0.4203217865
C   C72       1.0  0.42460  0.03200  0.27690  1.0000 -0.4203217865
C   C73       1.0  0.72830  0.21700  0.93690  1.0000 -0.1818854117
C   C74       1.0  0.27170  0.71700  0.56310  1.0000 -0.1818854117
C   C75       1.0  0.27170  0.78300  0.06310  1.0000 -0.1818854117
C   C76       1.0  0.72830  0.28300  0.43690  1.0000 -0.1818854117
C   C77       1.0  0.73020  0.17360  0.81000  1.0000 -0.0791876779
C   C78       1.0  0.26980  0.67360  0.69000  1.0000 -0.0791876779
C   C79       1.0  0.26980  0.82640  0.19000  1.0000 -0.0791876779
C   C80       1.0  0.73020  0.32640  0.31000  1.0000 -0.0791876779
C   C81       1.0  0.64720  0.17130  0.80950  1.0000 -0.0882629033
C   C82       1.0  0.35280  0.67130  0.69050  1.0000 -0.0882629033
C   C83       1.0  0.35280  0.82870  0.19050  1.0000 -0.0882629033
C   C84       1.0  0.64720  0.32870  0.30950  1.0000 -0.0882629033
C   C85       1.0  0.56020  0.12320  0.94120  1.0000 0.6215625166
C   C86       1.0  0.43980  0.62320  0.55880  1.0000 0.6215625166
C   C87       1.0  0.43980  0.87680  0.05880  1.0000 0.6215625166
C   C88       1.0  0.56020  0.37680  0.44120  1.0000 0.6215625166
C   C89       1.0  0.57220  0.20300  0.90120  1.0000 0.0005596818
C   C90       1.0  0.42780  0.70300  0.59880  1.0000 0.0005596818
C   C91       1.0  0.42780  0.79700  0.09880  1.0000 0.0005596818
C   C92       1.0  0.57220  0.29700  0.40120  1.0000 0.0005596818
C   C93       1.0  0.51420  0.24940  0.82840  1.0000 -0.4403942765
C   C94       1.0  0.48580  0.74940  0.67160  1.0000 -0.4403942765
C   C95       1.0  0.48580  0.75060  0.17160  1.0000 -0.4403942765
C   C96       1.0  0.51420  0.25060  0.32840  1.0000 -0.4403942765
C   C97       1.0  0.90670  0.12220  0.93100  1.0000 0.6215625166
C   C98       1.0  0.09330  0.62220  0.56900  1.0000 0.6215625166
C   C99       1.0  0.09330  0.87780  0.06900  1.0000 0.6215625166
C   C100      1.0  0.90670  0.37780  0.43100  1.0000 0.6215625166
C   C101      1.0  0.86500  0.20330  0.90080  1.0000 -0.0142021204
C   C102      1.0  0.13500  0.70330  0.59920  1.0000 -0.0142021204
C   C103      1.0  0.13500  0.79670  0.09920  1.0000 -0.0142021204
C   C104      1.0  0.86500  0.29670  0.40080  1.0000 -0.0142021204
C   C105      1.0  0.90390  0.27910  0.87650  1.0000 -0.42852479
C   C106      1.0  0.09610  0.77910  0.62350  1.0000 -0.42852479
C   C107      1.0  0.09610  0.72090  0.12350  1.0000 -0.42852479
C   C108      1.0  0.90390  0.22090  0.37650  1.0000 -0.42852479
Br  Br1       1.0  0.29220  0.18710  0.63650  1.0000 -0.6776509673
Br  Br2       1.0  0.70780  0.68710  0.86350  1.0000 -0.6776509673
Br  Br3       1.0  0.70780  0.81290  0.36350  1.0000 -0.6776509673
Br  Br4       1.0  0.29220  0.31290  0.13650  1.0000 -0.6776509673
N   N1        1.0  0.24250  0.95100  0.77540  1.0000 0.0378083286
N   N2        1.0  0.75750  0.45100  0.72460  1.0000 0.0378083286
N   N3        1.0  0.75750  0.04900  0.22460  1.0000 0.0378083286
N   N4        1.0  0.24250  0.54900  0.27540  1.0000 0.0378083286
N   N5        1.0  0.10820  0.96000  0.76950  1.0000 0.0466225839
N   N6        1.0  0.89180  0.46000  0.73050  1.0000 0.0466225839
N   N7        1.0  0.89180  0.04000  0.23050  1.0000 0.0466225839
N   N8        1.0  0.10820  0.54000  0.26950  1.0000 0.0466225839
N   N9        1.0  0.24230  0.30840  0.86820  1.0000 0.0378083286
N   N10       1.0  0.75770  0.80840  0.63180  1.0000 0.0378083286
N   N11       1.0  0.75770  0.69160  0.13180  1.0000 0.0378083286
N   N12       1.0  0.24230  0.19160  0.36820  1.0000 0.0378083286
N   N13       1.0  0.31880  0.37920  0.81110  1.0000 0.0378083286
N   N14       1.0  0.68120  0.87920  0.68890  1.0000 0.0378083286
N   N15       1.0  0.68120  0.62080  0.18890  1.0000 0.0378083286
N   N16       1.0  0.31880  0.12080  0.31110  1.0000 0.0378083286
N   N17       1.0  0.64820  0.20090  0.88490  1.0000 0.0378083286
N   N18       1.0  0.35180  0.70090  0.61510  1.0000 0.0378083286
N   N19       1.0  0.35180  0.79910  0.11510  1.0000 0.0378083286
N   N20       1.0  0.64820  0.29910  0.38490  1.0000 0.0378083286
N   N21       1.0  0.77740  0.20000  0.88780  1.0000 0.0556845165
N   N22       1.0  0.22260  0.70000  0.61220  1.0000 0.0556845165
N   N23       1.0  0.22260  0.80000  0.11220  1.0000 0.0556845165
N   N24       1.0  0.77740  0.30000  0.38780  1.0000 0.0556845165
Cl  Cl1       1.0  0.03160  0.79710  0.35760  1.0000 -0.6906970234
Cl  Cl2       1.0  0.96840  0.29710  0.14240  1.0000 -0.6906970234
Cl  Cl3       1.0  0.96840  0.20290  0.64240  1.0000 -0.6906970234
Cl  Cl4       1.0  0.03160  0.70290  0.85760  1.0000 -0.6906970234
O   O1        1.0  0.35710  0.00910  0.91100  1.0000 -0.6035607994
O   O2        1.0  0.64290  0.50910  0.58900  1.0000 -0.6035607994
O   O3        1.0  0.64290  0.99090  0.08900  1.0000 -0.6035607994
O   O4        1.0  0.35710  0.49090  0.41100  1.0000 -0.6035607994
O   O5        1.0  0.45980  0.95080  0.87890  1.0000 -0.6963611708
O   O6        1.0  0.54020  0.45080  0.62110  1.0000 -0.6963611708
O   O7        1.0  0.54020  0.04920  0.12110  1.0000 -0.6963611708
O   O8        1.0  0.45980  0.54920  0.37890  1.0000 -0.6963611708
O   O9        1.0  0.09560  0.00750  0.91390  1.0000 -0.6230049522
O   O10       1.0  0.90440  0.50750  0.58610  1.0000 -0.6230049522
O   O11       1.0  0.90440  0.99250  0.08610  1.0000 -0.6230049522
O   O12       1.0  0.09560  0.49250  0.41390  1.0000 -0.6230049522
O   O13       1.0  0.97300  0.94140  0.89180  1.0000 -0.717907706
O   O14       1.0  0.02700  0.44140  0.60820  1.0000 -0.717907706
O   O15       1.0  0.02700  0.05860  0.10820  1.0000 -0.717907706
O   O16       1.0  0.97300  0.55860  0.39180  1.0000 -0.717907706
O   O17       1.0  0.31180  0.16970  0.95320  1.0000 -0.6963611708
O   O18       1.0  0.68820  0.66970  0.54680  1.0000 -0.6963611708
O   O19       1.0  0.68820  0.83030  0.04680  1.0000 -0.6963611708
O   O20       1.0  0.31180  0.33030  0.45320  1.0000 -0.6963611708
O   O21       1.0  0.19280  0.14310  0.97990  1.0000 -0.6591784746
O   O22       1.0  0.80720  0.64310  0.52010  1.0000 -0.6591784746
O   O23       1.0  0.80720  0.85690  0.02010  1.0000 -0.6591784746
O   O24       1.0  0.19280  0.35690  0.47990  1.0000 -0.6591784746
O   O25       1.0  0.33490  0.42660  0.61470  1.0000 -0.6906970234
O   O26       1.0  0.66510  0.92660  0.88530  1.0000 -0.6906970234
O   O27       1.0  0.66510  0.57340  0.38530  1.0000 -0.6906970234
O   O28       1.0  0.33490  0.07340  0.11470  1.0000 -0.6906970234
O   O29       1.0  0.22400  0.42300  0.65310  1.0000 -0.6117992939
O   O30       1.0  0.77600  0.92300  0.84690  1.0000 -0.6117992939
O   O31       1.0  0.77600  0.57700  0.34690  1.0000 -0.6117992939
O   O32       1.0  0.22400  0.07700  0.15310  1.0000 -0.6117992939
O   O33       1.0  0.49040  0.13000  0.96440  1.0000 -0.8102656097
O   O34       1.0  0.50960  0.63000  0.53560  1.0000 -0.8102656097
O   O35       1.0  0.50960  0.87000  0.03560  1.0000 -0.8102656097
O   O36       1.0  0.49040  0.37000  0.46440  1.0000 -0.8102656097
O   O37       1.0  0.59640  0.06210  0.94050  1.0000 -0.5179076583
O   O38       1.0  0.40360  0.56210  0.55950  1.0000 -0.5179076583
O   O39       1.0  0.40360  0.93790  0.05950  1.0000 -0.5179076583
O   O40       1.0  0.59640  0.43790  0.44050  1.0000 -0.5179076583
O   O41       1.0  0.86640  0.06150  0.93210  1.0000 -0.57847313
O   O42       1.0  0.13360  0.56150  0.56790  1.0000 -0.57847313
O   O43       1.0  0.13360  0.93850  0.06790  1.0000 -0.57847313
O   O44       1.0  0.86640  0.43850  0.43210  1.0000 -0.57847313
O   O45       1.0  0.99080  0.13040  0.94950  1.0000 -0.755219856
O   O46       1.0  0.00920  0.63040  0.55050  1.0000 -0.755219856
O   O47       1.0  0.00920  0.86960  0.05050  1.0000 -0.7544981034
O   O48       1.0  0.99080  0.36960  0.44950  1.0000 -0.755219856
O   O49       1.0  0.44300  0.20290  0.09600  1.0000 -0.7792193086
O   O50       1.0  0.55700  0.70290  0.40400  1.0000 -0.7792193086
O   O51       1.0  0.55700  0.79710  0.90400  1.0000 -0.7792193086
O   O52       1.0  0.44300  0.29710  0.59600  1.0000 -0.7792193086
O   O53       1.0  0.11150  0.21060  0.08030  1.0000 -0.7671633155
O   O54       1.0  0.88850  0.71060  0.41970  1.0000 -0.7671633155
O   O55       1.0  0.88850  0.78940  0.91970  1.0000 -0.7671633155
O   O56       1.0  0.11150  0.28940  0.58030  1.0000 -0.7671633155
