# DDEC6 charges by PACMAN v1.1 (https://github.com/mtap-research/PACMAN-charge/)
data_ABECIX_ASR_pacman
_symmetry_space_group_name_H-M   'P 1'
_cell_length_a   15.50260000
_cell_length_b   23.98280000
_cell_length_c   25.28950000
_cell_angle_alpha   90.00000000
_cell_angle_beta   90.00000000
_cell_angle_gamma   90.00000000
_symmetry_Int_Tables_number   1
_chemical_formula_structural   Co3Ag2P2H48C68N2O16F
_chemical_formula_sum   'Co12 Ag8 P8 H192 C272 N8 O64 F4'
_cell_volume   9402.52875315
_cell_formula_units_Z   4
loop_
 _symmetry_equiv_pos_site_id
 _symmetry_equiv_pos_as_xyz
  1  'x, y, z'
loop_
 _atom_site_type_symbol
 _atom_site_label
 _atom_site_symmetry_multiplicity
 _atom_site_fract_x
 _atom_site_fract_y
 _atom_site_fract_z
 _atom_site_occupancy
 _atom_site_charge
Co  Co1  1  0.63419000  0.75000000  0.67197000  1.0 0.9245172719
Co  Co2  1  0.41147000  0.75000000  0.70076000  1.0 0.9855166058
Co  Co3  1  0.13419000  0.25000000  0.82803000  1.0 0.9245172719
Co  Co4  1  0.91147000  0.25000000  0.79924000  1.0 0.9855166058
Co  Co5  1  0.36581000  0.25000000  0.32803000  1.0 0.9245172719
Co  Co6  1  0.58853000  0.25000000  0.29924000  1.0 0.9849612693
Co  Co7  1  0.86581000  0.75000000  0.17197000  1.0 0.9245172719
Co  Co8  1  0.08853000  0.75000000  0.20076000  1.0 0.9855166058
Co  Co9  1  0.51735000  0.25000000  0.43004000  1.0 0.8507211337
Co  Co10  1  0.01735000  0.75000000  0.06996000  1.0 0.8507211337
Co  Co11  1  0.48265000  0.75000000  0.56996000  1.0 0.8507211337
Co  Co12  1  0.98265000  0.25000000  0.93004000  1.0 0.8507211337
Ag  Ag1  1  0.99896000  0.48466000  0.49041000  1.0 -0.0321906821
Ag  Ag2  1  0.49896000  0.51534000  0.00959000  1.0 -0.0321906821
Ag  Ag3  1  0.00104000  0.98466000  0.50959000  1.0 -0.0321906821
Ag  Ag4  1  0.50104000  0.01534000  0.99041000  1.0 -0.0321906821
Ag  Ag5  1  0.00104000  0.51534000  0.50959000  1.0 -0.0321906821
Ag  Ag6  1  0.50104000  0.48466000  0.99041000  1.0 -0.0321906821
Ag  Ag7  1  0.99896000  0.01534000  0.49041000  1.0 -0.0321906821
Ag  Ag8  1  0.49896000  0.98466000  0.00959000  1.0 -0.0321906821
P  P1  1  0.88184000  0.52671000  0.44590000  1.0 0.057187693
P  P2  1  0.38184000  0.47329000  0.05410000  1.0 0.0533812734
P  P3  1  0.11816000  0.02671000  0.55410000  1.0 0.0533812734
P  P4  1  0.61816000  0.97329000  0.94590000  1.0 0.057187693
P  P5  1  0.11816000  0.47329000  0.55410000  1.0 0.0533812734
P  P6  1  0.61816000  0.52671000  0.94590000  1.0 0.057187693
P  P7  1  0.88184000  0.97329000  0.44590000  1.0 0.057187693
P  P8  1  0.38184000  0.02671000  0.05410000  1.0 0.0533812734
H  H1  1  0.77970000  0.58081000  0.36600000  1.0 0.1000488867
H  H2  1  0.80732000  0.63610000  0.29215000  1.0 0.1276500205
H  H3  1  0.06002000  0.62118000  0.31929000  1.0 0.1102763119
H  H4  1  0.03299000  0.56547000  0.39289000  1.0 0.1102763119
H  H5  1  0.29869000  0.66836000  0.76373000  1.0 0.1000488867
H  H6  1  0.20347000  0.66609000  0.83319000  1.0 0.1276500205
H  H7  1  0.12840000  0.66563000  0.89986000  1.0 0.1276500205
H  H8  1  0.05349000  0.66837000  0.97881000  1.0 0.0899184995
H  H9  1  0.88246000  0.57129000  0.54663000  1.0 0.0708285434
H  H10  1  0.79967000  0.63561000  0.59420000  1.0 0.0811379462
H  H11  1  0.62854000  0.63962000  0.47638000  1.0 0.0811379462
H  H12  1  0.71618000  0.58136000  0.42435000  1.0 0.0811379462
H  H13  1  0.72869000  0.47464000  0.48812000  1.0 0.0811379462
H  H14  1  0.64897000  0.39404000  0.46926000  1.0 0.0899184995
H  H15  1  0.76834000  0.38409000  0.32681000  1.0 0.1000488867
H  H16  1  0.85763000  0.45889000  0.34972000  1.0 0.1000488867
H  H17  1  0.89992000  0.61674000  0.51529000  1.0 0.0708285434
H  H18  1  0.81093000  0.67484000  0.56470000  1.0 0.0811379462
H  H19  1  0.60318000  0.59379000  0.50677000  1.0 0.0811379462
H  H20  1  0.69458000  0.53509000  0.45683000  1.0 0.0811379462
H  H21  1  0.80655000  0.43795000  0.49968000  1.0 0.0811379462
H  H22  1  0.72269000  0.36096000  0.47677000  1.0 0.0899184995
H  H23  1  0.73027000  0.40663000  0.32374000  1.0 0.1000488867
H  H24  1  0.81532000  0.48356000  0.34658000  1.0 0.1000488867
H  H25  1  0.27970000  0.41919000  0.13400000  1.0 0.1000488867
H  H26  1  0.30732000  0.36390000  0.20785000  1.0 0.1276500205
H  H27  1  0.56002000  0.37882000  0.18071000  1.0 0.1102763119
H  H28  1  0.53299000  0.43453000  0.10711000  1.0 0.1102763119
H  H29  1  0.79869000  0.33164000  0.73627000  1.0 0.1000488867
H  H30  1  0.70347000  0.33391000  0.66681000  1.0 0.1276500205
H  H31  1  0.62840000  0.33437000  0.60014000  1.0 0.1276500205
H  H32  1  0.55349000  0.33163000  0.52119000  1.0 0.0899184995
H  H33  1  0.38246000  0.42871000  0.95337000  1.0 0.0708285434
H  H34  1  0.29967000  0.36439000  0.90580000  1.0 0.0899184995
H  H35  1  0.12854000  0.36038000  0.02362000  1.0 0.0811379462
H  H36  1  0.21618000  0.41864000  0.07565000  1.0 0.0811379462
H  H37  1  0.22869000  0.52536000  0.01188000  1.0 0.0811379462
H  H38  1  0.14897000  0.60596000  0.03074000  1.0 0.0899184995
H  H39  1  0.26834000  0.61591000  0.17319000  1.0 0.1000488867
H  H40  1  0.35763000  0.54111000  0.15028000  1.0 0.1000488867
H  H41  1  0.39992000  0.38326000  0.98471000  1.0 0.0708285434
H  H42  1  0.31093000  0.32516000  0.93530000  1.0 0.0811379462
H  H43  1  0.10318000  0.40621000  0.99323000  1.0 0.0811379462
H  H44  1  0.19458000  0.46491000  0.04317000  1.0 0.0811379462
H  H45  1  0.30655000  0.56205000  0.00032000  1.0 0.0811379462
H  H46  1  0.22269000  0.63904000  0.02323000  1.0 0.0899184995
H  H47  1  0.23027000  0.59337000  0.17626000  1.0 0.1000488867
H  H48  1  0.31532000  0.51644000  0.15342000  1.0 0.1000488867
H  H49  1  0.22030000  0.08081000  0.63400000  1.0 0.1000488867
H  H50  1  0.19268000  0.13610000  0.70785000  1.0 0.1276500205
H  H51  1  0.93998000  0.12118000  0.68071000  1.0 0.1102763119
H  H52  1  0.96701000  0.06547000  0.60711000  1.0 0.1000488867
H  H53  1  0.70131000  0.16836000  0.23627000  1.0 0.1102763119
H  H54  1  0.79653000  0.16609000  0.16681000  1.0 0.1276500205
H  H55  1  0.87160000  0.16563000  0.10014000  1.0 0.1276500205
H  H56  1  0.94651000  0.16837000  0.02119000  1.0 0.0899184995
H  H57  1  0.11754000  0.07129000  0.45337000  1.0 0.0708285434
H  H58  1  0.20033000  0.13561000  0.40580000  1.0 0.0899184995
H  H59  1  0.37146000  0.13962000  0.52362000  1.0 0.0811379462
H  H60  1  0.28382000  0.08136000  0.57565000  1.0 0.0811379462
H  H61  1  0.27131000  0.97464000  0.51188000  1.0 0.0811379462
H  H62  1  0.35103000  0.89404000  0.53074000  1.0 0.0899184995
H  H63  1  0.23166000  0.88409000  0.67319000  1.0 0.1000488867
H  H64  1  0.14237000  0.95889000  0.65028000  1.0 0.1000488867
H  H65  1  0.10008000  0.11674000  0.48471000  1.0 0.0708285434
H  H66  1  0.18907000  0.17484000  0.43530000  1.0 0.0811379462
H  H67  1  0.39682000  0.09379000  0.49323000  1.0 0.0811379462
H  H68  1  0.30542000  0.03509000  0.54317000  1.0 0.0811379462
H  H69  1  0.19345000  0.93795000  0.50032000  1.0 0.0811379462
H  H70  1  0.27731000  0.86096000  0.52323000  1.0 0.0899184995
H  H71  1  0.26973000  0.90663000  0.67626000  1.0 0.1000488867
H  H72  1  0.18468000  0.98356000  0.65342000  1.0 0.1000488867
H  H73  1  0.72030000  0.91919000  0.86600000  1.0 0.1000488867
H  H74  1  0.69268000  0.86390000  0.79215000  1.0 0.1276500205
H  H75  1  0.43998000  0.87882000  0.81929000  1.0 0.1102763119
H  H76  1  0.46701000  0.93453000  0.89289000  1.0 0.1000488867
H  H77  1  0.20131000  0.83164000  0.26373000  1.0 0.1000488867
H  H78  1  0.29653000  0.83391000  0.33319000  1.0 0.1276500205
H  H79  1  0.37160000  0.83437000  0.39986000  1.0 0.1276500205
H  H80  1  0.44651000  0.83163000  0.47881000  1.0 0.0899184995
H  H81  1  0.61754000  0.92871000  0.04663000  1.0 0.0708285434
H  H82  1  0.70033000  0.86439000  0.09420000  1.0 0.0811379462
H  H83  1  0.87146000  0.86038000  0.97638000  1.0 0.0811379462
H  H84  1  0.78382000  0.91864000  0.92435000  1.0 0.0811379462
H  H85  1  0.77131000  0.02536000  0.98812000  1.0 0.0811379462
H  H86  1  0.85103000  0.10596000  0.96926000  1.0 0.0899184995
H  H87  1  0.73166000  0.11591000  0.82681000  1.0 0.1000488867
H  H88  1  0.64237000  0.04111000  0.84972000  1.0 0.1000488867
H  H89  1  0.60008000  0.88326000  0.01529000  1.0 0.0708285434
H  H90  1  0.68907000  0.82516000  0.06470000  1.0 0.0811379462
H  H91  1  0.89682000  0.90621000  0.00677000  1.0 0.0811379462
H  H92  1  0.80542000  0.96491000  0.95683000  1.0 0.0811379462
H  H93  1  0.69345000  0.06205000  0.99968000  1.0 0.0811379462
H  H94  1  0.77731000  0.13904000  0.97677000  1.0 0.0899184995
H  H95  1  0.76973000  0.09337000  0.82374000  1.0 0.1000488867
H  H96  1  0.68468000  0.01644000  0.84658000  1.0 0.1000488867
H  H97  1  0.22030000  0.41919000  0.63400000  1.0 0.1000488867
H  H98  1  0.19268000  0.36390000  0.70785000  1.0 0.1276500205
H  H99  1  0.93998000  0.37882000  0.68071000  1.0 0.1102763119
H  H100  1  0.96701000  0.43453000  0.60711000  1.0 0.1000488867
H  H101  1  0.70131000  0.33164000  0.23627000  1.0 0.1000488867
H  H102  1  0.79653000  0.33391000  0.16681000  1.0 0.1276500205
H  H103  1  0.87160000  0.33437000  0.10014000  1.0 0.1276500205
H  H104  1  0.94651000  0.33163000  0.02119000  1.0 0.0899184995
H  H105  1  0.11754000  0.42871000  0.45337000  1.0 0.0708285434
H  H106  1  0.20033000  0.36439000  0.40580000  1.0 0.0899184995
H  H107  1  0.37146000  0.36038000  0.52362000  1.0 0.0811379462
H  H108  1  0.28382000  0.41864000  0.57565000  1.0 0.0811379462
H  H109  1  0.27131000  0.52536000  0.51188000  1.0 0.0811379462
H  H110  1  0.35103000  0.60596000  0.53074000  1.0 0.0899184995
H  H111  1  0.23166000  0.61591000  0.67319000  1.0 0.1000488867
H  H112  1  0.14237000  0.54111000  0.65028000  1.0 0.1000488867
H  H113  1  0.10008000  0.38326000  0.48471000  1.0 0.0708285434
H  H114  1  0.18907000  0.32516000  0.43530000  1.0 0.0811379462
H  H115  1  0.39682000  0.40621000  0.49323000  1.0 0.0811379462
H  H116  1  0.30542000  0.46491000  0.54317000  1.0 0.0811379462
H  H117  1  0.19345000  0.56205000  0.50032000  1.0 0.0811379462
H  H118  1  0.27731000  0.63904000  0.52323000  1.0 0.0899184995
H  H119  1  0.26973000  0.59337000  0.67626000  1.0 0.1000488867
H  H120  1  0.18468000  0.51644000  0.65342000  1.0 0.1000488867
H  H121  1  0.72030000  0.58081000  0.86600000  1.0 0.1000488867
H  H122  1  0.69268000  0.63610000  0.79215000  1.0 0.1276500205
H  H123  1  0.43998000  0.62118000  0.81929000  1.0 0.1102763119
H  H124  1  0.46701000  0.56547000  0.89289000  1.0 0.1000488867
H  H125  1  0.20131000  0.66836000  0.26373000  1.0 0.1000488867
H  H126  1  0.29653000  0.66609000  0.33319000  1.0 0.1276500205
H  H127  1  0.37160000  0.66563000  0.39986000  1.0 0.1276500205
H  H128  1  0.44651000  0.66837000  0.47881000  1.0 0.0899184995
H  H129  1  0.61754000  0.57129000  0.04663000  1.0 0.0708285434
H  H130  1  0.70033000  0.63561000  0.09420000  1.0 0.0811379462
H  H131  1  0.87146000  0.63962000  0.97638000  1.0 0.0811379462
H  H132  1  0.78382000  0.58136000  0.92435000  1.0 0.0811379462
H  H133  1  0.77131000  0.47464000  0.98812000  1.0 0.0811379462
H  H134  1  0.85103000  0.39404000  0.96926000  1.0 0.0899184995
H  H135  1  0.73166000  0.38409000  0.82681000  1.0 0.1000488867
H  H136  1  0.64237000  0.45889000  0.84972000  1.0 0.1000488867
H  H137  1  0.60008000  0.61674000  0.01529000  1.0 0.0708285434
H  H138  1  0.68907000  0.67484000  0.06470000  1.0 0.0811379462
H  H139  1  0.89682000  0.59379000  0.00677000  1.0 0.0811379462
H  H140  1  0.80542000  0.53509000  0.95683000  1.0 0.0811379462
H  H141  1  0.69345000  0.43795000  0.99968000  1.0 0.0811379462
H  H142  1  0.77731000  0.36096000  0.97677000  1.0 0.0899184995
H  H143  1  0.76973000  0.40663000  0.82374000  1.0 0.1000488867
H  H144  1  0.68468000  0.48356000  0.84658000  1.0 0.1000488867
H  H145  1  0.77970000  0.91919000  0.36600000  1.0 0.1000488867
H  H146  1  0.80732000  0.86390000  0.29215000  1.0 0.1276500205
H  H147  1  0.06002000  0.87882000  0.31929000  1.0 0.1102763119
H  H148  1  0.03299000  0.93453000  0.39289000  1.0 0.1102763119
H  H149  1  0.29869000  0.83164000  0.76373000  1.0 0.1000488867
H  H150  1  0.20347000  0.83391000  0.83319000  1.0 0.1276500205
H  H151  1  0.12840000  0.83437000  0.89986000  1.0 0.1276500205
H  H152  1  0.05349000  0.83163000  0.97881000  1.0 0.0899184995
H  H153  1  0.88246000  0.92871000  0.54663000  1.0 0.0708285434
H  H154  1  0.79967000  0.86439000  0.59420000  1.0 0.0811379462
H  H155  1  0.62854000  0.86038000  0.47638000  1.0 0.0811379462
H  H156  1  0.71618000  0.91864000  0.42435000  1.0 0.0811379462
H  H157  1  0.72869000  0.02536000  0.48812000  1.0 0.0811379462
H  H158  1  0.64897000  0.10596000  0.46926000  1.0 0.0899184995
H  H159  1  0.76834000  0.11591000  0.32681000  1.0 0.1000488867
H  H160  1  0.85763000  0.04111000  0.34972000  1.0 0.1000488867
H  H161  1  0.89992000  0.88326000  0.51529000  1.0 0.0708285434
H  H162  1  0.81093000  0.82516000  0.56470000  1.0 0.0811379462
H  H163  1  0.60318000  0.90621000  0.50677000  1.0 0.0811379462
H  H164  1  0.69458000  0.96491000  0.45683000  1.0 0.0811379462
H  H165  1  0.80655000  0.06205000  0.49968000  1.0 0.0811379462
H  H166  1  0.72269000  0.13904000  0.47677000  1.0 0.0899184995
H  H167  1  0.73027000  0.09337000  0.32374000  1.0 0.1000488867
H  H168  1  0.81532000  0.01644000  0.34658000  1.0 0.1000488867
H  H169  1  0.27970000  0.08081000  0.13400000  1.0 0.1000488867
H  H170  1  0.30732000  0.13610000  0.20785000  1.0 0.1276500205
H  H171  1  0.56002000  0.12118000  0.18071000  1.0 0.1102763119
H  H172  1  0.53299000  0.06547000  0.10711000  1.0 0.1102763119
H  H173  1  0.79869000  0.16836000  0.73627000  1.0 0.1000488867
H  H174  1  0.70347000  0.16609000  0.66681000  1.0 0.1276500205
H  H175  1  0.62840000  0.16563000  0.60014000  1.0 0.1276500205
H  H176  1  0.55349000  0.16837000  0.52119000  1.0 0.0899184995
H  H177  1  0.38246000  0.07129000  0.95337000  1.0 0.0708285434
H  H178  1  0.29967000  0.13561000  0.90580000  1.0 0.0899184995
H  H179  1  0.12854000  0.13962000  0.02362000  1.0 0.0811379462
H  H180  1  0.21618000  0.08136000  0.07565000  1.0 0.0811379462
H  H181  1  0.22869000  0.97464000  0.01188000  1.0 0.0811379462
H  H182  1  0.14897000  0.89404000  0.03074000  1.0 0.0899184995
H  H183  1  0.26834000  0.88409000  0.17319000  1.0 0.1000488867
H  H184  1  0.35763000  0.95889000  0.15028000  1.0 0.1000488867
H  H185  1  0.39992000  0.11674000  0.98471000  1.0 0.0708285434
H  H186  1  0.31093000  0.17484000  0.93530000  1.0 0.0811379462
H  H187  1  0.10318000  0.09379000  0.99323000  1.0 0.0811379462
H  H188  1  0.19458000  0.03509000  0.04317000  1.0 0.0811379462
H  H189  1  0.30655000  0.93795000  0.00032000  1.0 0.0811379462
H  H190  1  0.22269000  0.86096000  0.02323000  1.0 0.0899184995
H  H191  1  0.23027000  0.90663000  0.17626000  1.0 0.1000488867
H  H192  1  0.31532000  0.98356000  0.15342000  1.0 0.1000488867
C  C1  1  0.80650000  0.57096000  0.48176000  1.0 -0.0508594405
C  C2  1  0.69960000  0.63973000  0.54050000  1.0 -0.1017164548
C  C3  1  0.64230000  0.67630000  0.57299000  1.0 0.4233469161
C  C4  1  0.81770000  0.46720000  0.42462000  1.0 -0.0810534812
C  C5  1  0.71660000  0.37552000  0.39829000  1.0 -0.0092343339
C  C6  1  0.65460000  0.32870000  0.38476000  1.0 0.5284734944
C  C7  1  0.90290000  0.56662000  0.38568000  1.0 -0.0876727651
C  C8  1  0.83770000  0.58850000  0.35630000  1.0 -0.1757390683
C  C9  1  0.85390000  0.62200000  0.31260000  1.0 -0.0876727651
C  C10  1  0.93620000  0.63433000  0.29922000  1.0 -0.0092343339
C  C11  1  0.00210000  0.61290000  0.32880000  1.0 -0.0810534812
C  C12  1  0.98640000  0.57940000  0.37240000  1.0 -0.151340427
C  C13  1  0.95400000  0.67382000  0.25325000  1.0 0.595595775
C  C14  1  0.27980000  0.70270000  0.77853000  1.0 0.0899184995
C  C15  1  0.22300000  0.70100000  0.82000000  1.0 -0.1945454908
C  C16  1  0.11490000  0.70050000  0.91554000  1.0 -0.2012210061
C  C17  1  0.07070000  0.70250000  0.96296000  1.0 0.0811379462
C  C18  1  0.83090000  0.58590000  0.53180000  1.0 -0.0587388082
C  C19  1  0.78030000  0.62240000  0.56090000  1.0 0.0012505239
C  C20  1  0.68040000  0.62550000  0.49120000  1.0 -0.0508594405
C  C21  1  0.73220000  0.59070000  0.45950000  1.0 -0.0587388082
C  C22  1  0.74300000  0.45220000  0.45840000  1.0 -0.0398410801
C  C23  1  0.69460000  0.40590000  0.44690000  1.0 -0.0587388082
C  C24  1  0.76750000  0.39840000  0.36180000  1.0 -0.0508594405
C  C25  1  0.81960000  0.44390000  0.37550000  1.0 -0.067251719
C  C26  1  0.83920000  0.61190000  0.51350000  1.0 -0.0508594405
C  C27  1  0.78660000  0.64660000  0.54300000  1.0 -0.0321906821
C  C28  1  0.66400000  0.59840000  0.50850000  1.0 -0.0398410801
C  C29  1  0.71820000  0.56340000  0.47870000  1.0 -0.0508594405
C  C30  1  0.79100000  0.43160000  0.46380000  1.0 -0.0810534812
C  C31  1  0.74090000  0.38600000  0.44990000  1.0 -0.0398410801
C  C32  1  0.74540000  0.41270000  0.35970000  1.0 -0.0587388082
C  C33  1  0.79600000  0.45850000  0.37320000  1.0 -0.0398410801
C  C34  1  0.30650000  0.42904000  0.01824000  1.0 -0.0508594405
C  C35  1  0.19960000  0.36027000  0.95950000  1.0 -0.1017164548
C  C36  1  0.14230000  0.32370000  0.92701000  1.0 0.4233469161
C  C37  1  0.31770000  0.53280000  0.07538000  1.0 -0.067251719
C  C38  1  0.21660000  0.62448000  0.10171000  1.0 -0.0092343339
C  C39  1  0.15460000  0.67130000  0.11524000  1.0 0.5284734944
C  C40  1  0.40290000  0.43338000  0.11432000  1.0 -0.0876727651
C  C41  1  0.33770000  0.41150000  0.14370000  1.0 -0.1757390683
C  C42  1  0.35390000  0.37800000  0.18740000  1.0 -0.0876727651
C  C43  1  0.43620000  0.36567000  0.20078000  1.0 -0.0092343339
C  C44  1  0.50210000  0.38710000  0.17120000  1.0 -0.0810534812
C  C45  1  0.48640000  0.42060000  0.12760000  1.0 -0.151340427
C  C46  1  0.45400000  0.32618000  0.24675000  1.0 0.595595775
C  C47  1  0.77980000  0.29730000  0.72147000  1.0 0.0899184995
C  C48  1  0.72300000  0.29900000  0.68000000  1.0 -0.1945454908
C  C49  1  0.61490000  0.29950000  0.58446000  1.0 -0.2012210061
C  C50  1  0.57070000  0.29750000  0.53704000  1.0 0.0811379462
C  C51  1  0.33090000  0.41410000  0.96820000  1.0 -0.0587388082
C  C52  1  0.28030000  0.37760000  0.93910000  1.0 -0.0008704973
C  C53  1  0.18040000  0.37450000  0.00880000  1.0 -0.0508594405
C  C54  1  0.23220000  0.40930000  0.04050000  1.0 -0.0587388082
C  C55  1  0.24300000  0.54780000  0.04160000  1.0 -0.0508594405
C  C56  1  0.19460000  0.59410000  0.05310000  1.0 -0.0587388082
C  C57  1  0.26750000  0.60160000  0.13820000  1.0 -0.0508594405
C  C58  1  0.31960000  0.55610000  0.12450000  1.0 -0.067251719
C  C59  1  0.33920000  0.38810000  0.98650000  1.0 -0.0508594405
C  C60  1  0.28660000  0.35340000  0.95700000  1.0 -0.0321906821
C  C61  1  0.16400000  0.40160000  0.99150000  1.0 -0.0398410801
C  C62  1  0.21820000  0.43660000  0.02130000  1.0 -0.0508594405
C  C63  1  0.29100000  0.56840000  0.03620000  1.0 -0.0810534812
C  C64  1  0.24090000  0.61400000  0.05010000  1.0 -0.0398410801
C  C65  1  0.24540000  0.58730000  0.14030000  1.0 -0.0587388082
C  C66  1  0.29600000  0.54150000  0.12680000  1.0 -0.0508594405
C  C67  1  0.19350000  0.07096000  0.51824000  1.0 -0.0587388082
C  C68  1  0.30040000  0.13973000  0.45950000  1.0 -0.1017164548
C  C69  1  0.35770000  0.17630000  0.42701000  1.0 0.4233469161
C  C70  1  0.18230000  0.96720000  0.57538000  1.0 -0.0810534812
C  C71  1  0.28340000  0.87552000  0.60171000  1.0 -0.0092343339
C  C72  1  0.34540000  0.82870000  0.61524000  1.0 0.5284734944
C  C73  1  0.09710000  0.06662000  0.61432000  1.0 -0.0876727651
C  C74  1  0.16230000  0.08850000  0.64370000  1.0 -0.1757390683
C  C75  1  0.14610000  0.12200000  0.68740000  1.0 -0.0876727651
C  C76  1  0.06380000  0.13433000  0.70078000  1.0 -0.0092343339
C  C77  1  0.99790000  0.11290000  0.67120000  1.0 -0.0810534812
C  C78  1  0.01360000  0.07940000  0.62760000  1.0 -0.151340427
C  C79  1  0.04600000  0.17382000  0.74675000  1.0 0.595595775
C  C80  1  0.72020000  0.20270000  0.22147000  1.0 0.0899184995
C  C81  1  0.77700000  0.20100000  0.18000000  1.0 -0.1945454908
C  C82  1  0.88510000  0.20050000  0.08446000  1.0 -0.2012210061
C  C83  1  0.92930000  0.20250000  0.03704000  1.0 0.0811379462
C  C84  1  0.16910000  0.08590000  0.46820000  1.0 -0.067251719
C  C85  1  0.21970000  0.12240000  0.43910000  1.0 0.0012505239
C  C86  1  0.31960000  0.12550000  0.50880000  1.0 -0.0508594405
C  C87  1  0.26780000  0.09070000  0.54050000  1.0 -0.0587388082
C  C88  1  0.25700000  0.95220000  0.54160000  1.0 -0.0508594405
C  C89  1  0.30540000  0.90590000  0.55310000  1.0 -0.0587388082
C  C90  1  0.23250000  0.89840000  0.63820000  1.0 -0.0508594405
C  C91  1  0.18040000  0.94390000  0.62450000  1.0 -0.067251719
C  C92  1  0.16080000  0.11190000  0.48650000  1.0 -0.0508594405
C  C93  1  0.21340000  0.14660000  0.45700000  1.0 -0.0398410801
C  C94  1  0.33600000  0.09840000  0.49150000  1.0 -0.0398410801
C  C95  1  0.28180000  0.06340000  0.52130000  1.0 -0.0508594405
C  C96  1  0.20900000  0.93160000  0.53620000  1.0 -0.0810534812
C  C97  1  0.25910000  0.88600000  0.55010000  1.0 -0.0398410801
C  C98  1  0.25460000  0.91270000  0.64030000  1.0 -0.0587388082
C  C99  1  0.20400000  0.95850000  0.62680000  1.0 -0.0508594405
C  C100  1  0.69350000  0.92904000  0.98176000  1.0 -0.0508594405
C  C101  1  0.80040000  0.86027000  0.04050000  1.0 -0.1017164548
C  C102  1  0.85770000  0.82370000  0.07299000  1.0 0.4233469161
C  C103  1  0.68230000  0.03280000  0.92462000  1.0 -0.0810534812
C  C104  1  0.78340000  0.12448000  0.89829000  1.0 -0.0092343339
C  C105  1  0.84540000  0.17130000  0.88476000  1.0 0.5284734944
C  C106  1  0.59710000  0.93338000  0.88568000  1.0 -0.0876727651
C  C107  1  0.66230000  0.91150000  0.85630000  1.0 -0.1728726894
C  C108  1  0.64610000  0.87800000  0.81260000  1.0 -0.0876727651
C  C109  1  0.56380000  0.86567000  0.79922000  1.0 -0.0092343339
C  C110  1  0.49790000  0.88710000  0.82880000  1.0 -0.0810534812
C  C111  1  0.51360000  0.92060000  0.87240000  1.0 -0.151340427
C  C112  1  0.54600000  0.82618000  0.75325000  1.0 0.595595775
C  C113  1  0.22020000  0.79730000  0.27853000  1.0 0.0899184995
C  C114  1  0.27700000  0.79900000  0.32000000  1.0 -0.1945454908
C  C115  1  0.38510000  0.79950000  0.41554000  1.0 -0.2012210061
C  C116  1  0.42930000  0.79750000  0.46296000  1.0 0.0708285434
C  C117  1  0.66910000  0.91410000  0.03180000  1.0 -0.0587388082
C  C118  1  0.71970000  0.87760000  0.06090000  1.0 0.0012505239
C  C119  1  0.81960000  0.87450000  0.99120000  1.0 -0.0508594405
C  C120  1  0.76780000  0.90930000  0.95950000  1.0 -0.0587388082
C  C121  1  0.75700000  0.04780000  0.95840000  1.0 -0.0508594405
C  C122  1  0.80540000  0.09410000  0.94690000  1.0 -0.0587388082
C  C123  1  0.73250000  0.10160000  0.86180000  1.0 -0.0508594405
C  C124  1  0.68040000  0.05610000  0.87550000  1.0 -0.067251719
C  C125  1  0.66080000  0.88810000  0.01350000  1.0 -0.0508594405
C  C126  1  0.71340000  0.85340000  0.04300000  1.0 -0.0321906821
C  C127  1  0.83600000  0.90160000  0.00850000  1.0 -0.0321906821
C  C128  1  0.78180000  0.93660000  0.97870000  1.0 -0.0508594405
C  C129  1  0.70900000  0.06840000  0.96380000  1.0 -0.0810534812
C  C130  1  0.75910000  0.11400000  0.94990000  1.0 -0.0398410801
C  C131  1  0.75460000  0.08730000  0.85970000  1.0 -0.0587388082
C  C132  1  0.70400000  0.04150000  0.87320000  1.0 -0.0398410801
C  C133  1  0.19350000  0.42904000  0.51824000  1.0 -0.0587388082
C  C134  1  0.30040000  0.36027000  0.45950000  1.0 -0.1017164548
C  C135  1  0.35770000  0.32370000  0.42701000  1.0 0.4233469161
C  C136  1  0.18230000  0.53280000  0.57538000  1.0 -0.0810534812
C  C137  1  0.28340000  0.62448000  0.60171000  1.0 -0.0092343339
C  C138  1  0.34540000  0.67130000  0.61524000  1.0 0.5284734944
C  C139  1  0.09710000  0.43338000  0.61432000  1.0 -0.0876727651
C  C140  1  0.16230000  0.41150000  0.64370000  1.0 -0.1757390683
C  C141  1  0.14610000  0.37800000  0.68740000  1.0 -0.0876727651
C  C142  1  0.06380000  0.36567000  0.70078000  1.0 -0.0092343339
C  C143  1  0.99790000  0.38710000  0.67120000  1.0 -0.0810534812
C  C144  1  0.01360000  0.42060000  0.62760000  1.0 -0.151340427
C  C145  1  0.04600000  0.32618000  0.74675000  1.0 0.595595775
C  C146  1  0.72020000  0.29730000  0.22147000  1.0 0.0899184995
C  C147  1  0.77700000  0.29900000  0.18000000  1.0 -0.1945454908
C  C148  1  0.88510000  0.29950000  0.08446000  1.0 -0.2012210061
C  C149  1  0.92930000  0.29750000  0.03704000  1.0 0.0811379462
C  C150  1  0.16910000  0.41410000  0.46820000  1.0 -0.067251719
C  C151  1  0.21970000  0.37760000  0.43910000  1.0 0.0012505239
C  C152  1  0.31960000  0.37450000  0.50880000  1.0 -0.0508594405
C  C153  1  0.26780000  0.40930000  0.54050000  1.0 -0.0587388082
C  C154  1  0.25700000  0.54780000  0.54160000  1.0 -0.0508594405
C  C155  1  0.30540000  0.59410000  0.55310000  1.0 -0.0587388082
C  C156  1  0.23250000  0.60160000  0.63820000  1.0 -0.0508594405
C  C157  1  0.18040000  0.55610000  0.62450000  1.0 -0.067251719
C  C158  1  0.16080000  0.38810000  0.48650000  1.0 -0.0508594405
C  C159  1  0.21340000  0.35340000  0.45700000  1.0 -0.0398410801
C  C160  1  0.33600000  0.40160000  0.49150000  1.0 -0.0398410801
C  C161  1  0.28180000  0.43660000  0.52130000  1.0 -0.0508594405
C  C162  1  0.20900000  0.56840000  0.53620000  1.0 -0.0810534812
C  C163  1  0.25910000  0.61400000  0.55010000  1.0 -0.0398410801
C  C164  1  0.25460000  0.58730000  0.64030000  1.0 -0.0587388082
C  C165  1  0.20400000  0.54150000  0.62680000  1.0 -0.0508594405
C  C166  1  0.69350000  0.57096000  0.98176000  1.0 -0.0587388082
C  C167  1  0.80040000  0.63973000  0.04050000  1.0 -0.1017164548
C  C168  1  0.85770000  0.67630000  0.07299000  1.0 0.4233469161
C  C169  1  0.68230000  0.46720000  0.92462000  1.0 -0.0810534812
C  C170  1  0.78340000  0.37552000  0.89829000  1.0 -0.0092343339
C  C171  1  0.84540000  0.32870000  0.88476000  1.0 0.5284734944
C  C172  1  0.59710000  0.56662000  0.88568000  1.0 -0.0876727651
C  C173  1  0.66230000  0.58850000  0.85630000  1.0 -0.1728726894
C  C174  1  0.64610000  0.62200000  0.81260000  1.0 -0.0876727651
C  C175  1  0.56380000  0.63433000  0.79922000  1.0 -0.0092343339
C  C176  1  0.49790000  0.61290000  0.82880000  1.0 -0.0810534812
C  C177  1  0.51360000  0.57940000  0.87240000  1.0 -0.151340427
C  C178  1  0.54600000  0.67382000  0.75325000  1.0 0.595595775
C  C179  1  0.22020000  0.70270000  0.27853000  1.0 0.0899184995
C  C180  1  0.27700000  0.70100000  0.32000000  1.0 -0.1945454908
C  C181  1  0.38510000  0.70050000  0.41554000  1.0 -0.2012210061
C  C182  1  0.42930000  0.70250000  0.46296000  1.0 0.0708285434
C  C183  1  0.66910000  0.58590000  0.03180000  1.0 -0.0587388082
C  C184  1  0.71970000  0.62240000  0.06090000  1.0 0.0012505239
C  C185  1  0.81960000  0.62550000  0.99120000  1.0 -0.0508594405
C  C186  1  0.76780000  0.59070000  0.95950000  1.0 -0.0587388082
C  C187  1  0.75700000  0.45220000  0.95840000  1.0 -0.0508594405
C  C188  1  0.80540000  0.40590000  0.94690000  1.0 -0.0587388082
C  C189  1  0.73250000  0.39840000  0.86180000  1.0 -0.0508594405
C  C190  1  0.68040000  0.44390000  0.87550000  1.0 -0.067251719
C  C191  1  0.66080000  0.61190000  0.01350000  1.0 -0.0508594405
C  C192  1  0.71340000  0.64660000  0.04300000  1.0 -0.0321906821
C  C193  1  0.83600000  0.59840000  0.00850000  1.0 -0.0321906821
C  C194  1  0.78180000  0.56340000  0.97870000  1.0 -0.0508594405
C  C195  1  0.70900000  0.43160000  0.96380000  1.0 -0.0810534812
C  C196  1  0.75910000  0.38600000  0.94990000  1.0 -0.0398410801
C  C197  1  0.75460000  0.41270000  0.85970000  1.0 -0.0587388082
C  C198  1  0.70400000  0.45850000  0.87320000  1.0 -0.0398410801
C  C199  1  0.80650000  0.92904000  0.48176000  1.0 -0.0508594405
C  C200  1  0.69960000  0.86027000  0.54050000  1.0 -0.1017164548
C  C201  1  0.64230000  0.82370000  0.57299000  1.0 0.4233469161
C  C202  1  0.81770000  0.03280000  0.42462000  1.0 -0.0810534812
C  C203  1  0.71660000  0.12448000  0.39829000  1.0 -0.0092343339
C  C204  1  0.65460000  0.17130000  0.38476000  1.0 0.5284734944
C  C205  1  0.90290000  0.93338000  0.38568000  1.0 -0.0876727651
C  C206  1  0.83770000  0.91150000  0.35630000  1.0 -0.1757390683
C  C207  1  0.85390000  0.87800000  0.31260000  1.0 -0.0876727651
C  C208  1  0.93620000  0.86567000  0.29922000  1.0 -0.0092343339
C  C209  1  0.00210000  0.88710000  0.32880000  1.0 -0.0810534812
C  C210  1  0.98640000  0.92060000  0.37240000  1.0 -0.151340427
C  C211  1  0.95400000  0.82618000  0.25325000  1.0 0.595595775
C  C212  1  0.27980000  0.79730000  0.77853000  1.0 0.0899184995
C  C213  1  0.22300000  0.79900000  0.82000000  1.0 -0.1945454908
C  C214  1  0.11490000  0.79950000  0.91554000  1.0 -0.2012210061
C  C215  1  0.07070000  0.79750000  0.96296000  1.0 0.0811379462
C  C216  1  0.83090000  0.91410000  0.53180000  1.0 -0.0587388082
C  C217  1  0.78030000  0.87760000  0.56090000  1.0 0.0012505239
C  C218  1  0.68040000  0.87450000  0.49120000  1.0 -0.0508594405
C  C219  1  0.73220000  0.90930000  0.45950000  1.0 -0.0587388082
C  C220  1  0.74300000  0.04780000  0.45840000  1.0 -0.0398410801
C  C221  1  0.69460000  0.09410000  0.44690000  1.0 -0.0587388082
C  C222  1  0.76750000  0.10160000  0.36180000  1.0 -0.0508594405
C  C223  1  0.81960000  0.05610000  0.37550000  1.0 -0.067251719
C  C224  1  0.83920000  0.88810000  0.51350000  1.0 -0.0508594405
C  C225  1  0.78660000  0.85340000  0.54300000  1.0 -0.0321906821
C  C226  1  0.66400000  0.90160000  0.50850000  1.0 -0.0398410801
C  C227  1  0.71820000  0.93660000  0.47870000  1.0 -0.0508594405
C  C228  1  0.79100000  0.06840000  0.46380000  1.0 -0.0810534812
C  C229  1  0.74090000  0.11400000  0.44990000  1.0 -0.0398410801
C  C230  1  0.74540000  0.08730000  0.35970000  1.0 -0.0587388082
C  C231  1  0.79600000  0.04150000  0.37320000  1.0 -0.0398410801
C  C232  1  0.30650000  0.07096000  0.01824000  1.0 -0.0508594405
C  C233  1  0.19960000  0.13973000  0.95950000  1.0 -0.1017164548
C  C234  1  0.14230000  0.17630000  0.92701000  1.0 0.4233469161
C  C235  1  0.31770000  0.96720000  0.07538000  1.0 -0.067251719
C  C236  1  0.21660000  0.87552000  0.10171000  1.0 -0.0092343339
C  C237  1  0.15460000  0.82870000  0.11524000  1.0 0.5284734944
C  C238  1  0.40290000  0.06662000  0.11432000  1.0 -0.0876727651
C  C239  1  0.33770000  0.08850000  0.14370000  1.0 -0.1757390683
C  C240  1  0.35390000  0.12200000  0.18740000  1.0 -0.0876727651
C  C241  1  0.43620000  0.13433000  0.20078000  1.0 -0.0092343339
C  C242  1  0.50210000  0.11290000  0.17120000  1.0 -0.0810534812
C  C243  1  0.48640000  0.07940000  0.12760000  1.0 -0.151340427
C  C244  1  0.45400000  0.17382000  0.24675000  1.0 0.595595775
C  C245  1  0.77980000  0.20270000  0.72147000  1.0 0.0899184995
C  C246  1  0.72300000  0.20100000  0.68000000  1.0 -0.1945454908
C  C247  1  0.61490000  0.20050000  0.58446000  1.0 -0.2012210061
C  C248  1  0.57070000  0.20250000  0.53704000  1.0 0.0811379462
C  C249  1  0.33090000  0.08590000  0.96820000  1.0 -0.0587388082
C  C250  1  0.28030000  0.12240000  0.93910000  1.0 -0.0008704973
C  C251  1  0.18040000  0.12550000  0.00880000  1.0 -0.0508594405
C  C252  1  0.23220000  0.09070000  0.04050000  1.0 -0.0587388082
C  C253  1  0.24300000  0.95220000  0.04160000  1.0 -0.0508594405
C  C254  1  0.19460000  0.90590000  0.05310000  1.0 -0.0587388082
C  C255  1  0.26750000  0.89840000  0.13820000  1.0 -0.0508594405
C  C256  1  0.31960000  0.94390000  0.12450000  1.0 -0.067251719
C  C257  1  0.33920000  0.11190000  0.98650000  1.0 -0.0508594405
C  C258  1  0.28660000  0.14660000  0.95700000  1.0 -0.0321906821
C  C259  1  0.16400000  0.09840000  0.99150000  1.0 -0.0398410801
C  C260  1  0.21820000  0.06340000  0.02130000  1.0 -0.0508594405
C  C261  1  0.29100000  0.93160000  0.03620000  1.0 -0.0810534812
C  C262  1  0.24090000  0.88600000  0.05010000  1.0 -0.0398410801
C  C263  1  0.24540000  0.91270000  0.14030000  1.0 -0.0587388082
C  C264  1  0.29600000  0.95850000  0.12680000  1.0 -0.0508594405
C  C265  1  0.19410000  0.75000000  0.84260000  1.0 0.0899184995
C  C266  1  0.13950000  0.75000000  0.89080000  1.0 0.1165807898
C  C267  1  0.69410000  0.25000000  0.65740000  1.0 0.0899184995
C  C268  1  0.63950000  0.25000000  0.60920000  1.0 0.1165807898
C  C269  1  0.80590000  0.25000000  0.15740000  1.0 0.0899184995
C  C270  1  0.86050000  0.25000000  0.10920000  1.0 0.1165807898
C  C271  1  0.30590000  0.75000000  0.34260000  1.0 0.0899184995
C  C272  1  0.36050000  0.75000000  0.39080000  1.0 0.1165807898
N  N1  1  0.31020000  0.75000000  0.75780000  1.0 -0.217564108
N  N2  1  0.05120000  0.75000000  0.98750000  1.0 -0.2918961367
N  N3  1  0.81020000  0.25000000  0.74220000  1.0 -0.217564108
N  N4  1  0.55120000  0.25000000  0.51250000  1.0 -0.2918961367
N  N5  1  0.68980000  0.25000000  0.24220000  1.0 -0.217564108
N  N6  1  0.94880000  0.25000000  0.01250000  1.0 -0.2918961367
N  N7  1  0.18980000  0.75000000  0.25780000  1.0 -0.217564108
N  N8  1  0.44880000  0.75000000  0.48750000  1.0 -0.2918961367
O  O1  1  0.60970000  0.31035000  0.42112000  1.0 -0.5190819447
O  O2  1  0.65540000  0.31253000  0.33846000  1.0 -0.5133052042
O  O3  1  0.88860000  0.68916000  0.22793000  1.0 -0.5589487051
O  O4  1  0.03020000  0.68787000  0.24615000  1.0 -0.5589487051
O  O5  1  0.66740000  0.68400000  0.62240000  1.0 -0.2572603544
O  O6  1  0.58430000  0.70000000  0.55040000  1.0 -0.1077976868
O  O7  1  0.67220000  0.69890000  0.61130000  1.0 -0.217564108
O  O8  1  0.55970000  0.67800000  0.55720000  1.0 -0.1728726894
O  O9  1  0.10970000  0.68965000  0.07888000  1.0 -0.5190819447
O  O10  1  0.15540000  0.68747000  0.16154000  1.0 -0.5133052042
O  O11  1  0.38860000  0.31084000  0.27207000  1.0 -0.5589487051
O  O12  1  0.53020000  0.31213000  0.25385000  1.0 -0.5589487051
O  O13  1  0.16740000  0.31600000  0.87760000  1.0 -0.2572603544
O  O14  1  0.08430000  0.30000000  0.94960000  1.0 -0.1077976868
O  O15  1  0.17220000  0.30110000  0.88870000  1.0 -0.217564108
O  O16  1  0.05970000  0.32200000  0.94280000  1.0 -0.1757390683
O  O17  1  0.39030000  0.81035000  0.57888000  1.0 -0.5190819447
O  O18  1  0.34460000  0.81253000  0.66154000  1.0 -0.5133052042
O  O19  1  0.11140000  0.18916000  0.77207000  1.0 -0.5589487051
O  O20  1  0.96980000  0.18787000  0.75385000  1.0 -0.5589487051
O  O21  1  0.33260000  0.18400000  0.37760000  1.0 -0.2536346634
O  O22  1  0.41570000  0.20000000  0.44960000  1.0 -0.1077976868
O  O23  1  0.32780000  0.19890000  0.38870000  1.0 -0.217564108
O  O24  1  0.44030000  0.17800000  0.44280000  1.0 -0.1728726894
O  O25  1  0.89030000  0.18965000  0.92112000  1.0 -0.5190819447
O  O26  1  0.84460000  0.18747000  0.83846000  1.0 -0.5133052042
O  O27  1  0.61140000  0.81084000  0.72793000  1.0 -0.5589487051
O  O28  1  0.46980000  0.81213000  0.74615000  1.0 -0.5589487051
O  O29  1  0.83260000  0.81600000  0.12240000  1.0 -0.2572603544
O  O30  1  0.91570000  0.80000000  0.05040000  1.0 -0.1017164548
O  O31  1  0.82780000  0.80110000  0.11130000  1.0 -0.217564108
O  O32  1  0.94030000  0.82200000  0.05720000  1.0 -0.1757390683
O  O33  1  0.39030000  0.68965000  0.57888000  1.0 -0.5190819447
O  O34  1  0.34460000  0.68747000  0.66154000  1.0 -0.5133052042
O  O35  1  0.11140000  0.31084000  0.77207000  1.0 -0.5589487051
O  O36  1  0.96980000  0.31213000  0.75385000  1.0 -0.5589487051
O  O37  1  0.33260000  0.31600000  0.37760000  1.0 -0.2536346634
O  O38  1  0.41570000  0.30000000  0.44960000  1.0 -0.1077976868
O  O39  1  0.32780000  0.30110000  0.38870000  1.0 -0.217564108
O  O40  1  0.44030000  0.32200000  0.44280000  1.0 -0.1728726894
O  O41  1  0.89030000  0.31035000  0.92112000  1.0 -0.5190819447
O  O42  1  0.84460000  0.31253000  0.83846000  1.0 -0.5133052042
O  O43  1  0.61140000  0.68916000  0.72793000  1.0 -0.5589487051
O  O44  1  0.46980000  0.68787000  0.74615000  1.0 -0.5589487051
O  O45  1  0.83260000  0.68400000  0.12240000  1.0 -0.2572603544
O  O46  1  0.91570000  0.70000000  0.05040000  1.0 -0.1017164548
O  O47  1  0.82780000  0.69890000  0.11130000  1.0 -0.217564108
O  O48  1  0.94030000  0.67800000  0.05720000  1.0 -0.1757390683
O  O49  1  0.60970000  0.18965000  0.42112000  1.0 -0.5190819447
O  O50  1  0.65540000  0.18747000  0.33846000  1.0 -0.5133052042
O  O51  1  0.88860000  0.81084000  0.22793000  1.0 -0.5589487051
O  O52  1  0.03020000  0.81213000  0.24615000  1.0 -0.5589487051
O  O53  1  0.66740000  0.81600000  0.62240000  1.0 -0.2572603544
O  O54  1  0.58430000  0.80000000  0.55040000  1.0 -0.1077976868
O  O55  1  0.67220000  0.80110000  0.61130000  1.0 -0.217564108
O  O56  1  0.55970000  0.82200000  0.55720000  1.0 -0.1728726894
O  O57  1  0.10970000  0.81035000  0.07888000  1.0 -0.5190819447
O  O58  1  0.15540000  0.81253000  0.16154000  1.0 -0.5133052042
O  O59  1  0.38860000  0.18916000  0.27207000  1.0 -0.5589487051
O  O60  1  0.53020000  0.18787000  0.25385000  1.0 -0.5589487051
O  O61  1  0.16740000  0.18400000  0.87760000  1.0 -0.2572603544
O  O62  1  0.08430000  0.20000000  0.94960000  1.0 -0.1077976868
O  O63  1  0.17220000  0.19890000  0.88870000  1.0 -0.217564108
O  O64  1  0.05970000  0.17800000  0.94280000  1.0 -0.1757390683
F  F1  1  0.51070000  0.75000000  0.64826000  1.0 -0.6086662134
F  F2  1  0.01070000  0.25000000  0.85174000  1.0 -0.6086662134
F  F3  1  0.48930000  0.25000000  0.35174000  1.0 -0.6086662134
F  F4  1  0.98930000  0.75000000  0.14826000  1.0 -0.6086662134
