# DDEC6 charges by PACMAN v1.1 (https://github.com/mtap-research/PACMAN-charge/)
data_ABECOD_ASR_pacman
_symmetry_space_group_name_H-M   'P 1'
_cell_length_a   15.41340000
_cell_length_b   23.87610000
_cell_length_c   25.27610000
_cell_angle_alpha   90.00000000
_cell_angle_beta   90.00000000
_cell_angle_gamma   90.00000000
_symmetry_Int_Tables_number   1
_chemical_formula_structural   Co3Cu2Ag2P2H62C80N4O24F
_chemical_formula_sum   'Co12 Cu8 Ag8 P8 H248 C320 N16 O96 F4'
_cell_volume   9301.90507350
_cell_formula_units_Z   4
loop_
 _symmetry_equiv_pos_site_id
 _symmetry_equiv_pos_as_xyz
  1  'x, y, z'
loop_
 _atom_site_type_symbol
 _atom_site_label
 _atom_site_symmetry_multiplicity
 _atom_site_fract_x
 _atom_site_fract_y
 _atom_site_fract_z
 _atom_site_occupancy
 _atom_site_charge
Co  Co1  1  0.51695000  0.25000000  0.57223000  1.0 0.8188512464
Co  Co2  1  0.59232000  0.25000000  0.70214000  1.0 1.0498325219
Co  Co3  1  0.36696000  0.25000000  0.67556000  1.0 1.0214513828
Co  Co4  1  0.01695000  0.75000000  0.92777000  1.0 0.8188512464
Co  Co5  1  0.09232000  0.75000000  0.79786000  1.0 1.0498325219
Co  Co6  1  0.86696000  0.75000000  0.82444000  1.0 1.0214513828
Co  Co7  1  0.48305000  0.75000000  0.42777000  1.0 0.8188512464
Co  Co8  1  0.40768000  0.75000000  0.29786000  1.0 1.0498325219
Co  Co9  1  0.63304000  0.75000000  0.32444000  1.0 1.0214513828
Co  Co10  1  0.98305000  0.25000000  0.07223000  1.0 0.8188512464
Co  Co11  1  0.90768000  0.25000000  0.20214000  1.0 1.0498325219
Co  Co12  1  0.13304000  0.25000000  0.17556000  1.0 1.0214513828
Cu  Cu1  1  0.49160000  0.52530000  0.97570000  1.0 0.0705967591
Cu  Cu2  1  0.99160000  0.47470000  0.52430000  1.0 0.0705967591
Cu  Cu3  1  0.50840000  0.02530000  0.02430000  1.0 0.0705967591
Cu  Cu4  1  0.00840000  0.97470000  0.47570000  1.0 0.0705967591
Cu  Cu5  1  0.50840000  0.47470000  0.02430000  1.0 0.0705967591
Cu  Cu6  1  0.00840000  0.52530000  0.47570000  1.0 0.0705967591
Cu  Cu7  1  0.49160000  0.97470000  0.97570000  1.0 0.0705967591
Cu  Cu8  1  0.99160000  0.02530000  0.52430000  1.0 0.0705967591
Ag  Ag1  1  0.49932000  0.51712000  0.99009000  1.0 -0.028246087
Ag  Ag2  1  0.99932000  0.48288000  0.50991000  1.0 -0.028246087
Ag  Ag3  1  0.50068000  0.01712000  0.00991000  1.0 -0.028246087
Ag  Ag4  1  0.00068000  0.98288000  0.49009000  1.0 -0.028246087
Ag  Ag5  1  0.50068000  0.48288000  0.00991000  1.0 -0.028246087
Ag  Ag6  1  0.00068000  0.51712000  0.49009000  1.0 -0.028246087
Ag  Ag7  1  0.49932000  0.98288000  0.99009000  1.0 -0.028246087
Ag  Ag8  1  0.99932000  0.01712000  0.50991000  1.0 -0.028246087
P  P1  1  0.38729000  0.47429000  0.94964000  1.0 0.2476421566
P  P2  1  0.88729000  0.52571000  0.55036000  1.0 0.2476421566
P  P3  1  0.61271000  0.97429000  0.05036000  1.0 0.2476421566
P  P4  1  0.11271000  0.02571000  0.44964000  1.0 0.2476421566
P  P5  1  0.61271000  0.52571000  0.05036000  1.0 0.2476421566
P  P6  1  0.11271000  0.47429000  0.44964000  1.0 0.2476421566
P  P7  1  0.38729000  0.02571000  0.94964000  1.0 0.2476421566
P  P8  1  0.88729000  0.97429000  0.55036000  1.0 0.2476421566
H  H1  1  0.28359000  0.42103000  0.86999000  1.0 0.1097657005
H  H2  1  0.31130000  0.36260000  0.79708000  1.0 0.118543224
H  H3  1  0.56647000  0.38007000  0.82086000  1.0 0.118543224
H  H4  1  0.53955000  0.43736000  0.89519000  1.0 0.118543224
H  H5  1  0.70628000  0.33268000  0.76430000  1.0 0.118543224
H  H6  1  0.80309000  0.33440000  0.83299000  1.0 0.1338411363
H  H7  1  0.87724000  0.16561000  0.90092000  1.0 0.1409549196
H  H8  1  0.94758000  0.16765000  0.98025000  1.0 0.1002899084
H  H9  1  0.32071000  0.56801000  0.00088000  1.0 0.1097657005
H  H10  1  0.22807000  0.64279000  0.97740000  1.0 0.1002899084
H  H11  1  0.23633000  0.59021000  0.82721000  1.0 0.1097657005
H  H12  1  0.32719000  0.51442000  0.85245000  1.0 0.0916945016
H  H13  1  0.40111000  0.37510000  0.01152000  1.0 0.1002899084
H  H14  1  0.31251000  0.31858000  0.05893000  1.0 0.1097657005
H  H15  1  0.10776000  0.41498000  0.01749000  1.0 0.1097657005
H  H16  1  0.20048000  0.47203000  0.96947000  1.0 0.0916945016
H  H17  1  0.64367000  0.51815000  0.89349000  1.0 0.1002899084
H  H18  1  0.61952000  0.65735000  0.80893000  1.0 0.1409549196
H  H19  1  0.58211000  0.65902000  0.86797000  1.0 0.1338411363
H  H20  1  0.53174000  0.62480000  0.82302000  1.0 0.1409549196
H  H21  1  0.72625000  0.61166000  0.79552000  1.0 0.1561446068
H  H22  1  0.71898000  0.54492000  0.79932000  1.0 0.1338411363
H  H23  1  0.76930000  0.57916000  0.84428000  1.0 0.1409549196
H  H24  1  0.23777000  0.53117000  0.99252000  1.0 0.0916945016
H  H25  1  0.14951000  0.60661000  0.96922000  1.0 0.0916945016
H  H26  1  0.27244000  0.61685000  0.82743000  1.0 0.1097657005
H  H27  1  0.36577000  0.54388000  0.85291000  1.0 0.1097657005
H  H28  1  0.39375000  0.42139000  0.04620000  1.0 0.1002899084
H  H29  1  0.30557000  0.36441000  0.09639000  1.0 0.1002899084
H  H30  1  0.12196000  0.37014000  0.98251000  1.0 0.1097657005
H  H31  1  0.21177000  0.42720000  0.93274000  1.0 0.1002899084
H  H32  1  0.78359000  0.57897000  0.63001000  1.0 0.1097657005
H  H33  1  0.81130000  0.63740000  0.70292000  1.0 0.118543224
H  H34  1  0.06647000  0.61993000  0.67914000  1.0 0.118543224
H  H35  1  0.03955000  0.56264000  0.60481000  1.0 0.118543224
H  H36  1  0.20628000  0.66732000  0.73570000  1.0 0.118543224
H  H37  1  0.30309000  0.66560000  0.66701000  1.0 0.1338411363
H  H38  1  0.37724000  0.83439000  0.59908000  1.0 0.1409549196
H  H39  1  0.44758000  0.83235000  0.51975000  1.0 0.1002899084
H  H40  1  0.82071000  0.43199000  0.49912000  1.0 0.1097657005
H  H41  1  0.72807000  0.35721000  0.52260000  1.0 0.1002899084
H  H42  1  0.73633000  0.40979000  0.67279000  1.0 0.1097657005
H  H43  1  0.82719000  0.48558000  0.64755000  1.0 0.0916945016
H  H44  1  0.90111000  0.62490000  0.48848000  1.0 0.1002899084
H  H45  1  0.81251000  0.68142000  0.44107000  1.0 0.1097657005
H  H46  1  0.60776000  0.58502000  0.48251000  1.0 0.1097657005
H  H47  1  0.70048000  0.52797000  0.53053000  1.0 0.0916945016
H  H48  1  0.14367000  0.48185000  0.60651000  1.0 0.1002899084
H  H49  1  0.11952000  0.34265000  0.69107000  1.0 0.1409549196
H  H50  1  0.08211000  0.34098000  0.63203000  1.0 0.1338411363
H  H51  1  0.03174000  0.37520000  0.67698000  1.0 0.1409549196
H  H52  1  0.22625000  0.38834000  0.70448000  1.0 0.1561446068
H  H53  1  0.21898000  0.45508000  0.70068000  1.0 0.1338411363
H  H54  1  0.26930000  0.42084000  0.65572000  1.0 0.1409549196
H  H55  1  0.73777000  0.46883000  0.50748000  1.0 0.0916945016
H  H56  1  0.64951000  0.39339000  0.53078000  1.0 0.0916945016
H  H57  1  0.77244000  0.38315000  0.67257000  1.0 0.1097657005
H  H58  1  0.86577000  0.45612000  0.64709000  1.0 0.1002899084
H  H59  1  0.89375000  0.57861000  0.45380000  1.0 0.1002899084
H  H60  1  0.80557000  0.63559000  0.40361000  1.0 0.1002899084
H  H61  1  0.62196000  0.62986000  0.51749000  1.0 0.1097657005
H  H62  1  0.71177000  0.57280000  0.56726000  1.0 0.1002899084
H  H63  1  0.71641000  0.92103000  0.13001000  1.0 0.1097657005
H  H64  1  0.68870000  0.86260000  0.20292000  1.0 0.118543224
H  H65  1  0.43353000  0.88007000  0.17914000  1.0 0.118543224
H  H66  1  0.46045000  0.93736000  0.10481000  1.0 0.118543224
H  H67  1  0.29372000  0.83268000  0.23570000  1.0 0.118543224
H  H68  1  0.19691000  0.83440000  0.16701000  1.0 0.1338411363
H  H69  1  0.12276000  0.66561000  0.09908000  1.0 0.1409549196
H  H70  1  0.05242000  0.66765000  0.01975000  1.0 0.1002899084
H  H71  1  0.67929000  0.06801000  0.99912000  1.0 0.1097657005
H  H72  1  0.77193000  0.14279000  0.02260000  1.0 0.1002899084
H  H73  1  0.76367000  0.09021000  0.17279000  1.0 0.1097657005
H  H74  1  0.67281000  0.01442000  0.14755000  1.0 0.0916945016
H  H75  1  0.59889000  0.87510000  0.98848000  1.0 0.1002899084
H  H76  1  0.68749000  0.81858000  0.94107000  1.0 0.1097657005
H  H77  1  0.89224000  0.91498000  0.98251000  1.0 0.1097657005
H  H78  1  0.79952000  0.97203000  0.03053000  1.0 0.0916945016
H  H79  1  0.35633000  0.01815000  0.10651000  1.0 0.1002899084
H  H80  1  0.38048000  0.15735000  0.19107000  1.0 0.1409549196
H  H81  1  0.41789000  0.15902000  0.13203000  1.0 0.1338411363
H  H82  1  0.46826000  0.12480000  0.17698000  1.0 0.1409549196
H  H83  1  0.27375000  0.11166000  0.20448000  1.0 0.1561446068
H  H84  1  0.28102000  0.04492000  0.20068000  1.0 0.1409549196
H  H85  1  0.23070000  0.07916000  0.15572000  1.0 0.1409549196
H  H86  1  0.76223000  0.03117000  0.00748000  1.0 0.0916945016
H  H87  1  0.85049000  0.10661000  0.03078000  1.0 0.0916945016
H  H88  1  0.72756000  0.11685000  0.17257000  1.0 0.1097657005
H  H89  1  0.63423000  0.04388000  0.14709000  1.0 0.1002899084
H  H90  1  0.60625000  0.92139000  0.95380000  1.0 0.1002899084
H  H91  1  0.69443000  0.86441000  0.90361000  1.0 0.1002899084
H  H92  1  0.87804000  0.87014000  0.01749000  1.0 0.1097657005
H  H93  1  0.78823000  0.92720000  0.06726000  1.0 0.1002899084
H  H94  1  0.21641000  0.07897000  0.36999000  1.0 0.1097657005
H  H95  1  0.18870000  0.13740000  0.29708000  1.0 0.118543224
H  H96  1  0.93353000  0.11993000  0.32086000  1.0 0.118543224
H  H97  1  0.96045000  0.06264000  0.39519000  1.0 0.118543224
H  H98  1  0.79372000  0.16732000  0.26430000  1.0 0.118543224
H  H99  1  0.69691000  0.16560000  0.33299000  1.0 0.1338411363
H  H100  1  0.62276000  0.33439000  0.40092000  1.0 0.1409549196
H  H101  1  0.55242000  0.33235000  0.48025000  1.0 0.1002899084
H  H102  1  0.17929000  0.93199000  0.50088000  1.0 0.1097657005
H  H103  1  0.27193000  0.85721000  0.47740000  1.0 0.1002899084
H  H104  1  0.26367000  0.90979000  0.32721000  1.0 0.1097657005
H  H105  1  0.17281000  0.98558000  0.35245000  1.0 0.0916945016
H  H106  1  0.09889000  0.12490000  0.51152000  1.0 0.1002899084
H  H107  1  0.18749000  0.18142000  0.55893000  1.0 0.1097657005
H  H108  1  0.39224000  0.08502000  0.51749000  1.0 0.1097657005
H  H109  1  0.29952000  0.02797000  0.46947000  1.0 0.0916945016
H  H110  1  0.85633000  0.98185000  0.39349000  1.0 0.1002899084
H  H111  1  0.88048000  0.84265000  0.30893000  1.0 0.1409549196
H  H112  1  0.91789000  0.84098000  0.36797000  1.0 0.1338411363
H  H113  1  0.96826000  0.87520000  0.32302000  1.0 0.1409549196
H  H114  1  0.77375000  0.88834000  0.29552000  1.0 0.1561446068
H  H115  1  0.78102000  0.95508000  0.29932000  1.0 0.1409549196
H  H116  1  0.73070000  0.92084000  0.34428000  1.0 0.1409549196
H  H117  1  0.26223000  0.96883000  0.49252000  1.0 0.0916945016
H  H118  1  0.35049000  0.89339000  0.46922000  1.0 0.0916945016
H  H119  1  0.22756000  0.88315000  0.32743000  1.0 0.1097657005
H  H120  1  0.13423000  0.95612000  0.35291000  1.0 0.1097657005
H  H121  1  0.10625000  0.07861000  0.54620000  1.0 0.1002899084
H  H122  1  0.19443000  0.13559000  0.59639000  1.0 0.1002899084
H  H123  1  0.37804000  0.12986000  0.48251000  1.0 0.1097657005
H  H124  1  0.28823000  0.07280000  0.43274000  1.0 0.1002899084
H  H125  1  0.71641000  0.57897000  0.13001000  1.0 0.1097657005
H  H126  1  0.68870000  0.63740000  0.20292000  1.0 0.118543224
H  H127  1  0.43353000  0.61993000  0.17914000  1.0 0.118543224
H  H128  1  0.46045000  0.56264000  0.10481000  1.0 0.118543224
H  H129  1  0.29372000  0.66732000  0.23570000  1.0 0.118543224
H  H130  1  0.19691000  0.66560000  0.16701000  1.0 0.1338411363
H  H131  1  0.12276000  0.83439000  0.09908000  1.0 0.1409549196
H  H132  1  0.05242000  0.83235000  0.01975000  1.0 0.1002899084
H  H133  1  0.67929000  0.43199000  0.99912000  1.0 0.1097657005
H  H134  1  0.77193000  0.35721000  0.02260000  1.0 0.1002899084
H  H135  1  0.76367000  0.40979000  0.17279000  1.0 0.1097657005
H  H136  1  0.67281000  0.48558000  0.14755000  1.0 0.0916945016
H  H137  1  0.59889000  0.62490000  0.98848000  1.0 0.1002899084
H  H138  1  0.68749000  0.68142000  0.94107000  1.0 0.1097657005
H  H139  1  0.89224000  0.58502000  0.98251000  1.0 0.1097657005
H  H140  1  0.79952000  0.52797000  0.03053000  1.0 0.0916945016
H  H141  1  0.35633000  0.48185000  0.10651000  1.0 0.1002899084
H  H142  1  0.38048000  0.34265000  0.19107000  1.0 0.1409549196
H  H143  1  0.41789000  0.34098000  0.13203000  1.0 0.1338411363
H  H144  1  0.46826000  0.37520000  0.17698000  1.0 0.1409549196
H  H145  1  0.27375000  0.38834000  0.20448000  1.0 0.1561446068
H  H146  1  0.28102000  0.45508000  0.20068000  1.0 0.1409549196
H  H147  1  0.23070000  0.42084000  0.15572000  1.0 0.1409549196
H  H148  1  0.76223000  0.46883000  0.00748000  1.0 0.0916945016
H  H149  1  0.85049000  0.39339000  0.03078000  1.0 0.0916945016
H  H150  1  0.72756000  0.38315000  0.17257000  1.0 0.1097657005
H  H151  1  0.63423000  0.45612000  0.14709000  1.0 0.1002899084
H  H152  1  0.60625000  0.57861000  0.95380000  1.0 0.1002899084
H  H153  1  0.69443000  0.63559000  0.90361000  1.0 0.1002899084
H  H154  1  0.87804000  0.62986000  0.01749000  1.0 0.1097657005
H  H155  1  0.78823000  0.57280000  0.06726000  1.0 0.1002899084
H  H156  1  0.21641000  0.42103000  0.36999000  1.0 0.1097657005
H  H157  1  0.18870000  0.36260000  0.29708000  1.0 0.118543224
H  H158  1  0.93353000  0.38007000  0.32086000  1.0 0.118543224
H  H159  1  0.96045000  0.43736000  0.39519000  1.0 0.118543224
H  H160  1  0.79372000  0.33268000  0.26430000  1.0 0.118543224
H  H161  1  0.69691000  0.33440000  0.33299000  1.0 0.1338411363
H  H162  1  0.62276000  0.16561000  0.40092000  1.0 0.1409549196
H  H163  1  0.55242000  0.16765000  0.48025000  1.0 0.1002899084
H  H164  1  0.17929000  0.56801000  0.50088000  1.0 0.1097657005
H  H165  1  0.27193000  0.64279000  0.47740000  1.0 0.1002899084
H  H166  1  0.26367000  0.59021000  0.32721000  1.0 0.1097657005
H  H167  1  0.17281000  0.51442000  0.35245000  1.0 0.0916945016
H  H168  1  0.09889000  0.37510000  0.51152000  1.0 0.1002899084
H  H169  1  0.18749000  0.31858000  0.55893000  1.0 0.1097657005
H  H170  1  0.39224000  0.41498000  0.51749000  1.0 0.1097657005
H  H171  1  0.29952000  0.47203000  0.46947000  1.0 0.0916945016
H  H172  1  0.85633000  0.51815000  0.39349000  1.0 0.1002899084
H  H173  1  0.88048000  0.65735000  0.30893000  1.0 0.1409549196
H  H174  1  0.91789000  0.65902000  0.36797000  1.0 0.1338411363
H  H175  1  0.96826000  0.62480000  0.32302000  1.0 0.1409549196
H  H176  1  0.77375000  0.61166000  0.29552000  1.0 0.1561446068
H  H177  1  0.78102000  0.54492000  0.29932000  1.0 0.1409549196
H  H178  1  0.73070000  0.57916000  0.34428000  1.0 0.1409549196
H  H179  1  0.26223000  0.53117000  0.49252000  1.0 0.0916945016
H  H180  1  0.35049000  0.60661000  0.46922000  1.0 0.0916945016
H  H181  1  0.22756000  0.61685000  0.32743000  1.0 0.1097657005
H  H182  1  0.13423000  0.54388000  0.35291000  1.0 0.1097657005
H  H183  1  0.10625000  0.42139000  0.54620000  1.0 0.1002899084
H  H184  1  0.19443000  0.36441000  0.59639000  1.0 0.1002899084
H  H185  1  0.37804000  0.37014000  0.48251000  1.0 0.1097657005
H  H186  1  0.28823000  0.42720000  0.43274000  1.0 0.1002899084
H  H187  1  0.28359000  0.07897000  0.86999000  1.0 0.1097657005
H  H188  1  0.31130000  0.13740000  0.79708000  1.0 0.118543224
H  H189  1  0.56647000  0.11993000  0.82086000  1.0 0.118543224
H  H190  1  0.53955000  0.06264000  0.89519000  1.0 0.118543224
H  H191  1  0.70628000  0.16732000  0.76430000  1.0 0.118543224
H  H192  1  0.80309000  0.16560000  0.83299000  1.0 0.1338411363
H  H193  1  0.87724000  0.33439000  0.90092000  1.0 0.1409549196
H  H194  1  0.94758000  0.33235000  0.98025000  1.0 0.1002899084
H  H195  1  0.32071000  0.93199000  0.00088000  1.0 0.1097657005
H  H196  1  0.22807000  0.85721000  0.97740000  1.0 0.1002899084
H  H197  1  0.23633000  0.90979000  0.82721000  1.0 0.1097657005
H  H198  1  0.32719000  0.98558000  0.85245000  1.0 0.1002899084
H  H199  1  0.40111000  0.12490000  0.01152000  1.0 0.1002899084
H  H200  1  0.31251000  0.18142000  0.05893000  1.0 0.1097657005
H  H201  1  0.10776000  0.08502000  0.01749000  1.0 0.1097657005
H  H202  1  0.20048000  0.02797000  0.96947000  1.0 0.0916945016
H  H203  1  0.64367000  0.98185000  0.89349000  1.0 0.1002899084
H  H204  1  0.61952000  0.84265000  0.80893000  1.0 0.1409549196
H  H205  1  0.58211000  0.84098000  0.86797000  1.0 0.1338411363
H  H206  1  0.53174000  0.87520000  0.82302000  1.0 0.1409549196
H  H207  1  0.72625000  0.88834000  0.79552000  1.0 0.1561446068
H  H208  1  0.71898000  0.95508000  0.79932000  1.0 0.1409549196
H  H209  1  0.76930000  0.92084000  0.84428000  1.0 0.1409549196
H  H210  1  0.23777000  0.96883000  0.99252000  1.0 0.0916945016
H  H211  1  0.14951000  0.89339000  0.96922000  1.0 0.0916945016
H  H212  1  0.27244000  0.88315000  0.82743000  1.0 0.1097657005
H  H213  1  0.36577000  0.95612000  0.85291000  1.0 0.1097657005
H  H214  1  0.39375000  0.07861000  0.04620000  1.0 0.1002899084
H  H215  1  0.30557000  0.13559000  0.09639000  1.0 0.1002899084
H  H216  1  0.12196000  0.12986000  0.98251000  1.0 0.1097657005
H  H217  1  0.21177000  0.07280000  0.93274000  1.0 0.1002899084
H  H218  1  0.78359000  0.92103000  0.63001000  1.0 0.1097657005
H  H219  1  0.81130000  0.86260000  0.70292000  1.0 0.118543224
H  H220  1  0.06647000  0.88007000  0.67914000  1.0 0.118543224
H  H221  1  0.03955000  0.93736000  0.60481000  1.0 0.118543224
H  H222  1  0.20628000  0.83268000  0.73570000  1.0 0.118543224
H  H223  1  0.30309000  0.83440000  0.66701000  1.0 0.1338411363
H  H224  1  0.37724000  0.66561000  0.59908000  1.0 0.1409549196
H  H225  1  0.44758000  0.66765000  0.51975000  1.0 0.1002899084
H  H226  1  0.82071000  0.06801000  0.49912000  1.0 0.1097657005
H  H227  1  0.72807000  0.14279000  0.52260000  1.0 0.1002899084
H  H228  1  0.73633000  0.09021000  0.67279000  1.0 0.1097657005
H  H229  1  0.82719000  0.01442000  0.64755000  1.0 0.0916945016
H  H230  1  0.90111000  0.87510000  0.48848000  1.0 0.1002899084
H  H231  1  0.81251000  0.81858000  0.44107000  1.0 0.1097657005
H  H232  1  0.60776000  0.91498000  0.48251000  1.0 0.1097657005
H  H233  1  0.70048000  0.97203000  0.53053000  1.0 0.0916945016
H  H234  1  0.14367000  0.01815000  0.60651000  1.0 0.1002899084
H  H235  1  0.11952000  0.15735000  0.69107000  1.0 0.1409549196
H  H236  1  0.08211000  0.15902000  0.63203000  1.0 0.1338411363
H  H237  1  0.03174000  0.12480000  0.67698000  1.0 0.1409549196
H  H238  1  0.22625000  0.11166000  0.70448000  1.0 0.1561446068
H  H239  1  0.21898000  0.04492000  0.70068000  1.0 0.1338411363
H  H240  1  0.26930000  0.07916000  0.65572000  1.0 0.1409549196
H  H241  1  0.73777000  0.03117000  0.50748000  1.0 0.0916945016
H  H242  1  0.64951000  0.10661000  0.53078000  1.0 0.0916945016
H  H243  1  0.77244000  0.11685000  0.67257000  1.0 0.1097657005
H  H244  1  0.86577000  0.04388000  0.64709000  1.0 0.1002899084
H  H245  1  0.89375000  0.92139000  0.45380000  1.0 0.1002899084
H  H246  1  0.80557000  0.86441000  0.40361000  1.0 0.1002899084
H  H247  1  0.62196000  0.87014000  0.51749000  1.0 0.1097657005
H  H248  1  0.71177000  0.92720000  0.56726000  1.0 0.1002899084
C  C1  1  0.15670000  0.67110000  0.88480000  1.0 0.4611858641
C  C2  1  0.40780000  0.43330000  0.88950000  1.0 -0.1094730562
C  C3  1  0.34180000  0.41250000  0.86060000  1.0 -0.1602926591
C  C4  1  0.35850000  0.37790000  0.81640000  1.0 -0.0676581036
C  C5  1  0.44110000  0.36620000  0.80100000  1.0 -0.028246087
C  C6  1  0.50830000  0.38820000  0.83070000  1.0 -0.0676581036
C  C7  1  0.49270000  0.42230000  0.87530000  1.0 -0.1289706315
C  C8  1  0.45840000  0.32650000  0.75630000  1.0 0.5953722884
C  C9  1  0.31110000  0.42940000  0.98520000  1.0 -0.062201467
C  C10  1  0.20100000  0.36070000  0.04400000  1.0 -0.028246087
C  C11  1  0.14320000  0.32390000  0.07750000  1.0 0.4993124892
C  C12  1  0.72570000  0.29830000  0.77900000  1.0 0.1002899084
C  C13  1  0.78280000  0.29950000  0.81990000  1.0 -0.1942999224
C  C14  1  0.89040000  0.20060000  0.91690000  1.0 -0.1746363501
C  C15  1  0.93210000  0.20220000  0.96410000  1.0 0.0705967591
C  C16  1  0.33150000  0.53510000  0.92700000  1.0 -0.0025725543
C  C17  1  0.30280000  0.57250000  0.96520000  1.0 -0.079462011
C  C18  1  0.24780000  0.61680000  0.95160000  1.0 0.0095488339
C  C19  1  0.22380000  0.62110000  0.90020000  1.0 -0.0676581036
C  C20  1  0.25260000  0.58550000  0.86320000  1.0 -0.0195857454
C  C21  1  0.30780000  0.54050000  0.87820000  1.0 -0.0676581036
C  C22  1  0.34090000  0.38340000  0.01270000  1.0 -0.0497214349
C  C23  1  0.28880000  0.35000000  0.04090000  1.0 -0.0195857454
C  C24  1  0.16810000  0.40690000  0.01640000  1.0 -0.0195857454
C  C25  1  0.22320000  0.44050000  0.98780000  1.0 -0.0676581036
C  C26  1  0.61050000  0.55050000  0.88520000  1.0 0.1409549196
C  C27  1  0.58900000  0.63590000  0.83620000  1.0 -0.3424611809
C  C28  1  0.72010000  0.57980000  0.81970000  1.0 -0.3424611809
C  C29  1  0.30820000  0.52860000  0.92790000  1.0 0.0095488339
C  C30  1  0.24710000  0.54900000  0.95940000  1.0 -0.0497214349
C  C31  1  0.19530000  0.59540000  0.94640000  1.0 -0.028246087
C  C32  1  0.21290000  0.62690000  0.89670000  1.0 -0.088284716
C  C33  1  0.26870000  0.60250000  0.86240000  1.0 -0.0025725543
C  C34  1  0.32180000  0.55660000  0.87640000  1.0 -0.062201467
C  C35  1  0.33820000  0.41090000  0.03320000  1.0 -0.088284716
C  C36  1  0.28600000  0.37720000  0.06290000  1.0 -0.0119670951
C  C37  1  0.17720000  0.38020000  0.99620000  1.0 -0.0358506451
C  C38  1  0.23060000  0.41420000  0.96640000  1.0 -0.0497214349
C  C39  1  0.47100000  0.51100000  0.92700000  1.0 -0.2269585217
C  C40  1  0.65670000  0.32890000  0.61520000  1.0 0.4611858641
C  C41  1  0.90780000  0.56670000  0.61050000  1.0 -0.1094730562
C  C42  1  0.84180000  0.58750000  0.63940000  1.0 -0.1602926591
C  C43  1  0.85850000  0.62210000  0.68360000  1.0 -0.0676581036
C  C44  1  0.94110000  0.63380000  0.69900000  1.0 -0.028246087
C  C45  1  0.00830000  0.61180000  0.66930000  1.0 -0.0676581036
C  C46  1  0.99270000  0.57770000  0.62470000  1.0 -0.1289706315
C  C47  1  0.95840000  0.67350000  0.74370000  1.0 0.5953722884
C  C48  1  0.81110000  0.57060000  0.51480000  1.0 -0.062201467
C  C49  1  0.70100000  0.63930000  0.45600000  1.0 -0.028246087
C  C50  1  0.64320000  0.67610000  0.42250000  1.0 0.4993124892
C  C51  1  0.22570000  0.70170000  0.72100000  1.0 0.1002899084
C  C52  1  0.28280000  0.70050000  0.68010000  1.0 -0.1942999224
C  C53  1  0.39040000  0.79940000  0.58310000  1.0 -0.1786027747
C  C54  1  0.43210000  0.79780000  0.53590000  1.0 0.0705967591
C  C55  1  0.83150000  0.46490000  0.57300000  1.0 -0.0025725543
C  C56  1  0.80280000  0.42750000  0.53480000  1.0 -0.079462011
C  C57  1  0.74780000  0.38320000  0.54840000  1.0 0.0095488339
C  C58  1  0.72380000  0.37890000  0.59980000  1.0 -0.0676581036
C  C59  1  0.75260000  0.41450000  0.63680000  1.0 -0.0195857454
C  C60  1  0.80780000  0.45950000  0.62180000  1.0 -0.0676581036
C  C61  1  0.84090000  0.61660000  0.48730000  1.0 -0.0497214349
C  C62  1  0.78880000  0.65000000  0.45910000  1.0 -0.0195857454
C  C63  1  0.66810000  0.59310000  0.48360000  1.0 -0.0195857454
C  C64  1  0.72320000  0.55950000  0.51220000  1.0 -0.0676581036
C  C65  1  0.11050000  0.44950000  0.61480000  1.0 0.1409549196
C  C66  1  0.08900000  0.36410000  0.66380000  1.0 -0.3424611809
C  C67  1  0.22010000  0.42020000  0.68030000  1.0 -0.3424611809
C  C68  1  0.80820000  0.47140000  0.57210000  1.0 0.0095488339
C  C69  1  0.74710000  0.45100000  0.54060000  1.0 -0.0497214349
C  C70  1  0.69530000  0.40460000  0.55360000  1.0 -0.028246087
C  C71  1  0.71290000  0.37310000  0.60330000  1.0 -0.088284716
C  C72  1  0.76870000  0.39750000  0.63760000  1.0 -0.0025725543
C  C73  1  0.82180000  0.44340000  0.62360000  1.0 -0.062201467
C  C74  1  0.83820000  0.58910000  0.46680000  1.0 -0.088284716
C  C75  1  0.78600000  0.62280000  0.43710000  1.0 -0.0119670951
C  C76  1  0.67720000  0.61980000  0.50380000  1.0 -0.0358506451
C  C77  1  0.73060000  0.58580000  0.53360000  1.0 -0.0497214349
C  C78  1  0.97100000  0.48900000  0.57300000  1.0 -0.2269585217
C  C79  1  0.84330000  0.17110000  0.11520000  1.0 0.4611858641
C  C80  1  0.59220000  0.93330000  0.11050000  1.0 -0.1094730562
C  C81  1  0.65820000  0.91250000  0.13940000  1.0 -0.1602926591
C  C82  1  0.64150000  0.87790000  0.18360000  1.0 -0.0676581036
C  C83  1  0.55890000  0.86620000  0.19900000  1.0 -0.028246087
C  C84  1  0.49170000  0.88820000  0.16930000  1.0 -0.0676581036
C  C85  1  0.50730000  0.92230000  0.12470000  1.0 -0.1289706315
C  C86  1  0.54160000  0.82650000  0.24370000  1.0 0.5953722884
C  C87  1  0.68890000  0.92940000  0.01480000  1.0 -0.062201467
C  C88  1  0.79900000  0.86070000  0.95600000  1.0 -0.028246087
C  C89  1  0.85680000  0.82390000  0.92250000  1.0 0.4993124892
C  C90  1  0.27430000  0.79830000  0.22100000  1.0 0.1002899084
C  C91  1  0.21720000  0.79950000  0.18010000  1.0 -0.1942999224
C  C92  1  0.10960000  0.70060000  0.08310000  1.0 -0.1786027747
C  C93  1  0.06790000  0.70220000  0.03590000  1.0 0.0705967591
C  C94  1  0.66850000  0.03510000  0.07300000  1.0 -0.0025725543
C  C95  1  0.69720000  0.07250000  0.03480000  1.0 -0.079462011
C  C96  1  0.75220000  0.11680000  0.04840000  1.0 0.0095488339
C  C97  1  0.77620000  0.12110000  0.09980000  1.0 -0.0676581036
C  C98  1  0.74740000  0.08550000  0.13680000  1.0 -0.0195857454
C  C99  1  0.69220000  0.04050000  0.12180000  1.0 -0.0676581036
C  C100  1  0.65910000  0.88340000  0.98730000  1.0 -0.0497214349
C  C101  1  0.71120000  0.85000000  0.95910000  1.0 -0.0195857454
C  C102  1  0.83190000  0.90690000  0.98360000  1.0 -0.0195857454
C  C103  1  0.77680000  0.94050000  0.01220000  1.0 -0.0676581036
C  C104  1  0.38950000  0.05050000  0.11480000  1.0 0.1409549196
C  C105  1  0.41100000  0.13590000  0.16380000  1.0 -0.3424611809
C  C106  1  0.27990000  0.07980000  0.18030000  1.0 -0.3424611809
C  C107  1  0.69180000  0.02860000  0.07210000  1.0 0.0095488339
C  C108  1  0.75290000  0.04900000  0.04060000  1.0 -0.0497214349
C  C109  1  0.80470000  0.09540000  0.05360000  1.0 -0.028246087
C  C110  1  0.78710000  0.12690000  0.10330000  1.0 -0.088284716
C  C111  1  0.73130000  0.10250000  0.13760000  1.0 -0.0025725543
C  C112  1  0.67820000  0.05660000  0.12360000  1.0 -0.062201467
C  C113  1  0.66180000  0.91090000  0.96680000  1.0 -0.088284716
C  C114  1  0.71400000  0.87720000  0.93710000  1.0 -0.0119670951
C  C115  1  0.82280000  0.88020000  0.00380000  1.0 -0.0358506451
C  C116  1  0.76940000  0.91420000  0.03360000  1.0 -0.0497214349
C  C117  1  0.52900000  0.01100000  0.07300000  1.0 -0.2269585217
C  C118  1  0.34330000  0.82890000  0.38480000  1.0 0.4611858641
C  C119  1  0.09220000  0.06670000  0.38950000  1.0 -0.1094730562
C  C120  1  0.15820000  0.08750000  0.36060000  1.0 -0.1602926591
C  C121  1  0.14150000  0.12210000  0.31640000  1.0 -0.0676581036
C  C122  1  0.05890000  0.13380000  0.30100000  1.0 -0.028246087
C  C123  1  0.99170000  0.11180000  0.33070000  1.0 -0.0676581036
C  C124  1  0.00730000  0.07770000  0.37530000  1.0 -0.1289706315
C  C125  1  0.04160000  0.17350000  0.25630000  1.0 0.5953722884
C  C126  1  0.18890000  0.07060000  0.48520000  1.0 -0.062201467
C  C127  1  0.29900000  0.13930000  0.54400000  1.0 -0.028246087
C  C128  1  0.35680000  0.17610000  0.57750000  1.0 0.4993124892
C  C129  1  0.77430000  0.20170000  0.27900000  1.0 0.1002899084
C  C130  1  0.71720000  0.20050000  0.31990000  1.0 -0.1942999224
C  C131  1  0.60960000  0.29940000  0.41690000  1.0 -0.1746363501
C  C132  1  0.56790000  0.29780000  0.46410000  1.0 0.0705967591
C  C133  1  0.16850000  0.96490000  0.42700000  1.0 -0.0025725543
C  C134  1  0.19720000  0.92750000  0.46520000  1.0 -0.079462011
C  C135  1  0.25220000  0.88320000  0.45160000  1.0 0.0095488339
C  C136  1  0.27620000  0.87890000  0.40020000  1.0 -0.0676581036
C  C137  1  0.24740000  0.91450000  0.36320000  1.0 -0.0195857454
C  C138  1  0.19220000  0.95950000  0.37820000  1.0 -0.0676581036
C  C139  1  0.15910000  0.11660000  0.51270000  1.0 -0.0497214349
C  C140  1  0.21120000  0.15000000  0.54090000  1.0 -0.0195857454
C  C141  1  0.33190000  0.09310000  0.51640000  1.0 -0.0195857454
C  C142  1  0.27680000  0.05950000  0.48780000  1.0 -0.0676581036
C  C143  1  0.88950000  0.94950000  0.38520000  1.0 0.1409549196
C  C144  1  0.91100000  0.86410000  0.33620000  1.0 -0.3424611809
C  C145  1  0.77990000  0.92020000  0.31970000  1.0 -0.3424611809
C  C146  1  0.19180000  0.97140000  0.42790000  1.0 0.0095488339
C  C147  1  0.25290000  0.95100000  0.45940000  1.0 -0.0497214349
C  C148  1  0.30470000  0.90460000  0.44640000  1.0 -0.028246087
C  C149  1  0.28710000  0.87310000  0.39670000  1.0 -0.088284716
C  C150  1  0.23130000  0.89750000  0.36240000  1.0 -0.0025725543
C  C151  1  0.17820000  0.94340000  0.37640000  1.0 -0.062201467
C  C152  1  0.16180000  0.08910000  0.53320000  1.0 -0.088284716
C  C153  1  0.21400000  0.12280000  0.56290000  1.0 -0.0119670951
C  C154  1  0.32280000  0.11980000  0.49620000  1.0 -0.0358506451
C  C155  1  0.26940000  0.08580000  0.46640000  1.0 -0.0497214349
C  C156  1  0.02900000  0.98900000  0.42700000  1.0 -0.2269585217
C  C157  1  0.84330000  0.32890000  0.11520000  1.0 0.4611858641
C  C158  1  0.59220000  0.56670000  0.11050000  1.0 -0.1094730562
C  C159  1  0.65820000  0.58750000  0.13940000  1.0 -0.1602926591
C  C160  1  0.64150000  0.62210000  0.18360000  1.0 -0.0676581036
C  C161  1  0.55890000  0.63380000  0.19900000  1.0 -0.028246087
C  C162  1  0.49170000  0.61180000  0.16930000  1.0 -0.0676581036
C  C163  1  0.50730000  0.57770000  0.12470000  1.0 -0.1289706315
C  C164  1  0.54160000  0.67350000  0.24370000  1.0 0.5953722884
C  C165  1  0.68890000  0.57060000  0.01480000  1.0 -0.062201467
C  C166  1  0.79900000  0.63930000  0.95600000  1.0 -0.028246087
C  C167  1  0.85680000  0.67610000  0.92250000  1.0 0.4993124892
C  C168  1  0.27430000  0.70170000  0.22100000  1.0 0.1002899084
C  C169  1  0.21720000  0.70050000  0.18010000  1.0 -0.1942999224
C  C170  1  0.10960000  0.79940000  0.08310000  1.0 -0.1786027747
C  C171  1  0.06790000  0.79780000  0.03590000  1.0 0.0705967591
C  C172  1  0.66850000  0.46490000  0.07300000  1.0 -0.0025725543
C  C173  1  0.69720000  0.42750000  0.03480000  1.0 -0.079462011
C  C174  1  0.75220000  0.38320000  0.04840000  1.0 0.0095488339
C  C175  1  0.77620000  0.37890000  0.09980000  1.0 -0.0676581036
C  C176  1  0.74740000  0.41450000  0.13680000  1.0 -0.0195857454
C  C177  1  0.69220000  0.45950000  0.12180000  1.0 -0.0676581036
C  C178  1  0.65910000  0.61660000  0.98730000  1.0 -0.0497214349
C  C179  1  0.71120000  0.65000000  0.95910000  1.0 -0.0195857454
C  C180  1  0.83190000  0.59310000  0.98360000  1.0 -0.0195857454
C  C181  1  0.77680000  0.55950000  0.01220000  1.0 -0.0676581036
C  C182  1  0.38950000  0.44950000  0.11480000  1.0 0.1409549196
C  C183  1  0.41100000  0.36410000  0.16380000  1.0 -0.3424611809
C  C184  1  0.27990000  0.42020000  0.18030000  1.0 -0.3424611809
C  C185  1  0.69180000  0.47140000  0.07210000  1.0 0.0095488339
C  C186  1  0.75290000  0.45100000  0.04060000  1.0 -0.0497214349
C  C187  1  0.80470000  0.40460000  0.05360000  1.0 -0.028246087
C  C188  1  0.78710000  0.37310000  0.10330000  1.0 -0.088284716
C  C189  1  0.73130000  0.39750000  0.13760000  1.0 -0.0025725543
C  C190  1  0.67820000  0.44340000  0.12360000  1.0 -0.062201467
C  C191  1  0.66180000  0.58910000  0.96680000  1.0 -0.088284716
C  C192  1  0.71400000  0.62280000  0.93710000  1.0 -0.0119670951
C  C193  1  0.82280000  0.61980000  0.00380000  1.0 -0.0358506451
C  C194  1  0.76940000  0.58580000  0.03360000  1.0 -0.0497214349
C  C195  1  0.52900000  0.48900000  0.07300000  1.0 -0.2269585217
C  C196  1  0.34330000  0.67110000  0.38480000  1.0 0.4611858641
C  C197  1  0.09220000  0.43330000  0.38950000  1.0 -0.1094730562
C  C198  1  0.15820000  0.41250000  0.36060000  1.0 -0.1602926591
C  C199  1  0.14150000  0.37790000  0.31640000  1.0 -0.0676581036
C  C200  1  0.05890000  0.36620000  0.30100000  1.0 -0.028246087
C  C201  1  0.99170000  0.38820000  0.33070000  1.0 -0.0676581036
C  C202  1  0.00730000  0.42230000  0.37530000  1.0 -0.1289706315
C  C203  1  0.04160000  0.32650000  0.25630000  1.0 0.5953722884
C  C204  1  0.18890000  0.42940000  0.48520000  1.0 -0.062201467
C  C205  1  0.29900000  0.36070000  0.54400000  1.0 -0.028246087
C  C206  1  0.35680000  0.32390000  0.57750000  1.0 0.4993124892
C  C207  1  0.77430000  0.29830000  0.27900000  1.0 0.1002899084
C  C208  1  0.71720000  0.29950000  0.31990000  1.0 -0.1942999224
C  C209  1  0.60960000  0.20060000  0.41690000  1.0 -0.1746363501
C  C210  1  0.56790000  0.20220000  0.46410000  1.0 0.0705967591
C  C211  1  0.16850000  0.53510000  0.42700000  1.0 -0.0025725543
C  C212  1  0.19720000  0.57250000  0.46520000  1.0 -0.079462011
C  C213  1  0.25220000  0.61680000  0.45160000  1.0 0.0095488339
C  C214  1  0.27620000  0.62110000  0.40020000  1.0 -0.0676581036
C  C215  1  0.24740000  0.58550000  0.36320000  1.0 -0.0195857454
C  C216  1  0.19220000  0.54050000  0.37820000  1.0 -0.0676581036
C  C217  1  0.15910000  0.38340000  0.51270000  1.0 -0.0497214349
C  C218  1  0.21120000  0.35000000  0.54090000  1.0 -0.0195857454
C  C219  1  0.33190000  0.40690000  0.51640000  1.0 -0.0195857454
C  C220  1  0.27680000  0.44050000  0.48780000  1.0 -0.0676581036
C  C221  1  0.88950000  0.55050000  0.38520000  1.0 0.1409549196
C  C222  1  0.91100000  0.63590000  0.33620000  1.0 -0.3424611809
C  C223  1  0.77990000  0.57980000  0.31970000  1.0 -0.3424611809
C  C224  1  0.19180000  0.52860000  0.42790000  1.0 0.0095488339
C  C225  1  0.25290000  0.54900000  0.45940000  1.0 -0.0497214349
C  C226  1  0.30470000  0.59540000  0.44640000  1.0 -0.028246087
C  C227  1  0.28710000  0.62690000  0.39670000  1.0 -0.088284716
C  C228  1  0.23130000  0.60250000  0.36240000  1.0 -0.0025725543
C  C229  1  0.17820000  0.55660000  0.37640000  1.0 -0.062201467
C  C230  1  0.16180000  0.41090000  0.53320000  1.0 -0.088284716
C  C231  1  0.21400000  0.37720000  0.56290000  1.0 -0.0119670951
C  C232  1  0.32280000  0.38020000  0.49620000  1.0 -0.0358506451
C  C233  1  0.26940000  0.41420000  0.46640000  1.0 -0.0497214349
C  C234  1  0.02900000  0.51100000  0.42700000  1.0 -0.2269585217
C  C235  1  0.15670000  0.82890000  0.88480000  1.0 0.4611858641
C  C236  1  0.40780000  0.06670000  0.88950000  1.0 -0.1094730562
C  C237  1  0.34180000  0.08750000  0.86060000  1.0 -0.1602926591
C  C238  1  0.35850000  0.12210000  0.81640000  1.0 -0.0676581036
C  C239  1  0.44110000  0.13380000  0.80100000  1.0 -0.028246087
C  C240  1  0.50830000  0.11180000  0.83070000  1.0 -0.0676581036
C  C241  1  0.49270000  0.07770000  0.87530000  1.0 -0.1289706315
C  C242  1  0.45840000  0.17350000  0.75630000  1.0 0.5953722884
C  C243  1  0.31110000  0.07060000  0.98520000  1.0 -0.062201467
C  C244  1  0.20100000  0.13930000  0.04400000  1.0 -0.028246087
C  C245  1  0.14320000  0.17610000  0.07750000  1.0 0.4993124892
C  C246  1  0.72570000  0.20170000  0.77900000  1.0 0.1002899084
C  C247  1  0.78280000  0.20050000  0.81990000  1.0 -0.1942999224
C  C248  1  0.89040000  0.29940000  0.91690000  1.0 -0.1746363501
C  C249  1  0.93210000  0.29780000  0.96410000  1.0 0.0705967591
C  C250  1  0.33150000  0.96490000  0.92700000  1.0 -0.0025725543
C  C251  1  0.30280000  0.92750000  0.96520000  1.0 -0.079462011
C  C252  1  0.24780000  0.88320000  0.95160000  1.0 0.0095488339
C  C253  1  0.22380000  0.87890000  0.90020000  1.0 -0.0676581036
C  C254  1  0.25260000  0.91450000  0.86320000  1.0 -0.0195857454
C  C255  1  0.30780000  0.95950000  0.87820000  1.0 -0.0676581036
C  C256  1  0.34090000  0.11660000  0.01270000  1.0 -0.0497214349
C  C257  1  0.28880000  0.15000000  0.04090000  1.0 -0.0195857454
C  C258  1  0.16810000  0.09310000  0.01640000  1.0 -0.0195857454
C  C259  1  0.22320000  0.05950000  0.98780000  1.0 -0.0676581036
C  C260  1  0.61050000  0.94950000  0.88520000  1.0 0.1409549196
C  C261  1  0.58900000  0.86410000  0.83620000  1.0 -0.3424611809
C  C262  1  0.72010000  0.92020000  0.81970000  1.0 -0.3424611809
C  C263  1  0.30820000  0.97140000  0.92790000  1.0 0.0095488339
C  C264  1  0.24710000  0.95100000  0.95940000  1.0 -0.0497214349
C  C265  1  0.19530000  0.90460000  0.94640000  1.0 -0.028246087
C  C266  1  0.21290000  0.87310000  0.89670000  1.0 -0.088284716
C  C267  1  0.26870000  0.89750000  0.86240000  1.0 -0.0025725543
C  C268  1  0.32180000  0.94340000  0.87640000  1.0 -0.062201467
C  C269  1  0.33820000  0.08910000  0.03320000  1.0 -0.088284716
C  C270  1  0.28600000  0.12280000  0.06290000  1.0 -0.0119670951
C  C271  1  0.17720000  0.11980000  0.99620000  1.0 -0.0358506451
C  C272  1  0.23060000  0.08580000  0.96640000  1.0 -0.0497214349
C  C273  1  0.47100000  0.98900000  0.92700000  1.0 -0.2269585217
C  C274  1  0.65670000  0.17110000  0.61520000  1.0 0.4611858641
C  C275  1  0.90780000  0.93330000  0.61050000  1.0 -0.1094730562
C  C276  1  0.84180000  0.91250000  0.63940000  1.0 -0.1602926591
C  C277  1  0.85850000  0.87790000  0.68360000  1.0 -0.0676581036
C  C278  1  0.94110000  0.86620000  0.69900000  1.0 -0.028246087
C  C279  1  0.00830000  0.88820000  0.66930000  1.0 -0.0676581036
C  C280  1  0.99270000  0.92230000  0.62470000  1.0 -0.1289706315
C  C281  1  0.95840000  0.82650000  0.74370000  1.0 0.5953722884
C  C282  1  0.81110000  0.92940000  0.51480000  1.0 -0.062201467
C  C283  1  0.70100000  0.86070000  0.45600000  1.0 -0.028246087
C  C284  1  0.64320000  0.82390000  0.42250000  1.0 0.4993124892
C  C285  1  0.22570000  0.79830000  0.72100000  1.0 0.1002899084
C  C286  1  0.28280000  0.79950000  0.68010000  1.0 -0.1942999224
C  C287  1  0.39040000  0.70060000  0.58310000  1.0 -0.1786027747
C  C288  1  0.43210000  0.70220000  0.53590000  1.0 0.0705967591
C  C289  1  0.83150000  0.03510000  0.57300000  1.0 0.0002804442
C  C290  1  0.80280000  0.07250000  0.53480000  1.0 -0.079462011
C  C291  1  0.74780000  0.11680000  0.54840000  1.0 0.0095488339
C  C292  1  0.72380000  0.12110000  0.59980000  1.0 -0.0676581036
C  C293  1  0.75260000  0.08550000  0.63680000  1.0 -0.0195857454
C  C294  1  0.80780000  0.04050000  0.62180000  1.0 -0.0676581036
C  C295  1  0.84090000  0.88340000  0.48730000  1.0 -0.0497214349
C  C296  1  0.78880000  0.85000000  0.45910000  1.0 -0.0195857454
C  C297  1  0.66810000  0.90690000  0.48360000  1.0 -0.0195857454
C  C298  1  0.72320000  0.94050000  0.51220000  1.0 -0.0676581036
C  C299  1  0.11050000  0.05050000  0.61480000  1.0 0.1409549196
C  C300  1  0.08900000  0.13590000  0.66380000  1.0 -0.3424611809
C  C301  1  0.22010000  0.07980000  0.68030000  1.0 -0.3424611809
C  C302  1  0.80820000  0.02860000  0.57210000  1.0 0.0095488339
C  C303  1  0.74710000  0.04900000  0.54060000  1.0 -0.0497214349
C  C304  1  0.69530000  0.09540000  0.55360000  1.0 -0.028246087
C  C305  1  0.71290000  0.12690000  0.60330000  1.0 -0.079462011
C  C306  1  0.76870000  0.10250000  0.63760000  1.0 -0.0025725543
C  C307  1  0.82180000  0.05660000  0.62360000  1.0 -0.062201467
C  C308  1  0.83820000  0.91090000  0.46680000  1.0 -0.088284716
C  C309  1  0.78600000  0.87720000  0.43710000  1.0 -0.0119670951
C  C310  1  0.67720000  0.88020000  0.50380000  1.0 -0.0358506451
C  C311  1  0.73060000  0.91420000  0.53360000  1.0 -0.0497214349
C  C312  1  0.97100000  0.01100000  0.57300000  1.0 -0.2269585217
C  C313  1  0.81180000  0.25000000  0.84270000  1.0 0.1002899084
C  C314  1  0.86710000  0.25000000  0.89170000  1.0 0.118543224
C  C315  1  0.31180000  0.75000000  0.65730000  1.0 0.1002899084
C  C316  1  0.36710000  0.75000000  0.60830000  1.0 0.118543224
C  C317  1  0.18820000  0.75000000  0.15730000  1.0 0.1002899084
C  C318  1  0.13290000  0.75000000  0.10830000  1.0 0.118543224
C  C319  1  0.68820000  0.25000000  0.34270000  1.0 0.1002899084
C  C320  1  0.63290000  0.25000000  0.39170000  1.0 0.118543224
N  N1  1  0.63960000  0.58540000  0.84940000  1.0 -0.0195857454
N  N2  1  0.13960000  0.41460000  0.65060000  1.0 -0.0195857454
N  N3  1  0.36040000  0.08540000  0.15060000  1.0 -0.0195857454
N  N4  1  0.86040000  0.91460000  0.34940000  1.0 -0.0195857454
N  N5  1  0.36040000  0.41460000  0.15060000  1.0 -0.0195857454
N  N6  1  0.86040000  0.58540000  0.34940000  1.0 -0.0195857454
N  N7  1  0.63960000  0.91460000  0.84940000  1.0 -0.0195857454
N  N8  1  0.13960000  0.08540000  0.65060000  1.0 -0.0195857454
N  N9  1  0.69560000  0.25000000  0.75860000  1.0 -0.1786027747
N  N10  1  0.95270000  0.25000000  0.98950000  1.0 -0.3550936888
N  N11  1  0.19560000  0.75000000  0.74140000  1.0 -0.1786027747
N  N12  1  0.45270000  0.75000000  0.51050000  1.0 -0.3550936888
N  N13  1  0.30440000  0.75000000  0.24140000  1.0 -0.1786027747
N  N14  1  0.04730000  0.75000000  0.01050000  1.0 -0.3546361039
N  N15  1  0.80440000  0.25000000  0.25860000  1.0 -0.1786027747
N  N16  1  0.54730000  0.25000000  0.48950000  1.0 -0.3546361039
O  O1  1  0.39160000  0.31090000  0.73125000  1.0 -0.5558958064
O  O2  1  0.53520000  0.31220000  0.74836000  1.0 -0.5374782394
O  O3  1  0.09530000  0.68190000  0.91850000  1.0 -0.1289706315
O  O4  1  0.16500000  0.69060000  0.83890000  1.0 -0.4757355108
O  O5  1  0.54130000  0.55850000  0.90860000  1.0 -0.2491804148
O  O6  1  0.06270000  0.32350000  0.06060000  1.0 -0.2269585217
O  O7  1  0.17000000  0.30250000  0.11760000  1.0 -0.3955019723
O  O8  1  0.43310000  0.60490000  0.00640000  1.0 -0.2491804148
O  O9  1  0.12540000  0.69700000  0.92220000  1.0 -0.1199238944
O  O10  1  0.15100000  0.68170000  0.83610000  1.0 -0.4757355108
O  O11  1  0.08800000  0.29740000  0.05290000  1.0 -0.1602926591
O  O12  1  0.17100000  0.31700000  0.12220000  1.0 -0.4057638171
O  O13  1  0.89160000  0.68910000  0.76875000  1.0 -0.5558958064
O  O14  1  0.03520000  0.68780000  0.75164000  1.0 -0.5374782394
O  O15  1  0.59530000  0.31810000  0.58150000  1.0 -0.1289706315
O  O16  1  0.66500000  0.30940000  0.66110000  1.0 -0.4757355108
O  O17  1  0.04130000  0.44150000  0.59140000  1.0 -0.2491804148
O  O18  1  0.56270000  0.67650000  0.43940000  1.0 -0.2269585217
O  O19  1  0.67000000  0.69750000  0.38240000  1.0 -0.3955019723
O  O20  1  0.93310000  0.39510000  0.49360000  1.0 -0.2491804148
O  O21  1  0.62540000  0.30300000  0.57780000  1.0 -0.1199238944
O  O22  1  0.65100000  0.31830000  0.66390000  1.0 -0.4757355108
O  O23  1  0.58800000  0.70260000  0.44710000  1.0 -0.1602926591
O  O24  1  0.67100000  0.68300000  0.37780000  1.0 -0.4057638171
O  O25  1  0.60840000  0.81090000  0.26875000  1.0 -0.5558958064
O  O26  1  0.46480000  0.81220000  0.25164000  1.0 -0.5374782394
O  O27  1  0.90470000  0.18190000  0.08150000  1.0 -0.1289706315
O  O28  1  0.83500000  0.19060000  0.16110000  1.0 -0.4757355108
O  O29  1  0.45870000  0.05850000  0.09140000  1.0 -0.2491804148
O  O30  1  0.93730000  0.82350000  0.93940000  1.0 -0.2269585217
O  O31  1  0.83000000  0.80250000  0.88240000  1.0 -0.3955019723
O  O32  1  0.56690000  0.10490000  0.99360000  1.0 -0.2491804148
O  O33  1  0.87460000  0.19700000  0.07780000  1.0 -0.1199238944
O  O34  1  0.84900000  0.18170000  0.16390000  1.0 -0.4757355108
O  O35  1  0.91200000  0.79740000  0.94710000  1.0 -0.1602926591
O  O36  1  0.82900000  0.81700000  0.87780000  1.0 -0.4057638171
O  O37  1  0.10840000  0.18910000  0.23125000  1.0 -0.5558958064
O  O38  1  0.96480000  0.18780000  0.24836000  1.0 -0.5374782394
O  O39  1  0.40470000  0.81810000  0.41850000  1.0 -0.1289706315
O  O40  1  0.33500000  0.80940000  0.33890000  1.0 -0.4757355108
O  O41  1  0.95870000  0.94150000  0.40860000  1.0 -0.2491804148
O  O42  1  0.43730000  0.17650000  0.56060000  1.0 -0.2269585217
O  O43  1  0.33000000  0.19750000  0.61760000  1.0 -0.3955019723
O  O44  1  0.06690000  0.89510000  0.50640000  1.0 -0.2491804148
O  O45  1  0.37460000  0.80300000  0.42220000  1.0 -0.1199238944
O  O46  1  0.34900000  0.81830000  0.33610000  1.0 -0.4757355108
O  O47  1  0.41200000  0.20260000  0.55290000  1.0 -0.1602926591
O  O48  1  0.32900000  0.18300000  0.62220000  1.0 -0.4057638171
O  O49  1  0.60840000  0.68910000  0.26875000  1.0 -0.5558958064
O  O50  1  0.46480000  0.68780000  0.25164000  1.0 -0.5374782394
O  O51  1  0.90470000  0.31810000  0.08150000  1.0 -0.1289706315
O  O52  1  0.83500000  0.30940000  0.16110000  1.0 -0.4757355108
O  O53  1  0.45870000  0.44150000  0.09140000  1.0 -0.2491804148
O  O54  1  0.93730000  0.67650000  0.93940000  1.0 -0.2269585217
O  O55  1  0.83000000  0.69750000  0.88240000  1.0 -0.3955019723
O  O56  1  0.56690000  0.39510000  0.99360000  1.0 -0.2491804148
O  O57  1  0.87460000  0.30300000  0.07780000  1.0 -0.1199238944
O  O58  1  0.84900000  0.31830000  0.16390000  1.0 -0.4757355108
O  O59  1  0.91200000  0.70260000  0.94710000  1.0 -0.1602926591
O  O60  1  0.82900000  0.68300000  0.87780000  1.0 -0.4057638171
O  O61  1  0.10840000  0.31090000  0.23125000  1.0 -0.5558958064
O  O62  1  0.96480000  0.31220000  0.24836000  1.0 -0.5374782394
O  O63  1  0.40470000  0.68190000  0.41850000  1.0 -0.1289706315
O  O64  1  0.33500000  0.69060000  0.33890000  1.0 -0.4757355108
O  O65  1  0.95870000  0.55850000  0.40860000  1.0 -0.2491804148
O  O66  1  0.43730000  0.32350000  0.56060000  1.0 -0.2269585217
O  O67  1  0.33000000  0.30250000  0.61760000  1.0 -0.3955019723
O  O68  1  0.06690000  0.60490000  0.50640000  1.0 -0.2491804148
O  O69  1  0.37460000  0.69700000  0.42220000  1.0 -0.1199238944
O  O70  1  0.34900000  0.68170000  0.33610000  1.0 -0.4757355108
O  O71  1  0.41200000  0.29740000  0.55290000  1.0 -0.1602926591
O  O72  1  0.32900000  0.31700000  0.62220000  1.0 -0.4057638171
O  O73  1  0.39160000  0.18910000  0.73125000  1.0 -0.5558958064
O  O74  1  0.53520000  0.18780000  0.74836000  1.0 -0.5374782394
O  O75  1  0.09530000  0.81810000  0.91850000  1.0 -0.1289706315
O  O76  1  0.16500000  0.80940000  0.83890000  1.0 -0.4757355108
O  O77  1  0.54130000  0.94150000  0.90860000  1.0 -0.2491804148
O  O78  1  0.06270000  0.17650000  0.06060000  1.0 -0.2269585217
O  O79  1  0.17000000  0.19750000  0.11760000  1.0 -0.3955019723
O  O80  1  0.43310000  0.89510000  0.00640000  1.0 -0.2491804148
O  O81  1  0.12540000  0.80300000  0.92220000  1.0 -0.1199238944
O  O82  1  0.15100000  0.81830000  0.83610000  1.0 -0.4757355108
O  O83  1  0.08800000  0.20260000  0.05290000  1.0 -0.1602926591
O  O84  1  0.17100000  0.18300000  0.12220000  1.0 -0.4057638171
O  O85  1  0.89160000  0.81090000  0.76875000  1.0 -0.5558958064
O  O86  1  0.03520000  0.81220000  0.75164000  1.0 -0.5374782394
O  O87  1  0.59530000  0.18190000  0.58150000  1.0 -0.1289706315
O  O88  1  0.66500000  0.19060000  0.66110000  1.0 -0.4757355108
O  O89  1  0.04130000  0.05850000  0.59140000  1.0 -0.2491804148
O  O90  1  0.56270000  0.82350000  0.43940000  1.0 -0.2269585217
O  O91  1  0.67000000  0.80250000  0.38240000  1.0 -0.3955019723
O  O92  1  0.93310000  0.10490000  0.49360000  1.0 -0.2491804148
O  O93  1  0.62540000  0.19700000  0.57780000  1.0 -0.1199238944
O  O94  1  0.65100000  0.18170000  0.66390000  1.0 -0.4757355108
O  O95  1  0.58800000  0.79740000  0.44710000  1.0 -0.1602926591
O  O96  1  0.67100000  0.81700000  0.37780000  1.0 -0.4057638171
F  F1  1  0.49090000  0.25000000  0.65021000  1.0 -0.5266025971
F  F2  1  0.99090000  0.75000000  0.84979000  1.0 -0.5266025971
F  F3  1  0.50910000  0.75000000  0.34979000  1.0 -0.5266025971
F  F4  1  0.00910000  0.25000000  0.15021000  1.0 -0.5266025971
