# DDEC6 charges by PACMAN v1.1 (https://github.com/mtap-research/PACMAN-charge/)
data_ABECUJ_ASR_pacman
_symmetry_space_group_name_H-M   'P 1'
_cell_length_a   15.34610000
_cell_length_b   24.06470000
_cell_length_c   25.17230000
_cell_angle_alpha   90.00000000
_cell_angle_beta   90.00000000
_cell_angle_gamma   90.00000000
_symmetry_Int_Tables_number   1
_chemical_formula_structural   Co3Ag2P2H56AuC76N2O24F
_chemical_formula_sum   'Co12 Ag8 P8 H224 Au4 C304 N8 O96 F4'
_cell_volume   9296.11258488
_cell_formula_units_Z   4
loop_
 _symmetry_equiv_pos_site_id
 _symmetry_equiv_pos_as_xyz
  1  'x, y, z'
loop_
 _atom_site_type_symbol
 _atom_site_label
 _atom_site_symmetry_multiplicity
 _atom_site_fract_x
 _atom_site_fract_y
 _atom_site_fract_z
 _atom_site_occupancy
 _atom_site_charge
Co  Co1  1  0.59189000  0.25000000  0.29569000  1.0 0.9037737269
Co  Co2  1  0.51554000  0.25000000  0.42577000  1.0 0.8106227834
Co  Co3  1  0.36596000  0.25000000  0.32258000  1.0 0.8636984844
Co  Co4  1  0.09189000  0.75000000  0.20431000  1.0 0.9037737269
Co  Co5  1  0.01554000  0.75000000  0.07423000  1.0 0.8106227834
Co  Co6  1  0.86596000  0.75000000  0.17742000  1.0 0.865260901
Co  Co7  1  0.40811000  0.75000000  0.70431000  1.0 0.9037737269
Co  Co8  1  0.48446000  0.75000000  0.57423000  1.0 0.8106227834
Co  Co9  1  0.63404000  0.75000000  0.67742000  1.0 0.8636984844
Co  Co10  1  0.90811000  0.25000000  0.79569000  1.0 0.9037737269
Co  Co11  1  0.98446000  0.25000000  0.92577000  1.0 0.8106227834
Co  Co12  1  0.13404000  0.25000000  0.82258000  1.0 0.8636984844
Ag  Ag1  1  0.99650000  0.51630000  0.51080000  1.0 0.0183329294
Ag  Ag2  1  0.49650000  0.48370000  0.98920000  1.0 0.0183329294
Ag  Ag3  1  0.00350000  0.01630000  0.48920000  1.0 0.0183329294
Ag  Ag4  1  0.50350000  0.98370000  0.01080000  1.0 0.0183329294
Ag  Ag5  1  0.00350000  0.48370000  0.48920000  1.0 0.0183329294
Ag  Ag6  1  0.50350000  0.51630000  0.01080000  1.0 0.0183329294
Ag  Ag7  1  0.99650000  0.98370000  0.51080000  1.0 0.0183329294
Ag  Ag8  1  0.49650000  0.01630000  0.98920000  1.0 0.0183329294
P  P1  1  0.11879000  0.47459000  0.55078000  1.0 0.0791063667
P  P2  1  0.61879000  0.52541000  0.94922000  1.0 0.0791063667
P  P3  1  0.88121000  0.97459000  0.44922000  1.0 0.0791063667
P  P4  1  0.38121000  0.02541000  0.05078000  1.0 0.0791063667
P  P5  1  0.88121000  0.52541000  0.44922000  1.0 0.0791063667
P  P6  1  0.38121000  0.47459000  0.05078000  1.0 0.0791063667
P  P7  1  0.11879000  0.02541000  0.55078000  1.0 0.0791063667
P  P8  1  0.61879000  0.97459000  0.94922000  1.0 0.0791063667
H  H1  1  0.09689000  0.39730000  0.46797000  1.0 0.0791063667
H  H2  1  0.18705000  0.34007000  0.41710000  1.0 0.1009025091
H  H3  1  0.39814000  0.39984000  0.49431000  1.0 0.090598727
H  H4  1  0.30759000  0.46080000  0.54189000  1.0 0.090598727
H  H5  1  0.96453000  0.43876000  0.60432000  1.0 0.090598727
H  H6  1  0.93556000  0.38419000  0.67936000  1.0 0.1009025091
H  H7  1  0.19190000  0.35436000  0.69662000  1.0 0.090598727
H  H8  1  0.22221000  0.41189000  0.62328000  1.0 0.0614355039
H  H9  1  0.16471000  0.52478000  0.65204000  1.0 0.0791063667
H  H10  1  0.24942000  0.60197000  0.67678000  1.0 0.1009025091
H  H11  1  0.29119000  0.63619000  0.52199000  1.0 0.0791063667
H  H12  1  0.20857000  0.55988000  0.49829000  1.0 0.0682260099
H  H13  1  0.70715000  0.33135000  0.23443000  1.0 0.108286171
H  H14  1  0.80264000  0.33373000  0.16445000  1.0 0.121296214
H  H15  1  0.88295000  0.33399000  0.09860000  1.0 0.1269678194
H  H16  1  0.95492000  0.33094000  0.01762000  1.0 0.090598727
H  H17  1  0.13040000  0.44520000  0.44347000  1.0 0.0682260099
H  H18  1  0.21907000  0.38907000  0.39161000  1.0 0.1009025091
H  H19  1  0.34783000  0.34554000  0.52207000  1.0 0.090598727
H  H20  1  0.26372000  0.40704000  0.57174000  1.0 0.090598727
H  H21  1  0.35642000  0.60383000  0.53566000  1.0 0.0791063667
H  H22  1  0.27202000  0.52651000  0.51259000  1.0 0.0682260099
H  H23  1  0.11900000  0.55023000  0.64031000  1.0 0.0791063667
H  H24  1  0.21273000  0.62129000  0.66831000  1.0 0.108286171
H  H25  1  0.17978000  0.38662000  0.71940000  1.0 0.090598727
H  H26  1  0.21011000  0.44675000  0.64825000  1.0 0.0614355039
H  H27  1  0.97141000  0.41600000  0.58938000  1.0 0.090598727
H  H28  1  0.94359000  0.35660000  0.66024000  1.0 0.1009025091
H  H29  1  0.59689000  0.60270000  0.03203000  1.0 0.0791063667
H  H30  1  0.68705000  0.65993000  0.08290000  1.0 0.1009025091
H  H31  1  0.89814000  0.60016000  0.00569000  1.0 0.090598727
H  H32  1  0.80759000  0.53920000  0.95811000  1.0 0.090598727
H  H33  1  0.46453000  0.56124000  0.89568000  1.0 0.090598727
H  H34  1  0.43556000  0.61581000  0.82064000  1.0 0.1009025091
H  H35  1  0.69190000  0.64564000  0.80338000  1.0 0.090598727
H  H36  1  0.72221000  0.58811000  0.87672000  1.0 0.0614355039
H  H37  1  0.66471000  0.47522000  0.84796000  1.0 0.0791063667
H  H38  1  0.74942000  0.39803000  0.82322000  1.0 0.1009025091
H  H39  1  0.79119000  0.36381000  0.97801000  1.0 0.0791063667
H  H40  1  0.70857000  0.44012000  0.00171000  1.0 0.0682260099
H  H41  1  0.20715000  0.66865000  0.26557000  1.0 0.108286171
H  H42  1  0.30264000  0.66627000  0.33555000  1.0 0.121296214
H  H43  1  0.38295000  0.66601000  0.40140000  1.0 0.1269678194
H  H44  1  0.45492000  0.66906000  0.48238000  1.0 0.090598727
H  H45  1  0.63040000  0.55480000  0.05653000  1.0 0.0682260099
H  H46  1  0.71907000  0.61093000  0.10839000  1.0 0.1009025091
H  H47  1  0.84783000  0.65446000  0.97793000  1.0 0.090598727
H  H48  1  0.76372000  0.59296000  0.92826000  1.0 0.090598727
H  H49  1  0.85642000  0.39617000  0.96434000  1.0 0.0791063667
H  H50  1  0.77202000  0.47349000  0.98741000  1.0 0.0682260099
H  H51  1  0.61900000  0.44977000  0.85969000  1.0 0.0791063667
H  H52  1  0.71273000  0.37871000  0.83169000  1.0 0.108286171
H  H53  1  0.67978000  0.61338000  0.78060000  1.0 0.090598727
H  H54  1  0.71011000  0.55325000  0.85175000  1.0 0.0614355039
H  H55  1  0.47141000  0.58400000  0.91062000  1.0 0.090598727
H  H56  1  0.44359000  0.64340000  0.83976000  1.0 0.1009025091
H  H57  1  0.90311000  0.89730000  0.53203000  1.0 0.0791063667
H  H58  1  0.81295000  0.84007000  0.58290000  1.0 0.1009025091
H  H59  1  0.60186000  0.89984000  0.50569000  1.0 0.090598727
H  H60  1  0.69241000  0.96080000  0.45811000  1.0 0.090598727
H  H61  1  0.03547000  0.93876000  0.39568000  1.0 0.090598727
H  H62  1  0.06444000  0.88419000  0.32064000  1.0 0.1009025091
H  H63  1  0.80810000  0.85436000  0.30338000  1.0 0.090598727
H  H64  1  0.77779000  0.91189000  0.37672000  1.0 0.0614355039
H  H65  1  0.83529000  0.02478000  0.34796000  1.0 0.0791063667
H  H66  1  0.75058000  0.10197000  0.32322000  1.0 0.1009025091
H  H67  1  0.70881000  0.13619000  0.47801000  1.0 0.0791063667
H  H68  1  0.79143000  0.05988000  0.50171000  1.0 0.0682260099
H  H69  1  0.29285000  0.83135000  0.76557000  1.0 0.108286171
H  H70  1  0.19736000  0.83373000  0.83555000  1.0 0.121296214
H  H71  1  0.11705000  0.83399000  0.90140000  1.0 0.1269678194
H  H72  1  0.04508000  0.83094000  0.98238000  1.0 0.090598727
H  H73  1  0.86960000  0.94520000  0.55653000  1.0 0.0682260099
H  H74  1  0.78093000  0.88907000  0.60839000  1.0 0.1009025091
H  H75  1  0.65217000  0.84554000  0.47793000  1.0 0.090598727
H  H76  1  0.73628000  0.90704000  0.42826000  1.0 0.090598727
H  H77  1  0.64358000  0.10383000  0.46434000  1.0 0.0791063667
H  H78  1  0.72798000  0.02651000  0.48741000  1.0 0.0682260099
H  H79  1  0.88100000  0.05023000  0.35969000  1.0 0.0791063667
H  H80  1  0.78727000  0.12129000  0.33169000  1.0 0.108286171
H  H81  1  0.82022000  0.88662000  0.28060000  1.0 0.090598727
H  H82  1  0.78989000  0.94675000  0.35175000  1.0 0.0614355039
H  H83  1  0.02859000  0.91600000  0.41062000  1.0 0.090598727
H  H84  1  0.05641000  0.85660000  0.33976000  1.0 0.1009025091
H  H85  1  0.40311000  0.10270000  0.96797000  1.0 0.0791063667
H  H86  1  0.31295000  0.15993000  0.91710000  1.0 0.1009025091
H  H87  1  0.10186000  0.10016000  0.99431000  1.0 0.090598727
H  H88  1  0.19241000  0.03920000  0.04189000  1.0 0.090598727
H  H89  1  0.53547000  0.06124000  0.10432000  1.0 0.090598727
H  H90  1  0.56444000  0.11581000  0.17936000  1.0 0.1009025091
H  H91  1  0.30810000  0.14564000  0.19662000  1.0 0.090598727
H  H92  1  0.27779000  0.08811000  0.12328000  1.0 0.0614355039
H  H93  1  0.33529000  0.97522000  0.15204000  1.0 0.0791063667
H  H94  1  0.25058000  0.89803000  0.17678000  1.0 0.1009025091
H  H95  1  0.20881000  0.86381000  0.02199000  1.0 0.0791063667
H  H96  1  0.29143000  0.94012000  0.99829000  1.0 0.0682260099
H  H97  1  0.79285000  0.16865000  0.73443000  1.0 0.108286171
H  H98  1  0.69736000  0.16627000  0.66445000  1.0 0.121296214
H  H99  1  0.61705000  0.16601000  0.59860000  1.0 0.1269678194
H  H100  1  0.54508000  0.16906000  0.51762000  1.0 0.090598727
H  H101  1  0.36960000  0.05480000  0.94347000  1.0 0.0682260099
H  H102  1  0.28093000  0.11093000  0.89161000  1.0 0.1009025091
H  H103  1  0.15217000  0.15446000  0.02207000  1.0 0.090598727
H  H104  1  0.23628000  0.09296000  0.07174000  1.0 0.090598727
H  H105  1  0.14358000  0.89617000  0.03566000  1.0 0.0791063667
H  H106  1  0.22798000  0.97349000  0.01259000  1.0 0.0682260099
H  H107  1  0.38100000  0.94977000  0.14031000  1.0 0.0791063667
H  H108  1  0.28727000  0.87871000  0.16831000  1.0 0.108286171
H  H109  1  0.32022000  0.11338000  0.21940000  1.0 0.090598727
H  H110  1  0.28989000  0.05325000  0.14825000  1.0 0.0614355039
H  H111  1  0.52859000  0.08400000  0.08938000  1.0 0.090598727
H  H112  1  0.55641000  0.14340000  0.16024000  1.0 0.1009025091
H  H113  1  0.90311000  0.60270000  0.53203000  1.0 0.0791063667
H  H114  1  0.81295000  0.65993000  0.58290000  1.0 0.1009025091
H  H115  1  0.60186000  0.60016000  0.50569000  1.0 0.090598727
H  H116  1  0.69241000  0.53920000  0.45811000  1.0 0.090598727
H  H117  1  0.03547000  0.56124000  0.39568000  1.0 0.090598727
H  H118  1  0.06444000  0.61581000  0.32064000  1.0 0.1009025091
H  H119  1  0.80810000  0.64564000  0.30338000  1.0 0.090598727
H  H120  1  0.77779000  0.58811000  0.37672000  1.0 0.0614355039
H  H121  1  0.83529000  0.47522000  0.34796000  1.0 0.0791063667
H  H122  1  0.75058000  0.39803000  0.32322000  1.0 0.1009025091
H  H123  1  0.70881000  0.36381000  0.47801000  1.0 0.0791063667
H  H124  1  0.79143000  0.44012000  0.50171000  1.0 0.0682260099
H  H125  1  0.29285000  0.66865000  0.76557000  1.0 0.108286171
H  H126  1  0.19736000  0.66627000  0.83555000  1.0 0.121296214
H  H127  1  0.11705000  0.66601000  0.90140000  1.0 0.1269678194
H  H128  1  0.04508000  0.66906000  0.98238000  1.0 0.090598727
H  H129  1  0.86960000  0.55480000  0.55653000  1.0 0.0682260099
H  H130  1  0.78093000  0.61093000  0.60839000  1.0 0.1009025091
H  H131  1  0.65217000  0.65446000  0.47793000  1.0 0.090598727
H  H132  1  0.73628000  0.59296000  0.42826000  1.0 0.090598727
H  H133  1  0.64358000  0.39617000  0.46434000  1.0 0.0791063667
H  H134  1  0.72798000  0.47349000  0.48741000  1.0 0.0682260099
H  H135  1  0.88100000  0.44977000  0.35969000  1.0 0.0791063667
H  H136  1  0.78727000  0.37871000  0.33169000  1.0 0.108286171
H  H137  1  0.82022000  0.61338000  0.28060000  1.0 0.090598727
H  H138  1  0.78989000  0.55325000  0.35175000  1.0 0.0614355039
H  H139  1  0.02859000  0.58400000  0.41062000  1.0 0.090598727
H  H140  1  0.05641000  0.64340000  0.33976000  1.0 0.1009025091
H  H141  1  0.40311000  0.39730000  0.96797000  1.0 0.0791063667
H  H142  1  0.31295000  0.34007000  0.91710000  1.0 0.1009025091
H  H143  1  0.10186000  0.39984000  0.99431000  1.0 0.090598727
H  H144  1  0.19241000  0.46080000  0.04189000  1.0 0.090598727
H  H145  1  0.53547000  0.43876000  0.10432000  1.0 0.090598727
H  H146  1  0.56444000  0.38419000  0.17936000  1.0 0.1009025091
H  H147  1  0.30810000  0.35436000  0.19662000  1.0 0.090598727
H  H148  1  0.27779000  0.41189000  0.12328000  1.0 0.0614355039
H  H149  1  0.33529000  0.52478000  0.15204000  1.0 0.0791063667
H  H150  1  0.25058000  0.60197000  0.17678000  1.0 0.1009025091
H  H151  1  0.20881000  0.63619000  0.02199000  1.0 0.0791063667
H  H152  1  0.29143000  0.55988000  0.99829000  1.0 0.0682260099
H  H153  1  0.79285000  0.33135000  0.73443000  1.0 0.108286171
H  H154  1  0.69736000  0.33373000  0.66445000  1.0 0.121296214
H  H155  1  0.61705000  0.33399000  0.59860000  1.0 0.1269678194
H  H156  1  0.54508000  0.33094000  0.51762000  1.0 0.090598727
H  H157  1  0.36960000  0.44520000  0.94347000  1.0 0.0682260099
H  H158  1  0.28093000  0.38907000  0.89161000  1.0 0.1009025091
H  H159  1  0.15217000  0.34554000  0.02207000  1.0 0.090598727
H  H160  1  0.23628000  0.40704000  0.07174000  1.0 0.090598727
H  H161  1  0.14358000  0.60383000  0.03566000  1.0 0.0791063667
H  H162  1  0.22798000  0.52651000  0.01259000  1.0 0.0682260099
H  H163  1  0.38100000  0.55023000  0.14031000  1.0 0.0791063667
H  H164  1  0.28727000  0.62129000  0.16831000  1.0 0.108286171
H  H165  1  0.32022000  0.38662000  0.21940000  1.0 0.090598727
H  H166  1  0.28989000  0.44675000  0.14825000  1.0 0.0614355039
H  H167  1  0.52859000  0.41600000  0.08938000  1.0 0.090598727
H  H168  1  0.55641000  0.35660000  0.16024000  1.0 0.1009025091
H  H169  1  0.09689000  0.10270000  0.46797000  1.0 0.0791063667
H  H170  1  0.18705000  0.15993000  0.41710000  1.0 0.1009025091
H  H171  1  0.39814000  0.10016000  0.49431000  1.0 0.090598727
H  H172  1  0.30759000  0.03920000  0.54189000  1.0 0.090598727
H  H173  1  0.96453000  0.06124000  0.60432000  1.0 0.090598727
H  H174  1  0.93556000  0.11581000  0.67936000  1.0 0.1009025091
H  H175  1  0.19190000  0.14564000  0.69662000  1.0 0.090598727
H  H176  1  0.22221000  0.08811000  0.62328000  1.0 0.0614355039
H  H177  1  0.16471000  0.97522000  0.65204000  1.0 0.0791063667
H  H178  1  0.24942000  0.89803000  0.67678000  1.0 0.1009025091
H  H179  1  0.29119000  0.86381000  0.52199000  1.0 0.0791063667
H  H180  1  0.20857000  0.94012000  0.49829000  1.0 0.0682260099
H  H181  1  0.70715000  0.16865000  0.23443000  1.0 0.108286171
H  H182  1  0.80264000  0.16627000  0.16445000  1.0 0.121296214
H  H183  1  0.88295000  0.16601000  0.09860000  1.0 0.1269678194
H  H184  1  0.95492000  0.16906000  0.01762000  1.0 0.090598727
H  H185  1  0.13040000  0.05480000  0.44347000  1.0 0.0682260099
H  H186  1  0.21907000  0.11093000  0.39161000  1.0 0.1009025091
H  H187  1  0.34783000  0.15446000  0.52207000  1.0 0.090598727
H  H188  1  0.26372000  0.09296000  0.57174000  1.0 0.090598727
H  H189  1  0.35642000  0.89617000  0.53566000  1.0 0.0791063667
H  H190  1  0.27202000  0.97349000  0.51259000  1.0 0.0682260099
H  H191  1  0.11900000  0.94977000  0.64031000  1.0 0.0791063667
H  H192  1  0.21273000  0.87871000  0.66831000  1.0 0.108286171
H  H193  1  0.17978000  0.11338000  0.71940000  1.0 0.090598727
H  H194  1  0.21011000  0.05325000  0.64825000  1.0 0.0614355039
H  H195  1  0.97141000  0.08400000  0.58938000  1.0 0.090598727
H  H196  1  0.94359000  0.14340000  0.66024000  1.0 0.1009025091
H  H197  1  0.59689000  0.89730000  0.03203000  1.0 0.0791063667
H  H198  1  0.68705000  0.84007000  0.08290000  1.0 0.1009025091
H  H199  1  0.89814000  0.89984000  0.00569000  1.0 0.090598727
H  H200  1  0.80759000  0.96080000  0.95811000  1.0 0.090598727
H  H201  1  0.46453000  0.93876000  0.89568000  1.0 0.090598727
H  H202  1  0.43556000  0.88419000  0.82064000  1.0 0.1009025091
H  H203  1  0.69190000  0.85436000  0.80338000  1.0 0.090598727
H  H204  1  0.72221000  0.91189000  0.87672000  1.0 0.0614355039
H  H205  1  0.66471000  0.02478000  0.84796000  1.0 0.0791063667
H  H206  1  0.74942000  0.10197000  0.82322000  1.0 0.1009025091
H  H207  1  0.79119000  0.13619000  0.97801000  1.0 0.0791063667
H  H208  1  0.70857000  0.05988000  0.00171000  1.0 0.0682260099
H  H209  1  0.20715000  0.83135000  0.26557000  1.0 0.108286171
H  H210  1  0.30264000  0.83373000  0.33555000  1.0 0.121296214
H  H211  1  0.38295000  0.83399000  0.40140000  1.0 0.1269678194
H  H212  1  0.45492000  0.83094000  0.48238000  1.0 0.090598727
H  H213  1  0.63040000  0.94520000  0.05653000  1.0 0.0682260099
H  H214  1  0.71907000  0.88907000  0.10839000  1.0 0.1009025091
H  H215  1  0.84783000  0.84554000  0.97793000  1.0 0.090598727
H  H216  1  0.76372000  0.90704000  0.92826000  1.0 0.090598727
H  H217  1  0.85642000  0.10383000  0.96434000  1.0 0.0791063667
H  H218  1  0.77202000  0.02651000  0.98741000  1.0 0.0682260099
H  H219  1  0.61900000  0.05023000  0.85969000  1.0 0.0791063667
H  H220  1  0.71273000  0.12129000  0.83169000  1.0 0.108286171
H  H221  1  0.67978000  0.88662000  0.78060000  1.0 0.090598727
H  H222  1  0.71011000  0.94675000  0.85175000  1.0 0.0614355039
H  H223  1  0.47141000  0.91600000  0.91062000  1.0 0.090598727
H  H224  1  0.44359000  0.85660000  0.83976000  1.0 0.1009025091
Au  Au1  1  0.00000000  0.50000000  0.50000000  1.0 -0.1169807713
Au  Au2  1  0.50000000  0.50000000  0.00000000  1.0 -0.1299224715
Au  Au3  1  0.00000000  0.00000000  0.50000000  1.0 -0.1169807713
Au  Au4  1  0.50000000  0.00000000  0.00000000  1.0 -0.1299224715
C  C1  1  0.19320000  0.43205000  0.51198000  1.0 -0.0602222127
C  C2  1  0.15810000  0.39750000  0.47380000  1.0 -0.0686249379
C  C3  1  0.21180000  0.36310000  0.44380000  1.0 -0.0291627467
C  C4  1  0.29850000  0.36205000  0.45221000  1.0 -0.0686249379
C  C5  1  0.33680000  0.39920000  0.48920000  1.0 -0.04104049
C  C6  1  0.28280000  0.43470000  0.51800000  1.0 -0.0602222127
C  C7  1  0.35600000  0.32465000  0.42017000  1.0 0.4133772571
C  C8  1  0.09480000  0.43286000  0.60952000  1.0 -0.1090398188
C  C9  1  0.01120000  0.42300000  0.62400000  1.0 -0.1169807713
C  C10  1  0.99400000  0.38960000  0.66790000  1.0 -0.0291627467
C  C11  1  0.06180000  0.36408000  0.69513000  1.0 -0.0802810692
C  C12  1  0.14550000  0.37230000  0.67840000  1.0 0.0083338975
C  C13  1  0.16400000  0.40660000  0.63500000  1.0 -0.0174712053
C  C14  1  0.04490000  0.32511000  0.74058000  1.0 0.4496877808
C  C15  1  0.18420000  0.53324000  0.57304000  1.0 -0.1299224715
C  C16  1  0.19290000  0.54650000  0.62570000  1.0 -0.04104049
C  C17  1  0.24360000  0.59240000  0.64040000  1.0 -0.0174712053
C  C18  1  0.28500000  0.62357000  0.60199000  1.0 -0.0498180269
C  C19  1  0.26830000  0.61250000  0.54870000  1.0 -0.0291627467
C  C20  1  0.21900000  0.56750000  0.53480000  1.0 -0.0802810692
C  C21  1  0.34390000  0.67099000  0.61717000  1.0 0.4916068632
C  C22  1  0.72630000  0.29721000  0.21948000  1.0 0.0791063667
C  C23  1  0.78370000  0.29885000  0.17780000  1.0 -0.189991512
C  C24  1  0.89470000  0.29918000  0.08231000  1.0 -0.189991512
C  C25  1  0.93760000  0.29699000  0.03373000  1.0 0.0614355039
C  C26  1  0.17770000  0.42590000  0.45940000  1.0 -0.0802810692
C  C27  1  0.22960000  0.39220000  0.42870000  1.0 -0.0174712053
C  C28  1  0.30550000  0.36740000  0.50420000  1.0 -0.0498180269
C  C29  1  0.25390000  0.40360000  0.53460000  1.0 -0.0686249379
C  C30  1  0.30760000  0.59340000  0.55660000  1.0 -0.0291627467
C  C31  1  0.25700000  0.54800000  0.54290000  1.0 -0.0602222127
C  C32  1  0.16730000  0.56070000  0.61890000  1.0 -0.04104049
C  C33  1  0.22100000  0.60460000  0.63450000  1.0 -0.0174712053
C  C34  1  0.13770000  0.39150000  0.69210000  1.0 0.0083338975
C  C35  1  0.15650000  0.42700000  0.64970000  1.0 -0.0291627467
C  C36  1  0.01570000  0.40890000  0.61490000  1.0 -0.1090398188
C  C37  1  0.99900000  0.37400000  0.65720000  1.0 -0.0291627467
C  C38  1  0.69320000  0.56795000  0.98802000  1.0 -0.0602222127
C  C39  1  0.65810000  0.60250000  0.02620000  1.0 -0.0686249379
C  C40  1  0.71180000  0.63690000  0.05620000  1.0 -0.0291627467
C  C41  1  0.79850000  0.63795000  0.04779000  1.0 -0.0686249379
C  C42  1  0.83680000  0.60080000  0.01080000  1.0 -0.04104049
C  C43  1  0.78280000  0.56530000  0.98200000  1.0 -0.0602222127
C  C44  1  0.85600000  0.67535000  0.07983000  1.0 0.4133772571
C  C45  1  0.59480000  0.56714000  0.89048000  1.0 -0.1090398188
C  C46  1  0.51120000  0.57700000  0.87600000  1.0 -0.1169807713
C  C47  1  0.49400000  0.61040000  0.83210000  1.0 -0.0291627467
C  C48  1  0.56180000  0.63592000  0.80487000  1.0 -0.0802810692
C  C49  1  0.64550000  0.62770000  0.82160000  1.0 0.0083338975
C  C50  1  0.66400000  0.59340000  0.86500000  1.0 -0.0174712053
C  C51  1  0.54490000  0.67489000  0.75942000  1.0 0.4496877808
C  C52  1  0.68420000  0.46676000  0.92696000  1.0 -0.1299224715
C  C53  1  0.69290000  0.45350000  0.87430000  1.0 -0.04104049
C  C54  1  0.74360000  0.40760000  0.85960000  1.0 -0.0174712053
C  C55  1  0.78500000  0.37643000  0.89801000  1.0 -0.0498180269
C  C56  1  0.76830000  0.38750000  0.95130000  1.0 -0.0291627467
C  C57  1  0.71900000  0.43250000  0.96520000  1.0 -0.0802810692
C  C58  1  0.84390000  0.32901000  0.88283000  1.0 0.4916068632
C  C59  1  0.22630000  0.70279000  0.28052000  1.0 0.0791063667
C  C60  1  0.28370000  0.70115000  0.32220000  1.0 -0.189991512
C  C61  1  0.39470000  0.70082000  0.41769000  1.0 -0.189991512
C  C62  1  0.43760000  0.70301000  0.46627000  1.0 0.0614355039
C  C63  1  0.67770000  0.57410000  0.04060000  1.0 -0.0802810692
C  C64  1  0.72960000  0.60780000  0.07130000  1.0 -0.0174712053
C  C65  1  0.80550000  0.63260000  0.99580000  1.0 -0.0498180269
C  C66  1  0.75390000  0.59640000  0.96540000  1.0 -0.0686249379
C  C67  1  0.80760000  0.40660000  0.94340000  1.0 -0.0291627467
C  C68  1  0.75700000  0.45200000  0.95710000  1.0 -0.0602222127
C  C69  1  0.66730000  0.43930000  0.88110000  1.0 -0.04104049
C  C70  1  0.72100000  0.39540000  0.86550000  1.0 -0.0174712053
C  C71  1  0.63770000  0.60850000  0.80790000  1.0 0.0083338975
C  C72  1  0.65650000  0.57300000  0.85030000  1.0 -0.0291627467
C  C73  1  0.51570000  0.59110000  0.88510000  1.0 -0.1090398188
C  C74  1  0.49900000  0.62600000  0.84280000  1.0 -0.0291627467
C  C75  1  0.80680000  0.93205000  0.48802000  1.0 -0.0602222127
C  C76  1  0.84190000  0.89750000  0.52620000  1.0 -0.0686249379
C  C77  1  0.78820000  0.86310000  0.55620000  1.0 -0.0291627467
C  C78  1  0.70150000  0.86205000  0.54779000  1.0 -0.0686249379
C  C79  1  0.66320000  0.89920000  0.51080000  1.0 -0.04104049
C  C80  1  0.71720000  0.93470000  0.48200000  1.0 -0.0602222127
C  C81  1  0.64400000  0.82465000  0.57983000  1.0 0.4133772571
C  C82  1  0.90520000  0.93286000  0.39048000  1.0 -0.1090398188
C  C83  1  0.98880000  0.92300000  0.37600000  1.0 -0.1169807713
C  C84  1  0.00600000  0.88960000  0.33210000  1.0 -0.0291627467
C  C85  1  0.93820000  0.86408000  0.30487000  1.0 -0.0802810692
C  C86  1  0.85450000  0.87230000  0.32160000  1.0 0.0083338975
C  C87  1  0.83600000  0.90660000  0.36500000  1.0 -0.0174712053
C  C88  1  0.95510000  0.82511000  0.25942000  1.0 0.4496877808
C  C89  1  0.81580000  0.03324000  0.42696000  1.0 -0.1299224715
C  C90  1  0.80710000  0.04650000  0.37430000  1.0 -0.04104049
C  C91  1  0.75640000  0.09240000  0.35960000  1.0 -0.0174712053
C  C92  1  0.71500000  0.12357000  0.39801000  1.0 -0.0498180269
C  C93  1  0.73170000  0.11250000  0.45130000  1.0 -0.0291627467
C  C94  1  0.78100000  0.06750000  0.46520000  1.0 -0.0802810692
C  C95  1  0.65610000  0.17099000  0.38283000  1.0 0.4916068632
C  C96  1  0.27370000  0.79721000  0.78052000  1.0 0.0791063667
C  C97  1  0.21630000  0.79885000  0.82220000  1.0 -0.189991512
C  C98  1  0.10530000  0.79918000  0.91769000  1.0 -0.189991512
C  C99  1  0.06240000  0.79699000  0.96627000  1.0 0.0614355039
C  C100  1  0.82230000  0.92590000  0.54060000  1.0 -0.0802810692
C  C101  1  0.77040000  0.89220000  0.57130000  1.0 -0.0174712053
C  C102  1  0.69450000  0.86740000  0.49580000  1.0 -0.04104049
C  C103  1  0.74610000  0.90360000  0.46540000  1.0 -0.0686249379
C  C104  1  0.69240000  0.09340000  0.44340000  1.0 -0.0291627467
C  C105  1  0.74300000  0.04800000  0.45710000  1.0 -0.0602222127
C  C106  1  0.83270000  0.06070000  0.38110000  1.0 -0.04104049
C  C107  1  0.77900000  0.10460000  0.36550000  1.0 -0.0174712053
C  C108  1  0.86230000  0.89150000  0.30790000  1.0 0.0083338975
C  C109  1  0.84350000  0.92700000  0.35030000  1.0 -0.0291627467
C  C110  1  0.98430000  0.90890000  0.38510000  1.0 -0.1090398188
C  C111  1  0.00100000  0.87400000  0.34280000  1.0 -0.0291627467
C  C112  1  0.30680000  0.06795000  0.01198000  1.0 -0.0602222127
C  C113  1  0.34190000  0.10250000  0.97380000  1.0 -0.0686249379
C  C114  1  0.28820000  0.13690000  0.94380000  1.0 -0.0291627467
C  C115  1  0.20150000  0.13795000  0.95221000  1.0 -0.0686249379
C  C116  1  0.16320000  0.10080000  0.98920000  1.0 -0.04104049
C  C117  1  0.21720000  0.06530000  0.01800000  1.0 -0.0602222127
C  C118  1  0.14400000  0.17535000  0.92017000  1.0 0.4133772571
C  C119  1  0.40520000  0.06714000  0.10952000  1.0 -0.1090398188
C  C120  1  0.48880000  0.07700000  0.12400000  1.0 -0.1169807713
C  C121  1  0.50600000  0.11040000  0.16790000  1.0 -0.0291627467
C  C122  1  0.43820000  0.13592000  0.19513000  1.0 -0.0802810692
C  C123  1  0.35450000  0.12770000  0.17840000  1.0 0.0083338975
C  C124  1  0.33600000  0.09340000  0.13500000  1.0 -0.0174712053
C  C125  1  0.45510000  0.17489000  0.24058000  1.0 0.4496877808
C  C126  1  0.31580000  0.96676000  0.07304000  1.0 -0.1299224715
C  C127  1  0.30710000  0.95350000  0.12570000  1.0 -0.04104049
C  C128  1  0.25640000  0.90760000  0.14040000  1.0 -0.0174712053
C  C129  1  0.21500000  0.87643000  0.10199000  1.0 -0.0498180269
C  C130  1  0.23170000  0.88750000  0.04870000  1.0 -0.0291627467
C  C131  1  0.28100000  0.93250000  0.03480000  1.0 -0.0802810692
C  C132  1  0.15610000  0.82901000  0.11717000  1.0 0.4916068632
C  C133  1  0.77370000  0.20279000  0.71948000  1.0 0.0791063667
C  C134  1  0.71630000  0.20115000  0.67780000  1.0 -0.189991512
C  C135  1  0.60530000  0.20082000  0.58231000  1.0 -0.189991512
C  C136  1  0.56240000  0.20301000  0.53373000  1.0 0.0614355039
C  C137  1  0.32230000  0.07410000  0.95940000  1.0 -0.0802810692
C  C138  1  0.27040000  0.10780000  0.92870000  1.0 -0.0174712053
C  C139  1  0.19450000  0.13260000  0.00420000  1.0 -0.0498180269
C  C140  1  0.24610000  0.09640000  0.03460000  1.0 -0.0686249379
C  C141  1  0.19240000  0.90660000  0.05660000  1.0 -0.0291627467
C  C142  1  0.24300000  0.95200000  0.04290000  1.0 -0.0602222127
C  C143  1  0.33270000  0.93930000  0.11890000  1.0 -0.04104049
C  C144  1  0.27900000  0.89540000  0.13450000  1.0 -0.0174712053
C  C145  1  0.36230000  0.10850000  0.19210000  1.0 0.0083338975
C  C146  1  0.34350000  0.07300000  0.14970000  1.0 -0.0291627467
C  C147  1  0.48430000  0.09110000  0.11490000  1.0 -0.1090398188
C  C148  1  0.50100000  0.12600000  0.15720000  1.0 -0.0291627467
C  C149  1  0.80680000  0.56795000  0.48802000  1.0 -0.0602222127
C  C150  1  0.84190000  0.60250000  0.52620000  1.0 -0.0686249379
C  C151  1  0.78820000  0.63690000  0.55620000  1.0 -0.0291627467
C  C152  1  0.70150000  0.63795000  0.54779000  1.0 -0.0686249379
C  C153  1  0.66320000  0.60080000  0.51080000  1.0 -0.04104049
C  C154  1  0.71720000  0.56530000  0.48200000  1.0 -0.0602222127
C  C155  1  0.64400000  0.67535000  0.57983000  1.0 0.4133772571
C  C156  1  0.90520000  0.56714000  0.39048000  1.0 -0.1090398188
C  C157  1  0.98880000  0.57700000  0.37600000  1.0 -0.1169807713
C  C158  1  0.00600000  0.61040000  0.33210000  1.0 -0.0291627467
C  C159  1  0.93820000  0.63592000  0.30487000  1.0 -0.0802810692
C  C160  1  0.85450000  0.62770000  0.32160000  1.0 0.0083338975
C  C161  1  0.83600000  0.59340000  0.36500000  1.0 -0.0174712053
C  C162  1  0.95510000  0.67489000  0.25942000  1.0 0.4496877808
C  C163  1  0.81580000  0.46676000  0.42696000  1.0 -0.1299224715
C  C164  1  0.80710000  0.45350000  0.37430000  1.0 -0.04104049
C  C165  1  0.75640000  0.40760000  0.35960000  1.0 -0.0174712053
C  C166  1  0.71500000  0.37643000  0.39801000  1.0 -0.0498180269
C  C167  1  0.73170000  0.38750000  0.45130000  1.0 -0.0291627467
C  C168  1  0.78100000  0.43250000  0.46520000  1.0 -0.0802810692
C  C169  1  0.65610000  0.32901000  0.38283000  1.0 0.4916068632
C  C170  1  0.27370000  0.70279000  0.78052000  1.0 0.0791063667
C  C171  1  0.21630000  0.70115000  0.82220000  1.0 -0.189991512
C  C172  1  0.10530000  0.70082000  0.91769000  1.0 -0.189991512
C  C173  1  0.06240000  0.70301000  0.96627000  1.0 0.0614355039
C  C174  1  0.82230000  0.57410000  0.54060000  1.0 -0.0802810692
C  C175  1  0.77040000  0.60780000  0.57130000  1.0 -0.0174712053
C  C176  1  0.69450000  0.63260000  0.49580000  1.0 -0.0498180269
C  C177  1  0.74610000  0.59640000  0.46540000  1.0 -0.0686249379
C  C178  1  0.69240000  0.40660000  0.44340000  1.0 -0.0291627467
C  C179  1  0.74300000  0.45200000  0.45710000  1.0 -0.0602222127
C  C180  1  0.83270000  0.43930000  0.38110000  1.0 -0.04104049
C  C181  1  0.77900000  0.39540000  0.36550000  1.0 -0.0174712053
C  C182  1  0.86230000  0.60850000  0.30790000  1.0 0.0083338975
C  C183  1  0.84350000  0.57300000  0.35030000  1.0 -0.0291627467
C  C184  1  0.98430000  0.59110000  0.38510000  1.0 -0.1090398188
C  C185  1  0.00100000  0.62600000  0.34280000  1.0 -0.0291627467
C  C186  1  0.30680000  0.43205000  0.01198000  1.0 -0.0602222127
C  C187  1  0.34190000  0.39750000  0.97380000  1.0 -0.0686249379
C  C188  1  0.28820000  0.36310000  0.94380000  1.0 -0.0291627467
C  C189  1  0.20150000  0.36205000  0.95221000  1.0 -0.0686249379
C  C190  1  0.16320000  0.39920000  0.98920000  1.0 -0.04104049
C  C191  1  0.21720000  0.43470000  0.01800000  1.0 -0.0602222127
C  C192  1  0.14400000  0.32465000  0.92017000  1.0 0.4133772571
C  C193  1  0.40520000  0.43286000  0.10952000  1.0 -0.1090398188
C  C194  1  0.48880000  0.42300000  0.12400000  1.0 -0.1169807713
C  C195  1  0.50600000  0.38960000  0.16790000  1.0 -0.0291627467
C  C196  1  0.43820000  0.36408000  0.19513000  1.0 -0.0802810692
C  C197  1  0.35450000  0.37230000  0.17840000  1.0 0.0083338975
C  C198  1  0.33600000  0.40660000  0.13500000  1.0 -0.0174712053
C  C199  1  0.45510000  0.32511000  0.24058000  1.0 0.4496877808
C  C200  1  0.31580000  0.53324000  0.07304000  1.0 -0.1299224715
C  C201  1  0.30710000  0.54650000  0.12570000  1.0 -0.04104049
C  C202  1  0.25640000  0.59240000  0.14040000  1.0 -0.0174712053
C  C203  1  0.21500000  0.62357000  0.10199000  1.0 -0.0498180269
C  C204  1  0.23170000  0.61250000  0.04870000  1.0 -0.0291627467
C  C205  1  0.28100000  0.56750000  0.03480000  1.0 -0.0802810692
C  C206  1  0.15610000  0.67099000  0.11717000  1.0 0.4916068632
C  C207  1  0.77370000  0.29721000  0.71948000  1.0 0.0791063667
C  C208  1  0.71630000  0.29885000  0.67780000  1.0 -0.189991512
C  C209  1  0.60530000  0.29918000  0.58231000  1.0 -0.189991512
C  C210  1  0.56240000  0.29699000  0.53373000  1.0 0.0614355039
C  C211  1  0.32230000  0.42590000  0.95940000  1.0 -0.0802810692
C  C212  1  0.27040000  0.39220000  0.92870000  1.0 -0.0174712053
C  C213  1  0.19450000  0.36740000  0.00420000  1.0 -0.0498180269
C  C214  1  0.24610000  0.40360000  0.03460000  1.0 -0.0686249379
C  C215  1  0.19240000  0.59340000  0.05660000  1.0 -0.0291627467
C  C216  1  0.24300000  0.54800000  0.04290000  1.0 -0.0602222127
C  C217  1  0.33270000  0.56070000  0.11890000  1.0 -0.04104049
C  C218  1  0.27900000  0.60460000  0.13450000  1.0 -0.0174712053
C  C219  1  0.36230000  0.39150000  0.19210000  1.0 0.0083338975
C  C220  1  0.34350000  0.42700000  0.14970000  1.0 -0.0291627467
C  C221  1  0.48430000  0.40890000  0.11490000  1.0 -0.1090398188
C  C222  1  0.50100000  0.37400000  0.15720000  1.0 -0.0291627467
C  C223  1  0.19320000  0.06795000  0.51198000  1.0 -0.0602222127
C  C224  1  0.15810000  0.10250000  0.47380000  1.0 -0.0686249379
C  C225  1  0.21180000  0.13690000  0.44380000  1.0 -0.0291627467
C  C226  1  0.29850000  0.13795000  0.45221000  1.0 -0.0686249379
C  C227  1  0.33680000  0.10080000  0.48920000  1.0 -0.04104049
C  C228  1  0.28280000  0.06530000  0.51800000  1.0 -0.0602222127
C  C229  1  0.35600000  0.17535000  0.42017000  1.0 0.4133772571
C  C230  1  0.09480000  0.06714000  0.60952000  1.0 -0.1090398188
C  C231  1  0.01120000  0.07700000  0.62400000  1.0 -0.1169807713
C  C232  1  0.99400000  0.11040000  0.66790000  1.0 -0.0291627467
C  C233  1  0.06180000  0.13592000  0.69513000  1.0 -0.0802810692
C  C234  1  0.14550000  0.12770000  0.67840000  1.0 0.0083338975
C  C235  1  0.16400000  0.09340000  0.63500000  1.0 -0.0174712053
C  C236  1  0.04490000  0.17489000  0.74058000  1.0 0.4496877808
C  C237  1  0.18420000  0.96676000  0.57304000  1.0 -0.1299224715
C  C238  1  0.19290000  0.95350000  0.62570000  1.0 -0.04104049
C  C239  1  0.24360000  0.90760000  0.64040000  1.0 -0.0174712053
C  C240  1  0.28500000  0.87643000  0.60199000  1.0 -0.0498180269
C  C241  1  0.26830000  0.88750000  0.54870000  1.0 -0.0291627467
C  C242  1  0.21900000  0.93250000  0.53480000  1.0 -0.0802810692
C  C243  1  0.34390000  0.82901000  0.61717000  1.0 0.4916068632
C  C244  1  0.72630000  0.20279000  0.21948000  1.0 0.0791063667
C  C245  1  0.78370000  0.20115000  0.17780000  1.0 -0.189991512
C  C246  1  0.89470000  0.20082000  0.08231000  1.0 -0.189991512
C  C247  1  0.93760000  0.20301000  0.03373000  1.0 0.0614355039
C  C248  1  0.17770000  0.07410000  0.45940000  1.0 -0.0802810692
C  C249  1  0.22960000  0.10780000  0.42870000  1.0 -0.0174712053
C  C250  1  0.30550000  0.13260000  0.50420000  1.0 -0.0498180269
C  C251  1  0.25390000  0.09640000  0.53460000  1.0 -0.0686249379
C  C252  1  0.30760000  0.90660000  0.55660000  1.0 -0.0291627467
C  C253  1  0.25700000  0.95200000  0.54290000  1.0 -0.0602222127
C  C254  1  0.16730000  0.93930000  0.61890000  1.0 -0.04104049
C  C255  1  0.22100000  0.89540000  0.63450000  1.0 -0.0174712053
C  C256  1  0.13770000  0.10850000  0.69210000  1.0 0.0083338975
C  C257  1  0.15650000  0.07300000  0.64970000  1.0 -0.0291627467
C  C258  1  0.01570000  0.09110000  0.61490000  1.0 -0.1090398188
C  C259  1  0.99900000  0.12600000  0.65720000  1.0 -0.0291627467
C  C260  1  0.69320000  0.93205000  0.98802000  1.0 -0.0602222127
C  C261  1  0.65810000  0.89750000  0.02620000  1.0 -0.0686249379
C  C262  1  0.71180000  0.86310000  0.05620000  1.0 -0.0291627467
C  C263  1  0.79850000  0.86205000  0.04779000  1.0 -0.0686249379
C  C264  1  0.83680000  0.89920000  0.01080000  1.0 -0.04104049
C  C265  1  0.78280000  0.93470000  0.98200000  1.0 -0.0602222127
C  C266  1  0.85600000  0.82465000  0.07983000  1.0 0.4133772571
C  C267  1  0.59480000  0.93286000  0.89048000  1.0 -0.1090398188
C  C268  1  0.51120000  0.92300000  0.87600000  1.0 -0.1169807713
C  C269  1  0.49400000  0.88960000  0.83210000  1.0 -0.0291627467
C  C270  1  0.56180000  0.86408000  0.80487000  1.0 -0.0802810692
C  C271  1  0.64550000  0.87230000  0.82160000  1.0 0.0083338975
C  C272  1  0.66400000  0.90660000  0.86500000  1.0 -0.0174712053
C  C273  1  0.54490000  0.82511000  0.75942000  1.0 0.4496877808
C  C274  1  0.68420000  0.03324000  0.92696000  1.0 -0.1299224715
C  C275  1  0.69290000  0.04650000  0.87430000  1.0 -0.04104049
C  C276  1  0.74360000  0.09240000  0.85960000  1.0 -0.0174712053
C  C277  1  0.78500000  0.12357000  0.89801000  1.0 -0.0498180269
C  C278  1  0.76830000  0.11250000  0.95130000  1.0 -0.0291627467
C  C279  1  0.71900000  0.06750000  0.96520000  1.0 -0.0802810692
C  C280  1  0.84390000  0.17099000  0.88283000  1.0 0.4916068632
C  C281  1  0.22630000  0.79721000  0.28052000  1.0 0.0791063667
C  C282  1  0.28370000  0.79885000  0.32220000  1.0 -0.189991512
C  C283  1  0.39470000  0.79918000  0.41769000  1.0 -0.189991512
C  C284  1  0.43760000  0.79699000  0.46627000  1.0 0.0614355039
C  C285  1  0.67770000  0.92590000  0.04060000  1.0 -0.0802810692
C  C286  1  0.72960000  0.89220000  0.07130000  1.0 -0.0174712053
C  C287  1  0.80550000  0.86740000  0.99580000  1.0 -0.0498180269
C  C288  1  0.75390000  0.90360000  0.96540000  1.0 -0.0686249379
C  C289  1  0.80760000  0.09340000  0.94340000  1.0 -0.0291627467
C  C290  1  0.75700000  0.04800000  0.95710000  1.0 -0.0602222127
C  C291  1  0.66730000  0.06070000  0.88110000  1.0 -0.04104049
C  C292  1  0.72100000  0.10460000  0.86550000  1.0 -0.0174712053
C  C293  1  0.63770000  0.89150000  0.80790000  1.0 0.0083338975
C  C294  1  0.65650000  0.92700000  0.85030000  1.0 -0.0291627467
C  C295  1  0.51570000  0.90890000  0.88510000  1.0 -0.1090398188
C  C296  1  0.49900000  0.87400000  0.84280000  1.0 -0.0291627467
C  C297  1  0.81470000  0.25000000  0.15480000  1.0 0.1009025091
C  C298  1  0.86910000  0.25000000  0.10690000  1.0 0.108286171
C  C299  1  0.31470000  0.75000000  0.34520000  1.0 0.1009025091
C  C300  1  0.36910000  0.75000000  0.39310000  1.0 0.108286171
C  C301  1  0.18530000  0.75000000  0.84520000  1.0 0.1009025091
C  C302  1  0.13090000  0.75000000  0.89310000  1.0 0.108286171
C  C303  1  0.68530000  0.25000000  0.65480000  1.0 0.1009025091
C  C304  1  0.63090000  0.25000000  0.60690000  1.0 0.108286171
N  N1  1  0.69600000  0.25000000  0.23996000  1.0 -0.2501120101
N  N2  1  0.95560000  0.25000000  0.00883000  1.0 -0.3435099255
N  N3  1  0.19600000  0.75000000  0.26004000  1.0 -0.2501120101
N  N4  1  0.45560000  0.75000000  0.49117000  1.0 -0.3435099255
N  N5  1  0.30400000  0.75000000  0.76004000  1.0 -0.2501120101
N  N6  1  0.04440000  0.75000000  0.99117000  1.0 -0.3435099255
N  N7  1  0.80400000  0.25000000  0.73996000  1.0 -0.2501120101
N  N8  1  0.54440000  0.25000000  0.50883000  1.0 -0.3435099255
O  O1  1  0.96450000  0.31820000  0.75270000  1.0 -0.2265891134
O  O2  1  0.11100000  0.30490000  0.76210000  1.0 -0.311789168
O  O3  1  0.33320000  0.69240000  0.66240000  1.0 -0.4396547358
O  O4  1  0.40440000  0.68180000  0.58310000  1.0 -0.1763474457
O  O5  1  0.43510000  0.31920000  0.43510000  1.0 -0.189991512
O  O6  1  0.32190000  0.30060000  0.38240000  1.0 -0.1590116024
O  O7  1  0.33420000  0.31860000  0.37120000  1.0 -0.1723291427
O  O8  1  0.41090000  0.29960000  0.44600000  1.0 -0.1409327816
O  O9  1  0.37620000  0.69830000  0.58070000  1.0 -0.1590116024
O  O10  1  0.35010000  0.68280000  0.66590000  1.0 -0.4396547358
O  O11  1  0.10560000  0.31820000  0.77280000  1.0 -0.311789168
O  O12  1  0.97190000  0.30160000  0.74280000  1.0 -0.2265891134
O  O13  1  0.46450000  0.68180000  0.74730000  1.0 -0.2265891134
O  O14  1  0.61100000  0.69510000  0.73790000  1.0 -0.311789168
O  O15  1  0.83320000  0.30760000  0.83760000  1.0 -0.4396547358
O  O16  1  0.90440000  0.31820000  0.91690000  1.0 -0.1763474457
O  O17  1  0.93510000  0.68080000  0.06490000  1.0 -0.189991512
O  O18  1  0.82190000  0.69940000  0.11760000  1.0 -0.1590116024
O  O19  1  0.83420000  0.68140000  0.12880000  1.0 -0.1723291427
O  O20  1  0.91090000  0.70040000  0.05400000  1.0 -0.1409327816
O  O21  1  0.87620000  0.30170000  0.91930000  1.0 -0.1590116024
O  O22  1  0.85010000  0.31720000  0.83410000  1.0 -0.4396547358
O  O23  1  0.60560000  0.68180000  0.72720000  1.0 -0.311789168
O  O24  1  0.47190000  0.69840000  0.75720000  1.0 -0.2265891134
O  O25  1  0.03550000  0.81820000  0.24730000  1.0 -0.2265891134
O  O26  1  0.88900000  0.80490000  0.23790000  1.0 -0.311789168
O  O27  1  0.66680000  0.19240000  0.33760000  1.0 -0.4396547358
O  O28  1  0.59560000  0.18180000  0.41690000  1.0 -0.1763474457
O  O29  1  0.56490000  0.81920000  0.56490000  1.0 -0.189991512
O  O30  1  0.67810000  0.80060000  0.61760000  1.0 -0.1590116024
O  O31  1  0.66580000  0.81860000  0.62880000  1.0 -0.1723291427
O  O32  1  0.58910000  0.79960000  0.55400000  1.0 -0.1409327816
O  O33  1  0.62380000  0.19830000  0.41930000  1.0 -0.1590116024
O  O34  1  0.64990000  0.18280000  0.33410000  1.0 -0.4396547358
O  O35  1  0.89440000  0.81820000  0.22720000  1.0 -0.311789168
O  O36  1  0.02810000  0.80160000  0.25720000  1.0 -0.2265891134
O  O37  1  0.53550000  0.18180000  0.25270000  1.0 -0.2265891134
O  O38  1  0.38900000  0.19510000  0.26210000  1.0 -0.311789168
O  O39  1  0.16680000  0.80760000  0.16240000  1.0 -0.4396547358
O  O40  1  0.09560000  0.81820000  0.08310000  1.0 -0.1763474457
O  O41  1  0.06490000  0.18080000  0.93510000  1.0 -0.189991512
O  O42  1  0.17810000  0.19940000  0.88240000  1.0 -0.1590116024
O  O43  1  0.16580000  0.18140000  0.87120000  1.0 -0.1723291427
O  O44  1  0.08910000  0.20040000  0.94600000  1.0 -0.1409327816
O  O45  1  0.12380000  0.80170000  0.08070000  1.0 -0.1590116024
O  O46  1  0.14990000  0.81720000  0.16590000  1.0 -0.4396547358
O  O47  1  0.39440000  0.18180000  0.27280000  1.0 -0.311789168
O  O48  1  0.52810000  0.19840000  0.24280000  1.0 -0.2265891134
O  O49  1  0.03550000  0.68180000  0.24730000  1.0 -0.2265891134
O  O50  1  0.88900000  0.69510000  0.23790000  1.0 -0.311789168
O  O51  1  0.66680000  0.30760000  0.33760000  1.0 -0.4396547358
O  O52  1  0.59560000  0.31820000  0.41690000  1.0 -0.1763474457
O  O53  1  0.56490000  0.68080000  0.56490000  1.0 -0.189991512
O  O54  1  0.67810000  0.69940000  0.61760000  1.0 -0.1590116024
O  O55  1  0.66580000  0.68140000  0.62880000  1.0 -0.1723291427
O  O56  1  0.58910000  0.70040000  0.55400000  1.0 -0.1409327816
O  O57  1  0.62380000  0.30170000  0.41930000  1.0 -0.1590116024
O  O58  1  0.64990000  0.31720000  0.33410000  1.0 -0.4396547358
O  O59  1  0.89440000  0.68180000  0.22720000  1.0 -0.311789168
O  O60  1  0.02810000  0.69840000  0.25720000  1.0 -0.2265891134
O  O61  1  0.53550000  0.31820000  0.25270000  1.0 -0.2265891134
O  O62  1  0.38900000  0.30490000  0.26210000  1.0 -0.311789168
O  O63  1  0.16680000  0.69240000  0.16240000  1.0 -0.4396547358
O  O64  1  0.09560000  0.68180000  0.08310000  1.0 -0.1763474457
O  O65  1  0.06490000  0.31920000  0.93510000  1.0 -0.189991512
O  O66  1  0.17810000  0.30060000  0.88240000  1.0 -0.1590116024
O  O67  1  0.16580000  0.31860000  0.87120000  1.0 -0.1723291427
O  O68  1  0.08910000  0.29960000  0.94600000  1.0 -0.1409327816
O  O69  1  0.12380000  0.69830000  0.08070000  1.0 -0.1590116024
O  O70  1  0.14990000  0.68280000  0.16590000  1.0 -0.4396547358
O  O71  1  0.39440000  0.31820000  0.27280000  1.0 -0.311789168
O  O72  1  0.52810000  0.30160000  0.24280000  1.0 -0.2265891134
O  O73  1  0.96450000  0.18180000  0.75270000  1.0 -0.2265891134
O  O74  1  0.11100000  0.19510000  0.76210000  1.0 -0.311789168
O  O75  1  0.33320000  0.80760000  0.66240000  1.0 -0.4396547358
O  O76  1  0.40440000  0.81820000  0.58310000  1.0 -0.1763474457
O  O77  1  0.43510000  0.18080000  0.43510000  1.0 -0.189991512
O  O78  1  0.32190000  0.19940000  0.38240000  1.0 -0.1590116024
O  O79  1  0.33420000  0.18140000  0.37120000  1.0 -0.1723291427
O  O80  1  0.41090000  0.20040000  0.44600000  1.0 -0.1409327816
O  O81  1  0.37620000  0.80170000  0.58070000  1.0 -0.1590116024
O  O82  1  0.35010000  0.81720000  0.66590000  1.0 -0.4396547358
O  O83  1  0.10560000  0.18180000  0.77280000  1.0 -0.311789168
O  O84  1  0.97190000  0.19840000  0.74280000  1.0 -0.2265891134
O  O85  1  0.46450000  0.81820000  0.74730000  1.0 -0.2265891134
O  O86  1  0.61100000  0.80490000  0.73790000  1.0 -0.311789168
O  O87  1  0.83320000  0.19240000  0.83760000  1.0 -0.4396547358
O  O88  1  0.90440000  0.18180000  0.91690000  1.0 -0.1763474457
O  O89  1  0.93510000  0.81920000  0.06490000  1.0 -0.189991512
O  O90  1  0.82190000  0.80060000  0.11760000  1.0 -0.1590116024
O  O91  1  0.83420000  0.81860000  0.12880000  1.0 -0.1723291427
O  O92  1  0.91090000  0.79960000  0.05400000  1.0 -0.1409327816
O  O93  1  0.87620000  0.19830000  0.91930000  1.0 -0.1590116024
O  O94  1  0.85010000  0.18280000  0.83410000  1.0 -0.4396547358
O  O95  1  0.60560000  0.81820000  0.72720000  1.0 -0.311789168
O  O96  1  0.47190000  0.80160000  0.75720000  1.0 -0.2265891134
F  F1  1  0.49090000  0.25000000  0.34704000  1.0 -0.5197544824
F  F2  1  0.99090000  0.75000000  0.15296000  1.0 -0.5197544824
F  F3  1  0.50910000  0.75000000  0.65296000  1.0 -0.5197544824
F  F4  1  0.00910000  0.25000000  0.84704000  1.0 -0.5197544824
