# DDEC6 charges by PACMAN v1.1 (https://github.com/mtap-research/PACMAN-charge/)
data_ABEDIY_ASR_pacman
_symmetry_space_group_name_H-M   'P 1'
_cell_length_a   15.35370000
_cell_length_b   23.86200000
_cell_length_c   25.23200000
_cell_angle_alpha   90.00000000
_cell_angle_beta   90.00000000
_cell_angle_gamma   90.00000000
_symmetry_Int_Tables_number   1
_chemical_formula_structural   Co3Cu2P2H62C74N4O22F
_chemical_formula_sum   'Co12 Cu8 P8 H248 C296 N16 O88 F4'
_cell_volume   9244.24757254
_cell_formula_units_Z   4
loop_
 _symmetry_equiv_pos_site_id
 _symmetry_equiv_pos_as_xyz
  1  'x, y, z'
loop_
 _atom_site_type_symbol
 _atom_site_label
 _atom_site_symmetry_multiplicity
 _atom_site_fract_x
 _atom_site_fract_y
 _atom_site_fract_z
 _atom_site_occupancy
 _atom_site_charge
Co  Co1  1  0.40732000  0.75000000  0.29726000  1.0 1.1174950497
Co  Co2  1  0.63289000  0.75000000  0.32310000  1.0 1.2464104192
Co  Co3  1  0.48331000  0.75000000  0.42732000  1.0 0.8563649254
Co  Co4  1  0.90732000  0.25000000  0.20274000  1.0 1.1174950497
Co  Co5  1  0.13289000  0.25000000  0.17690000  1.0 1.2464104192
Co  Co6  1  0.98331000  0.25000000  0.07268000  1.0 0.8563649254
Co  Co7  1  0.59268000  0.25000000  0.70274000  1.0 1.1142039197
Co  Co8  1  0.36711000  0.25000000  0.67690000  1.0 1.2464104192
Co  Co9  1  0.51669000  0.25000000  0.57268000  1.0 0.8563649254
Co  Co10  1  0.09268000  0.75000000  0.79726000  1.0 1.1142039197
Co  Co11  1  0.86711000  0.75000000  0.82310000  1.0 1.2464104192
Co  Co12  1  0.01669000  0.75000000  0.92732000  1.0 0.8563649254
Cu  Cu1  1  0.00337000  0.52243000  0.48666000  1.0 -0.0286319014
Cu  Cu2  1  0.50337000  0.47757000  0.01334000  1.0 -0.0191782306
Cu  Cu3  1  0.99663000  0.02243000  0.51334000  1.0 -0.0191782306
Cu  Cu4  1  0.49663000  0.97757000  0.98666000  1.0 -0.0286319014
Cu  Cu5  1  0.99663000  0.47757000  0.51334000  1.0 -0.0191782306
Cu  Cu6  1  0.49663000  0.52243000  0.98666000  1.0 -0.0286319014
Cu  Cu7  1  0.00337000  0.97757000  0.48666000  1.0 -0.0286319014
Cu  Cu8  1  0.50337000  0.02243000  0.01334000  1.0 -0.0191782306
P  P1  1  0.10984000  0.47511000  0.45189000  1.0 -0.0146861812
P  P2  1  0.60984000  0.52489000  0.04811000  1.0 -0.0191782306
P  P3  1  0.89016000  0.97511000  0.54811000  1.0 -0.0191782306
P  P4  1  0.39016000  0.02489000  0.95189000  1.0 -0.0191782306
P  P5  1  0.89016000  0.52489000  0.54811000  1.0 -0.0191782306
P  P6  1  0.39016000  0.47511000  0.95189000  1.0 -0.0191782306
P  P7  1  0.10984000  0.02489000  0.45189000  1.0 -0.0146861812
P  P8  1  0.60984000  0.97511000  0.04811000  1.0 -0.0191782306
H  H1  1  0.95563000  0.43782000  0.39410000  1.0 0.1284888038
H  H2  1  0.93273000  0.38012000  0.32231000  1.0 0.1284888038
H  H3  1  0.29101000  0.83134000  0.23278000  1.0 0.121013604
H  H4  1  0.04932000  0.66805000  0.01968000  1.0 0.110003202
H  H5  1  0.19028000  0.83341000  0.16730000  1.0 0.1398709202
H  H6  1  0.18953000  0.36331000  0.30105000  1.0 0.1398709202
H  H7  1  0.21160000  0.42134000  0.37382000  1.0 0.110003202
H  H8  1  0.11197000  0.66748000  0.10046000  1.0 0.1398709202
H  H9  1  0.29121000  0.47535000  0.47446000  1.0 0.1004838809
H  H10  1  0.18903000  0.31742000  0.55583000  1.0 0.1284888038
H  H11  1  0.39198000  0.42160000  0.52308000  1.0 0.110003202
H  H12  1  0.10199000  0.37379000  0.50773000  1.0 0.110003202
H  H13  1  0.33637000  0.61233000  0.47394000  1.0 0.0787924966
H  H14  1  0.24590000  0.53500000  0.49617000  1.0 0.070020758
H  H15  1  0.13396000  0.54368000  0.35266000  1.0 0.1004838809
H  H16  1  0.22148000  0.61739000  0.33149000  1.0 0.110003202
H  H17  1  0.19794000  0.70045000  0.57592000  1.0 0.121013604
H  H18  1  0.18627000  0.63541000  0.57071000  1.0 0.1284888038
H  H19  1  0.10520000  0.67364000  0.58168000  1.0 0.1398709202
H  H20  1  0.08345000  0.64186000  0.44541000  1.0 0.1004838809
H  H21  1  0.26934000  0.58930000  0.32734000  1.0 0.110003202
H  H22  1  0.18009000  0.51651000  0.35042000  1.0 0.1004838809
H  H23  1  0.27887000  0.64379000  0.47810000  1.0 0.070020758
H  H24  1  0.18561000  0.56829000  0.50173000  1.0 0.0787924966
H  H25  1  0.38098000  0.37389000  0.48166000  1.0 0.110003202
H  H26  1  0.28226000  0.43152000  0.43711000  1.0 0.1004838809
H  H27  1  0.10526000  0.41865000  0.54691000  1.0 0.1004838809
H  H28  1  0.19454000  0.36077000  0.59580000  1.0 0.1284888038
H  H29  1  0.22027000  0.74373000  0.50248000  1.0 0.1284888038
H  H30  1  0.14242000  0.74482000  0.46229000  1.0 0.121013604
H  H31  1  0.22350000  0.70665000  0.45123000  1.0 0.0909322925
H  H32  1  0.45563000  0.56218000  0.10590000  1.0 0.1284888038
H  H33  1  0.43273000  0.61988000  0.17769000  1.0 0.1284888038
H  H34  1  0.79101000  0.16866000  0.26722000  1.0 0.121013604
H  H35  1  0.54932000  0.33195000  0.48032000  1.0 0.110003202
H  H36  1  0.69028000  0.16659000  0.33270000  1.0 0.1398709202
H  H37  1  0.68953000  0.63669000  0.19895000  1.0 0.1398709202
H  H38  1  0.71160000  0.57866000  0.12618000  1.0 0.110003202
H  H39  1  0.61197000  0.33252000  0.39954000  1.0 0.1398709202
H  H40  1  0.79121000  0.52465000  0.02554000  1.0 0.1004838809
H  H41  1  0.68903000  0.68258000  0.94417000  1.0 0.1284888038
H  H42  1  0.89198000  0.57840000  0.97692000  1.0 0.110003202
H  H43  1  0.60199000  0.62621000  0.99227000  1.0 0.110003202
H  H44  1  0.83637000  0.38767000  0.02606000  1.0 0.0787924966
H  H45  1  0.74590000  0.46500000  0.00383000  1.0 0.0646395432
H  H46  1  0.63396000  0.45632000  0.14734000  1.0 0.1004838809
H  H47  1  0.72148000  0.38261000  0.16851000  1.0 0.110003202
H  H48  1  0.69794000  0.29955000  0.92408000  1.0 0.110003202
H  H49  1  0.68627000  0.36459000  0.92929000  1.0 0.1284888038
H  H50  1  0.60520000  0.32636000  0.91832000  1.0 0.1398709202
H  H51  1  0.58345000  0.35814000  0.05459000  1.0 0.1004838809
H  H52  1  0.76934000  0.41070000  0.17266000  1.0 0.110003202
H  H53  1  0.68009000  0.48349000  0.14958000  1.0 0.1004838809
H  H54  1  0.77887000  0.35621000  0.02190000  1.0 0.070020758
H  H55  1  0.68561000  0.43171000  0.99827000  1.0 0.0787924966
H  H56  1  0.88098000  0.62611000  0.01834000  1.0 0.110003202
H  H57  1  0.78226000  0.56848000  0.06289000  1.0 0.1004838809
H  H58  1  0.60526000  0.58135000  0.95309000  1.0 0.1004838809
H  H59  1  0.69454000  0.63923000  0.90420000  1.0 0.1284888038
H  H60  1  0.72027000  0.25627000  0.99752000  1.0 0.1284888038
H  H61  1  0.64242000  0.25518000  0.03771000  1.0 0.121013604
H  H62  1  0.72350000  0.29335000  0.04877000  1.0 0.0909322925
H  H63  1  0.04437000  0.93782000  0.60590000  1.0 0.1284888038
H  H64  1  0.06727000  0.88012000  0.67769000  1.0 0.1284888038
H  H65  1  0.70899000  0.33134000  0.76722000  1.0 0.121013604
H  H66  1  0.95068000  0.16805000  0.98032000  1.0 0.110003202
H  H67  1  0.80972000  0.33341000  0.83270000  1.0 0.1398709202
H  H68  1  0.81047000  0.86331000  0.69895000  1.0 0.1398709202
H  H69  1  0.78840000  0.92134000  0.62618000  1.0 0.110003202
H  H70  1  0.88803000  0.16748000  0.89954000  1.0 0.1398709202
H  H71  1  0.70879000  0.97535000  0.52554000  1.0 0.1004838809
H  H72  1  0.81097000  0.81742000  0.44417000  1.0 0.1284888038
H  H73  1  0.60802000  0.92160000  0.47692000  1.0 0.110003202
H  H74  1  0.89801000  0.87379000  0.49227000  1.0 0.110003202
H  H75  1  0.66363000  0.11233000  0.52606000  1.0 0.0787924966
H  H76  1  0.75410000  0.03500000  0.50383000  1.0 0.070020758
H  H77  1  0.86604000  0.04368000  0.64734000  1.0 0.1004838809
H  H78  1  0.77852000  0.11739000  0.66851000  1.0 0.110003202
H  H79  1  0.80206000  0.20045000  0.42408000  1.0 0.121013604
H  H80  1  0.81373000  0.13541000  0.42929000  1.0 0.1284888038
H  H81  1  0.89480000  0.17364000  0.41832000  1.0 0.1398709202
H  H82  1  0.91655000  0.14186000  0.55459000  1.0 0.1004838809
H  H83  1  0.73066000  0.08930000  0.67266000  1.0 0.110003202
H  H84  1  0.81991000  0.01651000  0.64958000  1.0 0.1004838809
H  H85  1  0.72113000  0.14379000  0.52190000  1.0 0.070020758
H  H86  1  0.81439000  0.06829000  0.49827000  1.0 0.0787924966
H  H87  1  0.61902000  0.87389000  0.51834000  1.0 0.110003202
H  H88  1  0.71774000  0.93152000  0.56289000  1.0 0.1004838809
H  H89  1  0.89474000  0.91865000  0.45309000  1.0 0.1004838809
H  H90  1  0.80546000  0.86077000  0.40420000  1.0 0.1284888038
H  H91  1  0.77973000  0.24373000  0.49752000  1.0 0.1284888038
H  H92  1  0.85758000  0.24482000  0.53771000  1.0 0.121013604
H  H93  1  0.77650000  0.20665000  0.54877000  1.0 0.0909322925
H  H94  1  0.54437000  0.06218000  0.89410000  1.0 0.1284888038
H  H95  1  0.56727000  0.11988000  0.82231000  1.0 0.1284888038
H  H96  1  0.20899000  0.66866000  0.73278000  1.0 0.121013604
H  H97  1  0.45068000  0.83195000  0.51968000  1.0 0.110003202
H  H98  1  0.30972000  0.66659000  0.66730000  1.0 0.1398709202
H  H99  1  0.31047000  0.13669000  0.80105000  1.0 0.1398709202
H  H100  1  0.28840000  0.07866000  0.87382000  1.0 0.110003202
H  H101  1  0.38803000  0.83252000  0.60046000  1.0 0.1398709202
H  H102  1  0.20879000  0.02465000  0.97446000  1.0 0.1004838809
H  H103  1  0.31097000  0.18258000  0.05583000  1.0 0.1284888038
H  H104  1  0.10802000  0.07840000  0.02308000  1.0 0.110003202
H  H105  1  0.39801000  0.12621000  0.00773000  1.0 0.110003202
H  H106  1  0.16363000  0.88767000  0.97394000  1.0 0.0787924966
H  H107  1  0.25410000  0.96500000  0.99617000  1.0 0.070020758
H  H108  1  0.36604000  0.95632000  0.85266000  1.0 0.1004838809
H  H109  1  0.27852000  0.88261000  0.83149000  1.0 0.110003202
H  H110  1  0.30206000  0.79955000  0.07592000  1.0 0.121013604
H  H111  1  0.31373000  0.86459000  0.07071000  1.0 0.1284888038
H  H112  1  0.39480000  0.82636000  0.08168000  1.0 0.1398709202
H  H113  1  0.41655000  0.85814000  0.94541000  1.0 0.1004838809
H  H114  1  0.23066000  0.91070000  0.82734000  1.0 0.110003202
H  H115  1  0.31991000  0.98349000  0.85042000  1.0 0.1004838809
H  H116  1  0.22113000  0.85621000  0.97810000  1.0 0.070020758
H  H117  1  0.31439000  0.93171000  0.00173000  1.0 0.0787924966
H  H118  1  0.11902000  0.12611000  0.98166000  1.0 0.110003202
H  H119  1  0.21774000  0.06848000  0.93711000  1.0 0.1004838809
H  H120  1  0.39474000  0.08135000  0.04691000  1.0 0.1004838809
H  H121  1  0.30546000  0.13923000  0.09580000  1.0 0.1284888038
H  H122  1  0.27973000  0.75627000  0.00248000  1.0 0.1284888038
H  H123  1  0.35758000  0.75518000  0.96229000  1.0 0.121013604
H  H124  1  0.27650000  0.79335000  0.95123000  1.0 0.0909322925
H  H125  1  0.04437000  0.56218000  0.60590000  1.0 0.1284888038
H  H126  1  0.06727000  0.61988000  0.67769000  1.0 0.1284888038
H  H127  1  0.70899000  0.16866000  0.76722000  1.0 0.121013604
H  H128  1  0.95068000  0.33195000  0.98032000  1.0 0.110003202
H  H129  1  0.80972000  0.16659000  0.83270000  1.0 0.1398709202
H  H130  1  0.81047000  0.63669000  0.69895000  1.0 0.1398709202
H  H131  1  0.78840000  0.57866000  0.62618000  1.0 0.110003202
H  H132  1  0.88803000  0.33252000  0.89954000  1.0 0.1398709202
H  H133  1  0.70879000  0.52465000  0.52554000  1.0 0.1004838809
H  H134  1  0.81097000  0.68258000  0.44417000  1.0 0.1284888038
H  H135  1  0.60802000  0.57840000  0.47692000  1.0 0.110003202
H  H136  1  0.89801000  0.62621000  0.49227000  1.0 0.110003202
H  H137  1  0.66363000  0.38767000  0.52606000  1.0 0.0787924966
H  H138  1  0.75410000  0.46500000  0.50383000  1.0 0.070020758
H  H139  1  0.86604000  0.45632000  0.64734000  1.0 0.1004838809
H  H140  1  0.77852000  0.38261000  0.66851000  1.0 0.110003202
H  H141  1  0.80206000  0.29955000  0.42408000  1.0 0.121013604
H  H142  1  0.81373000  0.36459000  0.42929000  1.0 0.1284888038
H  H143  1  0.89480000  0.32636000  0.41832000  1.0 0.1398709202
H  H144  1  0.91655000  0.35814000  0.55459000  1.0 0.1004838809
H  H145  1  0.73066000  0.41070000  0.67266000  1.0 0.110003202
H  H146  1  0.81991000  0.48349000  0.64958000  1.0 0.1004838809
H  H147  1  0.72113000  0.35621000  0.52190000  1.0 0.070020758
H  H148  1  0.81439000  0.43171000  0.49827000  1.0 0.0787924966
H  H149  1  0.61902000  0.62611000  0.51834000  1.0 0.110003202
H  H150  1  0.71774000  0.56848000  0.56289000  1.0 0.1004838809
H  H151  1  0.89474000  0.58135000  0.45309000  1.0 0.1004838809
H  H152  1  0.80546000  0.63923000  0.40420000  1.0 0.1284888038
H  H153  1  0.77973000  0.25627000  0.49752000  1.0 0.1284888038
H  H154  1  0.85758000  0.25518000  0.53771000  1.0 0.121013604
H  H155  1  0.77650000  0.29335000  0.54877000  1.0 0.0909322925
H  H156  1  0.54437000  0.43782000  0.89410000  1.0 0.1284888038
H  H157  1  0.56727000  0.38012000  0.82231000  1.0 0.1284888038
H  H158  1  0.20899000  0.83134000  0.73278000  1.0 0.121013604
H  H159  1  0.45068000  0.66805000  0.51968000  1.0 0.110003202
H  H160  1  0.30972000  0.83341000  0.66730000  1.0 0.1398709202
H  H161  1  0.31047000  0.36331000  0.80105000  1.0 0.1398709202
H  H162  1  0.28840000  0.42134000  0.87382000  1.0 0.110003202
H  H163  1  0.38803000  0.66748000  0.60046000  1.0 0.1398709202
H  H164  1  0.20879000  0.47535000  0.97446000  1.0 0.1004838809
H  H165  1  0.31097000  0.31742000  0.05583000  1.0 0.1284888038
H  H166  1  0.10802000  0.42160000  0.02308000  1.0 0.110003202
H  H167  1  0.39801000  0.37379000  0.00773000  1.0 0.110003202
H  H168  1  0.16363000  0.61233000  0.97394000  1.0 0.0787924966
H  H169  1  0.25410000  0.53500000  0.99617000  1.0 0.070020758
H  H170  1  0.36604000  0.54368000  0.85266000  1.0 0.1004838809
H  H171  1  0.27852000  0.61739000  0.83149000  1.0 0.110003202
H  H172  1  0.30206000  0.70045000  0.07592000  1.0 0.121013604
H  H173  1  0.31373000  0.63541000  0.07071000  1.0 0.1284888038
H  H174  1  0.39480000  0.67364000  0.08168000  1.0 0.1398709202
H  H175  1  0.41655000  0.64186000  0.94541000  1.0 0.1004838809
H  H176  1  0.23066000  0.58930000  0.82734000  1.0 0.110003202
H  H177  1  0.31991000  0.51651000  0.85042000  1.0 0.1004838809
H  H178  1  0.22113000  0.64379000  0.97810000  1.0 0.070020758
H  H179  1  0.31439000  0.56829000  0.00173000  1.0 0.0787924966
H  H180  1  0.11902000  0.37389000  0.98166000  1.0 0.110003202
H  H181  1  0.21774000  0.43152000  0.93711000  1.0 0.1004838809
H  H182  1  0.39474000  0.41865000  0.04691000  1.0 0.1004838809
H  H183  1  0.30546000  0.36077000  0.09580000  1.0 0.1284888038
H  H184  1  0.27973000  0.74373000  0.00248000  1.0 0.1284888038
H  H185  1  0.35758000  0.74482000  0.96229000  1.0 0.121013604
H  H186  1  0.27650000  0.70665000  0.95123000  1.0 0.0909322925
H  H187  1  0.95563000  0.06218000  0.39410000  1.0 0.1284888038
H  H188  1  0.93273000  0.11988000  0.32231000  1.0 0.1284888038
H  H189  1  0.29101000  0.66866000  0.23278000  1.0 0.121013604
H  H190  1  0.04932000  0.83195000  0.01968000  1.0 0.110003202
H  H191  1  0.19028000  0.66659000  0.16730000  1.0 0.1398709202
H  H192  1  0.18953000  0.13669000  0.30105000  1.0 0.1398709202
H  H193  1  0.21160000  0.07866000  0.37382000  1.0 0.110003202
H  H194  1  0.11197000  0.83252000  0.10046000  1.0 0.1398709202
H  H195  1  0.29121000  0.02465000  0.47446000  1.0 0.1004838809
H  H196  1  0.18903000  0.18258000  0.55583000  1.0 0.1284888038
H  H197  1  0.39198000  0.07840000  0.52308000  1.0 0.110003202
H  H198  1  0.10199000  0.12621000  0.50773000  1.0 0.110003202
H  H199  1  0.33637000  0.88767000  0.47394000  1.0 0.0787924966
H  H200  1  0.24590000  0.96500000  0.49617000  1.0 0.070020758
H  H201  1  0.13396000  0.95632000  0.35266000  1.0 0.1004838809
H  H202  1  0.22148000  0.88261000  0.33149000  1.0 0.110003202
H  H203  1  0.19794000  0.79955000  0.57592000  1.0 0.121013604
H  H204  1  0.18627000  0.86459000  0.57071000  1.0 0.1284888038
H  H205  1  0.10520000  0.82636000  0.58168000  1.0 0.1398709202
H  H206  1  0.08345000  0.85814000  0.44541000  1.0 0.1004838809
H  H207  1  0.26934000  0.91070000  0.32734000  1.0 0.110003202
H  H208  1  0.18009000  0.98349000  0.35042000  1.0 0.1004838809
H  H209  1  0.27887000  0.85621000  0.47810000  1.0 0.070020758
H  H210  1  0.18561000  0.93171000  0.50173000  1.0 0.0787924966
H  H211  1  0.38098000  0.12611000  0.48166000  1.0 0.110003202
H  H212  1  0.28226000  0.06848000  0.43711000  1.0 0.1004838809
H  H213  1  0.10526000  0.08135000  0.54691000  1.0 0.1004838809
H  H214  1  0.19454000  0.13923000  0.59580000  1.0 0.1284888038
H  H215  1  0.22027000  0.75627000  0.50248000  1.0 0.1284888038
H  H216  1  0.14242000  0.75518000  0.46229000  1.0 0.121013604
H  H217  1  0.22350000  0.79335000  0.45123000  1.0 0.0909322925
H  H218  1  0.45563000  0.93782000  0.10590000  1.0 0.1284888038
H  H219  1  0.43273000  0.88012000  0.17769000  1.0 0.1284888038
H  H220  1  0.79101000  0.33134000  0.26722000  1.0 0.121013604
H  H221  1  0.54932000  0.16805000  0.48032000  1.0 0.110003202
H  H222  1  0.69028000  0.33341000  0.33270000  1.0 0.1398709202
H  H223  1  0.68953000  0.86331000  0.19895000  1.0 0.1398709202
H  H224  1  0.71160000  0.92134000  0.12618000  1.0 0.110003202
H  H225  1  0.61197000  0.16748000  0.39954000  1.0 0.1398709202
H  H226  1  0.79121000  0.97535000  0.02554000  1.0 0.1004838809
H  H227  1  0.68903000  0.81742000  0.94417000  1.0 0.1284888038
H  H228  1  0.89198000  0.92160000  0.97692000  1.0 0.110003202
H  H229  1  0.60199000  0.87379000  0.99227000  1.0 0.110003202
H  H230  1  0.83637000  0.11233000  0.02606000  1.0 0.0787924966
H  H231  1  0.74590000  0.03500000  0.00383000  1.0 0.0646395432
H  H232  1  0.63396000  0.04368000  0.14734000  1.0 0.1004838809
H  H233  1  0.72148000  0.11739000  0.16851000  1.0 0.110003202
H  H234  1  0.69794000  0.20045000  0.92408000  1.0 0.110003202
H  H235  1  0.68627000  0.13541000  0.92929000  1.0 0.1284888038
H  H236  1  0.60520000  0.17364000  0.91832000  1.0 0.1398709202
H  H237  1  0.58345000  0.14186000  0.05459000  1.0 0.1004838809
H  H238  1  0.76934000  0.08930000  0.17266000  1.0 0.110003202
H  H239  1  0.68009000  0.01651000  0.14958000  1.0 0.1004838809
H  H240  1  0.77887000  0.14379000  0.02190000  1.0 0.070020758
H  H241  1  0.68561000  0.06829000  0.99827000  1.0 0.0787924966
H  H242  1  0.88098000  0.87389000  0.01834000  1.0 0.110003202
H  H243  1  0.78226000  0.93152000  0.06289000  1.0 0.1004838809
H  H244  1  0.60526000  0.91865000  0.95309000  1.0 0.1004838809
H  H245  1  0.69454000  0.86077000  0.90420000  1.0 0.1284888038
H  H246  1  0.72027000  0.24373000  0.99752000  1.0 0.1284888038
H  H247  1  0.64242000  0.24482000  0.03771000  1.0 0.121013604
H  H248  1  0.72350000  0.20665000  0.04877000  1.0 0.0909322925
C  C1  1  0.05970000  0.36560000  0.30440000  1.0 0.0063216619
C  C2  1  0.08530000  0.43460000  0.39080000  1.0 -0.0497959584
C  C3  1  0.03770000  0.32730000  0.25660000  1.0 0.5808945792
C  C4  1  0.18680000  0.43050000  0.48660000  1.0 -0.0286319014
C  C5  1  0.29670000  0.36050000  0.54600000  1.0 -0.0286319014
C  C6  1  0.00270000  0.42290000  0.37570000  1.0 -0.1215959592
C  C7  1  0.28390000  0.62230000  0.39760000  1.0 -0.0191782306
C  C8  1  0.35580000  0.32410000  0.57730000  1.0 0.5721852826
C  C9  1  0.34490000  0.67220000  0.38450000  1.0 0.5554731982
C  C10  1  0.98940000  0.38850000  0.33280000  1.0 -0.0806772718
C  C11  1  0.27040000  0.79740000  0.21970000  1.0 0.1004838809
C  C12  1  0.17260000  0.53340000  0.42780000  1.0 -0.0286319014
C  C13  1  0.06270000  0.70220000  0.03550000  1.0 0.0430739568
C  C14  1  0.21180000  0.79930000  0.17930000  1.0 -0.1891409671
C  C15  1  0.14230000  0.37790000  0.31950000  1.0 -0.0700334879
C  C16  1  0.15520000  0.41270000  0.36320000  1.0 -0.161314458
C  C17  1  0.10270000  0.70170000  0.08380000  1.0 -0.1891409671
C  C18  1  0.27150000  0.44320000  0.49150000  1.0 -0.0806772718
C  C19  1  0.21260000  0.34920000  0.54000000  1.0 -0.0421446649
C  C20  1  0.33370000  0.41150000  0.52040000  1.0 -0.0286319014
C  C21  1  0.16040000  0.38360000  0.51090000  1.0 -0.0497959584
C  C22  1  0.29520000  0.59850000  0.45030000  1.0 -0.0286319014
C  C23  1  0.23910000  0.55270000  0.46360000  1.0 -0.0421446649
C  C24  1  0.17200000  0.55750000  0.37820000  1.0 -0.0497959584
C  C25  1  0.22630000  0.60170000  0.36510000  1.0 -0.0020625168
C  C26  1  0.09360000  0.63910000  0.48170000  1.0 0.2101858901
C  C27  1  0.16010000  0.67120000  0.56360000  1.0 -0.3638869962
C  C28  1  0.18630000  0.72170000  0.47830000  1.0 -0.2247850401
C  C29  1  0.25340000  0.58540000  0.36270000  1.0 0.0022755507
C  C30  1  0.19900000  0.54120000  0.37650000  1.0 -0.0497959584
C  C31  1  0.25930000  0.61820000  0.45300000  1.0 -0.0421446649
C  C32  1  0.20290000  0.57260000  0.46670000  1.0 -0.0421446649
C  C33  1  0.32640000  0.38210000  0.49570000  1.0 -0.0582402768
C  C34  1  0.26540000  0.41680000  0.46960000  1.0 -0.0700334879
C  C35  1  0.16020000  0.40960000  0.53410000  1.0 -0.0582402768
C  C36  1  0.21420000  0.37480000  0.56360000  1.0 0.0022755507
C  C37  1  0.55970000  0.63440000  0.19560000  1.0 0.0063216619
C  C38  1  0.58530000  0.56540000  0.10920000  1.0 -0.0497959584
C  C39  1  0.53770000  0.67270000  0.24340000  1.0 0.5808945792
C  C40  1  0.68680000  0.56950000  0.01340000  1.0 -0.0286319014
C  C41  1  0.79670000  0.63950000  0.95400000  1.0 -0.0286319014
C  C42  1  0.50270000  0.57710000  0.12430000  1.0 -0.1215959592
C  C43  1  0.78390000  0.37770000  0.10240000  1.0 -0.0191782306
C  C44  1  0.85580000  0.67590000  0.92270000  1.0 0.5721852826
C  C45  1  0.84490000  0.32780000  0.11550000  1.0 0.5554731982
C  C46  1  0.48940000  0.61150000  0.16720000  1.0 -0.0806772718
C  C47  1  0.77040000  0.20260000  0.28030000  1.0 0.1004838809
C  C48  1  0.67260000  0.46660000  0.07220000  1.0 -0.0286319014
C  C49  1  0.56270000  0.29780000  0.46450000  1.0 0.0430739568
C  C50  1  0.71180000  0.20070000  0.32070000  1.0 -0.1891409671
C  C51  1  0.64230000  0.62210000  0.18050000  1.0 -0.0700334879
C  C52  1  0.65520000  0.58730000  0.13680000  1.0 -0.161314458
C  C53  1  0.60270000  0.29830000  0.41620000  1.0 -0.1891409671
C  C54  1  0.77150000  0.55680000  0.00850000  1.0 -0.0806772718
C  C55  1  0.71260000  0.65080000  0.96000000  1.0 -0.0421446649
C  C56  1  0.83370000  0.58850000  0.97960000  1.0 -0.0286319014
C  C57  1  0.66040000  0.61640000  0.98910000  1.0 -0.0497959584
C  C58  1  0.79520000  0.40150000  0.04970000  1.0 -0.0286319014
C  C59  1  0.73910000  0.44730000  0.03640000  1.0 -0.0421446649
C  C60  1  0.67200000  0.44250000  0.12180000  1.0 -0.0497959584
C  C61  1  0.72630000  0.39830000  0.13490000  1.0 -0.0020625168
C  C62  1  0.59360000  0.36090000  0.01830000  1.0 0.2101858901
C  C63  1  0.66010000  0.32880000  0.93640000  1.0 -0.3638869962
C  C64  1  0.68630000  0.27830000  0.02170000  1.0 -0.2247850401
C  C65  1  0.75340000  0.41460000  0.13730000  1.0 0.0022755507
C  C66  1  0.69900000  0.45880000  0.12350000  1.0 -0.0497959584
C  C67  1  0.75930000  0.38180000  0.04700000  1.0 -0.0421446649
C  C68  1  0.70290000  0.42740000  0.03330000  1.0 -0.0421446649
C  C69  1  0.82640000  0.61790000  0.00430000  1.0 -0.0582402768
C  C70  1  0.76540000  0.58320000  0.03040000  1.0 -0.0700334879
C  C71  1  0.66020000  0.59040000  0.96590000  1.0 -0.0582402768
C  C72  1  0.71420000  0.62520000  0.93640000  1.0 0.0022755507
C  C73  1  0.94030000  0.86560000  0.69560000  1.0 0.0063216619
C  C74  1  0.91470000  0.93460000  0.60920000  1.0 -0.0497959584
C  C75  1  0.96230000  0.82730000  0.74340000  1.0 0.5808945792
C  C76  1  0.81320000  0.93050000  0.51340000  1.0 -0.0286319014
C  C77  1  0.70330000  0.86050000  0.45400000  1.0 -0.0286319014
C  C78  1  0.99730000  0.92290000  0.62430000  1.0 -0.1215959592
C  C79  1  0.71610000  0.12230000  0.60240000  1.0 -0.0191782306
C  C80  1  0.64420000  0.82410000  0.42270000  1.0 0.5721852826
C  C81  1  0.65510000  0.17220000  0.61550000  1.0 0.5554731982
C  C82  1  0.01060000  0.88850000  0.66720000  1.0 -0.0806772718
C  C83  1  0.72960000  0.29740000  0.78030000  1.0 0.1004838809
C  C84  1  0.82740000  0.03340000  0.57220000  1.0 -0.0286319014
C  C85  1  0.93730000  0.20220000  0.96450000  1.0 0.0430739568
C  C86  1  0.78820000  0.29930000  0.82070000  1.0 -0.1891409671
C  C87  1  0.85770000  0.87790000  0.68050000  1.0 -0.0700334879
C  C88  1  0.84480000  0.91270000  0.63680000  1.0 -0.161314458
C  C89  1  0.89730000  0.20170000  0.91620000  1.0 -0.1891409671
C  C90  1  0.72850000  0.94320000  0.50850000  1.0 -0.0806772718
C  C91  1  0.78740000  0.84920000  0.46000000  1.0 -0.0421446649
C  C92  1  0.66630000  0.91150000  0.47960000  1.0 -0.0286319014
C  C93  1  0.83960000  0.88360000  0.48910000  1.0 -0.0497959584
C  C94  1  0.70480000  0.09850000  0.54970000  1.0 -0.0286319014
C  C95  1  0.76090000  0.05270000  0.53640000  1.0 -0.0421446649
C  C96  1  0.82800000  0.05750000  0.62180000  1.0 -0.0497959584
C  C97  1  0.77370000  0.10170000  0.63490000  1.0 -0.0020625168
C  C98  1  0.90640000  0.13910000  0.51830000  1.0 0.2101858901
C  C99  1  0.83990000  0.17120000  0.43640000  1.0 -0.3638869962
C  C100  1  0.81370000  0.22170000  0.52170000  1.0 -0.2247850401
C  C101  1  0.74660000  0.08540000  0.63730000  1.0 0.0022755507
C  C102  1  0.80100000  0.04120000  0.62350000  1.0 -0.0497959584
C  C103  1  0.74070000  0.11820000  0.54700000  1.0 -0.0421446649
C  C104  1  0.79710000  0.07260000  0.53330000  1.0 -0.0421446649
C  C105  1  0.67360000  0.88210000  0.50430000  1.0 -0.0582402768
C  C106  1  0.73460000  0.91680000  0.53040000  1.0 -0.0700334879
C  C107  1  0.83980000  0.90960000  0.46590000  1.0 -0.0582402768
C  C108  1  0.78580000  0.87480000  0.43640000  1.0 0.0022755507
C  C109  1  0.44030000  0.13440000  0.80440000  1.0 0.0063216619
C  C110  1  0.41470000  0.06540000  0.89080000  1.0 -0.0497959584
C  C111  1  0.46230000  0.17270000  0.75660000  1.0 0.5808945792
C  C112  1  0.31320000  0.06950000  0.98660000  1.0 -0.0286319014
C  C113  1  0.20330000  0.13950000  0.04600000  1.0 -0.0286319014
C  C114  1  0.49730000  0.07710000  0.87570000  1.0 -0.1215959592
C  C115  1  0.21610000  0.87770000  0.89760000  1.0 -0.0191782306
C  C116  1  0.14420000  0.17590000  0.07730000  1.0 0.5721852826
C  C117  1  0.15510000  0.82780000  0.88450000  1.0 0.5554731982
C  C118  1  0.51060000  0.11150000  0.83280000  1.0 -0.0806772718
C  C119  1  0.22960000  0.70260000  0.71970000  1.0 0.1004838809
C  C120  1  0.32740000  0.96660000  0.92780000  1.0 -0.0286319014
C  C121  1  0.43730000  0.79780000  0.53550000  1.0 0.0430739568
C  C122  1  0.28820000  0.70070000  0.67930000  1.0 -0.1891409671
C  C123  1  0.35770000  0.12210000  0.81950000  1.0 -0.0700334879
C  C124  1  0.34480000  0.08730000  0.86320000  1.0 -0.161314458
C  C125  1  0.39730000  0.79830000  0.58380000  1.0 -0.1891409671
C  C126  1  0.22850000  0.05680000  0.99150000  1.0 -0.0806772718
C  C127  1  0.28740000  0.15080000  0.04000000  1.0 -0.0421446649
C  C128  1  0.16630000  0.08850000  0.02040000  1.0 -0.0286319014
C  C129  1  0.33960000  0.11640000  0.01090000  1.0 -0.0497959584
C  C130  1  0.20480000  0.90150000  0.95030000  1.0 -0.0286319014
C  C131  1  0.26090000  0.94730000  0.96360000  1.0 -0.0421446649
C  C132  1  0.32800000  0.94250000  0.87820000  1.0 -0.0497959584
C  C133  1  0.27370000  0.89830000  0.86510000  1.0 -0.0020625168
C  C134  1  0.40640000  0.86090000  0.98170000  1.0 0.2101858901
C  C135  1  0.33990000  0.82880000  0.06360000  1.0 -0.3638869962
C  C136  1  0.31370000  0.77830000  0.97830000  1.0 -0.2266388713
C  C137  1  0.24660000  0.91460000  0.86270000  1.0 0.0022755507
C  C138  1  0.30100000  0.95880000  0.87650000  1.0 -0.0497959584
C  C139  1  0.24070000  0.88180000  0.95300000  1.0 -0.0421446649
C  C140  1  0.29710000  0.92740000  0.96670000  1.0 -0.0421446649
C  C141  1  0.17360000  0.11790000  0.99570000  1.0 -0.0582402768
C  C142  1  0.23460000  0.08320000  0.96960000  1.0 -0.0700334879
C  C143  1  0.33980000  0.09040000  0.03410000  1.0 -0.0582402768
C  C144  1  0.28580000  0.12520000  0.06360000  1.0 0.0022755507
C  C145  1  0.94030000  0.63440000  0.69560000  1.0 0.0063216619
C  C146  1  0.91470000  0.56540000  0.60920000  1.0 -0.0497959584
C  C147  1  0.96230000  0.67270000  0.74340000  1.0 0.5808945792
C  C148  1  0.81320000  0.56950000  0.51340000  1.0 -0.0286319014
C  C149  1  0.70330000  0.63950000  0.45400000  1.0 -0.0286319014
C  C150  1  0.99730000  0.57710000  0.62430000  1.0 -0.1215959592
C  C151  1  0.71610000  0.37770000  0.60240000  1.0 -0.0191782306
C  C152  1  0.64420000  0.67590000  0.42270000  1.0 0.5721852826
C  C153  1  0.65510000  0.32780000  0.61550000  1.0 0.5554731982
C  C154  1  0.01060000  0.61150000  0.66720000  1.0 -0.0806772718
C  C155  1  0.72960000  0.20260000  0.78030000  1.0 0.1004838809
C  C156  1  0.82740000  0.46660000  0.57220000  1.0 -0.0286319014
C  C157  1  0.93730000  0.29780000  0.96450000  1.0 0.0430739568
C  C158  1  0.78820000  0.20070000  0.82070000  1.0 -0.1891409671
C  C159  1  0.85770000  0.62210000  0.68050000  1.0 -0.0700334879
C  C160  1  0.84480000  0.58730000  0.63680000  1.0 -0.161314458
C  C161  1  0.89730000  0.29830000  0.91620000  1.0 -0.1891409671
C  C162  1  0.72850000  0.55680000  0.50850000  1.0 -0.0806772718
C  C163  1  0.78740000  0.65080000  0.46000000  1.0 -0.0421446649
C  C164  1  0.66630000  0.58850000  0.47960000  1.0 -0.0286319014
C  C165  1  0.83960000  0.61640000  0.48910000  1.0 -0.0497959584
C  C166  1  0.70480000  0.40150000  0.54970000  1.0 -0.0286319014
C  C167  1  0.76090000  0.44730000  0.53640000  1.0 -0.0421446649
C  C168  1  0.82800000  0.44250000  0.62180000  1.0 -0.0497959584
C  C169  1  0.77370000  0.39830000  0.63490000  1.0 -0.0020625168
C  C170  1  0.90640000  0.36090000  0.51830000  1.0 0.2101858901
C  C171  1  0.83990000  0.32880000  0.43640000  1.0 -0.3638869962
C  C172  1  0.81370000  0.27830000  0.52170000  1.0 -0.2247850401
C  C173  1  0.74660000  0.41460000  0.63730000  1.0 0.0022755507
C  C174  1  0.80100000  0.45880000  0.62350000  1.0 -0.0497959584
C  C175  1  0.74070000  0.38180000  0.54700000  1.0 -0.0421446649
C  C176  1  0.79710000  0.42740000  0.53330000  1.0 -0.0421446649
C  C177  1  0.67360000  0.61790000  0.50430000  1.0 -0.0582402768
C  C178  1  0.73460000  0.58320000  0.53040000  1.0 -0.0700334879
C  C179  1  0.83980000  0.59040000  0.46590000  1.0 -0.0582402768
C  C180  1  0.78580000  0.62520000  0.43640000  1.0 0.0022755507
C  C181  1  0.44030000  0.36560000  0.80440000  1.0 0.0063216619
C  C182  1  0.41470000  0.43460000  0.89080000  1.0 -0.0497959584
C  C183  1  0.46230000  0.32730000  0.75660000  1.0 0.5808945792
C  C184  1  0.31320000  0.43050000  0.98660000  1.0 -0.0286319014
C  C185  1  0.20330000  0.36050000  0.04600000  1.0 -0.0286319014
C  C186  1  0.49730000  0.42290000  0.87570000  1.0 -0.1215959592
C  C187  1  0.21610000  0.62230000  0.89760000  1.0 -0.0191782306
C  C188  1  0.14420000  0.32410000  0.07730000  1.0 0.5721852826
C  C189  1  0.15510000  0.67220000  0.88450000  1.0 0.5554731982
C  C190  1  0.51060000  0.38850000  0.83280000  1.0 -0.0806772718
C  C191  1  0.22960000  0.79740000  0.71970000  1.0 0.1004838809
C  C192  1  0.32740000  0.53340000  0.92780000  1.0 -0.0286319014
C  C193  1  0.43730000  0.70220000  0.53550000  1.0 0.0430739568
C  C194  1  0.28820000  0.79930000  0.67930000  1.0 -0.1891409671
C  C195  1  0.35770000  0.37790000  0.81950000  1.0 -0.0700334879
C  C196  1  0.34480000  0.41270000  0.86320000  1.0 -0.161314458
C  C197  1  0.39730000  0.70170000  0.58380000  1.0 -0.1891409671
C  C198  1  0.22850000  0.44320000  0.99150000  1.0 -0.0806772718
C  C199  1  0.28740000  0.34920000  0.04000000  1.0 -0.0421446649
C  C200  1  0.16630000  0.41150000  0.02040000  1.0 -0.0286319014
C  C201  1  0.33960000  0.38360000  0.01090000  1.0 -0.0497959584
C  C202  1  0.20480000  0.59850000  0.95030000  1.0 -0.0286319014
C  C203  1  0.26090000  0.55270000  0.96360000  1.0 -0.0421446649
C  C204  1  0.32800000  0.55750000  0.87820000  1.0 -0.0497959584
C  C205  1  0.27370000  0.60170000  0.86510000  1.0 -0.0020625168
C  C206  1  0.40640000  0.63910000  0.98170000  1.0 0.2101858901
C  C207  1  0.33990000  0.67120000  0.06360000  1.0 -0.3638869962
C  C208  1  0.31370000  0.72170000  0.97830000  1.0 -0.2266388713
C  C209  1  0.24660000  0.58540000  0.86270000  1.0 0.0022755507
C  C210  1  0.30100000  0.54120000  0.87650000  1.0 -0.0497959584
C  C211  1  0.24070000  0.61820000  0.95300000  1.0 -0.0421446649
C  C212  1  0.29710000  0.57260000  0.96670000  1.0 -0.0421446649
C  C213  1  0.17360000  0.38210000  0.99570000  1.0 -0.0582402768
C  C214  1  0.23460000  0.41680000  0.96960000  1.0 -0.0700334879
C  C215  1  0.33980000  0.40960000  0.03410000  1.0 -0.0582402768
C  C216  1  0.28580000  0.37480000  0.06360000  1.0 0.0022755507
C  C217  1  0.05970000  0.13440000  0.30440000  1.0 0.0063216619
C  C218  1  0.08530000  0.06540000  0.39080000  1.0 -0.0497959584
C  C219  1  0.03770000  0.17270000  0.25660000  1.0 0.5808945792
C  C220  1  0.18680000  0.06950000  0.48660000  1.0 -0.0286319014
C  C221  1  0.29670000  0.13950000  0.54600000  1.0 -0.0286319014
C  C222  1  0.00270000  0.07710000  0.37570000  1.0 -0.1215959592
C  C223  1  0.28390000  0.87770000  0.39760000  1.0 -0.0191782306
C  C224  1  0.35580000  0.17590000  0.57730000  1.0 0.5721852826
C  C225  1  0.34490000  0.82780000  0.38450000  1.0 0.5554731982
C  C226  1  0.98940000  0.11150000  0.33280000  1.0 -0.0806772718
C  C227  1  0.27040000  0.70260000  0.21970000  1.0 0.1004838809
C  C228  1  0.17260000  0.96660000  0.42780000  1.0 -0.0286319014
C  C229  1  0.06270000  0.79780000  0.03550000  1.0 0.0430739568
C  C230  1  0.21180000  0.70070000  0.17930000  1.0 -0.1891409671
C  C231  1  0.14230000  0.12210000  0.31950000  1.0 -0.0700334879
C  C232  1  0.15520000  0.08730000  0.36320000  1.0 -0.161314458
C  C233  1  0.10270000  0.79830000  0.08380000  1.0 -0.1891409671
C  C234  1  0.27150000  0.05680000  0.49150000  1.0 -0.0806772718
C  C235  1  0.21260000  0.15080000  0.54000000  1.0 -0.0421446649
C  C236  1  0.33370000  0.08850000  0.52040000  1.0 -0.0286319014
C  C237  1  0.16040000  0.11640000  0.51090000  1.0 -0.0497959584
C  C238  1  0.29520000  0.90150000  0.45030000  1.0 -0.0286319014
C  C239  1  0.23910000  0.94730000  0.46360000  1.0 -0.0421446649
C  C240  1  0.17200000  0.94250000  0.37820000  1.0 -0.0497959584
C  C241  1  0.22630000  0.89830000  0.36510000  1.0 -0.0020625168
C  C242  1  0.09360000  0.86090000  0.48170000  1.0 0.2101858901
C  C243  1  0.16010000  0.82880000  0.56360000  1.0 -0.3638869962
C  C244  1  0.18630000  0.77830000  0.47830000  1.0 -0.2247850401
C  C245  1  0.25340000  0.91460000  0.36270000  1.0 0.0022755507
C  C246  1  0.19900000  0.95880000  0.37650000  1.0 -0.0497959584
C  C247  1  0.25930000  0.88180000  0.45300000  1.0 -0.0421446649
C  C248  1  0.20290000  0.92740000  0.46670000  1.0 -0.0421446649
C  C249  1  0.32640000  0.11790000  0.49570000  1.0 -0.0582402768
C  C250  1  0.26540000  0.08320000  0.46960000  1.0 -0.0700334879
C  C251  1  0.16020000  0.09040000  0.53410000  1.0 -0.0582402768
C  C252  1  0.21420000  0.12520000  0.56360000  1.0 0.0022755507
C  C253  1  0.55970000  0.86560000  0.19560000  1.0 0.0063216619
C  C254  1  0.58530000  0.93460000  0.10920000  1.0 -0.0497959584
C  C255  1  0.53770000  0.82730000  0.24340000  1.0 0.5808945792
C  C256  1  0.68680000  0.93050000  0.01340000  1.0 -0.0286319014
C  C257  1  0.79670000  0.86050000  0.95400000  1.0 -0.0286319014
C  C258  1  0.50270000  0.92290000  0.12430000  1.0 -0.1215959592
C  C259  1  0.78390000  0.12230000  0.10240000  1.0 -0.0191782306
C  C260  1  0.85580000  0.82410000  0.92270000  1.0 0.5721852826
C  C261  1  0.84490000  0.17220000  0.11550000  1.0 0.5554731982
C  C262  1  0.48940000  0.88850000  0.16720000  1.0 -0.0806772718
C  C263  1  0.77040000  0.29740000  0.28030000  1.0 0.1004838809
C  C264  1  0.67260000  0.03340000  0.07220000  1.0 -0.0286319014
C  C265  1  0.56270000  0.20220000  0.46450000  1.0 0.0430739568
C  C266  1  0.71180000  0.29930000  0.32070000  1.0 -0.1891409671
C  C267  1  0.64230000  0.87790000  0.18050000  1.0 -0.0700334879
C  C268  1  0.65520000  0.91270000  0.13680000  1.0 -0.161314458
C  C269  1  0.60270000  0.20170000  0.41620000  1.0 -0.1891409671
C  C270  1  0.77150000  0.94320000  0.00850000  1.0 -0.0806772718
C  C271  1  0.71260000  0.84920000  0.96000000  1.0 -0.0421446649
C  C272  1  0.83370000  0.91150000  0.97960000  1.0 -0.0286319014
C  C273  1  0.66040000  0.88360000  0.98910000  1.0 -0.0497959584
C  C274  1  0.79520000  0.09850000  0.04970000  1.0 -0.0286319014
C  C275  1  0.73910000  0.05270000  0.03640000  1.0 -0.0421446649
C  C276  1  0.67200000  0.05750000  0.12180000  1.0 -0.0497959584
C  C277  1  0.72630000  0.10170000  0.13490000  1.0 -0.0020625168
C  C278  1  0.59360000  0.13910000  0.01830000  1.0 0.2101858901
C  C279  1  0.66010000  0.17120000  0.93640000  1.0 -0.3638869962
C  C280  1  0.68630000  0.22170000  0.02170000  1.0 -0.2247850401
C  C281  1  0.75340000  0.08540000  0.13730000  1.0 0.0022755507
C  C282  1  0.69900000  0.04120000  0.12350000  1.0 -0.0497959584
C  C283  1  0.75930000  0.11820000  0.04700000  1.0 -0.0421446649
C  C284  1  0.70290000  0.07260000  0.03330000  1.0 -0.0421446649
C  C285  1  0.82640000  0.88210000  0.00430000  1.0 -0.0582402768
C  C286  1  0.76540000  0.91680000  0.03040000  1.0 -0.0700334879
C  C287  1  0.66020000  0.90960000  0.96590000  1.0 -0.0582402768
C  C288  1  0.71420000  0.87480000  0.93640000  1.0 0.0022755507
C  C289  1  0.13010000  0.75000000  0.10900000  1.0 0.110003202
C  C290  1  0.18470000  0.75000000  0.15650000  1.0 0.0909322925
C  C291  1  0.63010000  0.25000000  0.39100000  1.0 0.110003202
C  C292  1  0.68470000  0.25000000  0.34350000  1.0 0.0909322925
C  C293  1  0.86990000  0.25000000  0.89100000  1.0 0.110003202
C  C294  1  0.81530000  0.25000000  0.84350000  1.0 0.0909322925
C  C295  1  0.36990000  0.75000000  0.60900000  1.0 0.110003202
C  C296  1  0.31530000  0.75000000  0.65650000  1.0 0.0909322925
N  N1  1  0.14610000  0.67740000  0.50600000  1.0 -0.1289877174
N  N2  1  0.64610000  0.32260000  0.99400000  1.0 -0.1289877174
N  N3  1  0.85390000  0.17740000  0.49400000  1.0 -0.1289877174
N  N4  1  0.35390000  0.82260000  0.00600000  1.0 -0.1289877174
N  N5  1  0.85390000  0.32260000  0.49400000  1.0 -0.1289877174
N  N6  1  0.35390000  0.67740000  0.00600000  1.0 -0.1289877174
N  N7  1  0.14610000  0.82260000  0.50600000  1.0 -0.1289877174
N  N8  1  0.64610000  0.17740000  0.99400000  1.0 -0.1289877174
N  N9  1  0.04130000  0.75000000  0.00950000  1.0 -0.3222375317
N  N10  1  0.30060000  0.75000000  0.24200000  1.0 -0.1815903662
N  N11  1  0.54130000  0.25000000  0.49050000  1.0 -0.3222375317
N  N12  1  0.80060000  0.25000000  0.25800000  1.0 -0.1815903662
N  N13  1  0.95870000  0.25000000  0.99050000  1.0 -0.3222375317
N  N14  1  0.69940000  0.25000000  0.75800000  1.0 -0.1815903662
N  N15  1  0.45870000  0.75000000  0.50950000  1.0 -0.3222375317
N  N16  1  0.19940000  0.75000000  0.74200000  1.0 -0.1815903662
O  O1  1  0.96410000  0.31220000  0.24930000  1.0 -0.5008407695
O  O2  1  0.10720000  0.31230000  0.23160000  1.0 -0.551591984
O  O3  1  0.32700000  0.30700000  0.62100000  1.0 -0.5435400931
O  O4  1  0.43760000  0.32160000  0.56210000  1.0 -0.2266388713
O  O5  1  0.37670000  0.69690000  0.42300000  1.0 -0.1891409671
O  O6  1  0.34400000  0.68500000  0.33720000  1.0 -0.551591984
O  O7  1  0.05950000  0.60090000  0.50730000  1.0 -0.3473522617
O  O8  1  0.33800000  0.68800000  0.33840000  1.0 -0.551591984
O  O9  1  0.40960000  0.68020000  0.41700000  1.0 -0.1815903662
O  O10  1  0.33400000  0.31100000  0.62400000  1.0 -0.551591984
O  O11  1  0.40860000  0.29450000  0.55260000  1.0 -0.161314458
O  O12  1  0.46410000  0.68780000  0.25070000  1.0 -0.5008407695
O  O13  1  0.60720000  0.68770000  0.26840000  1.0 -0.551591984
O  O14  1  0.82700000  0.69300000  0.87900000  1.0 -0.5435400931
O  O15  1  0.93760000  0.67840000  0.93790000  1.0 -0.2266388713
O  O16  1  0.87670000  0.30310000  0.07700000  1.0 -0.1891409671
O  O17  1  0.84400000  0.31500000  0.16280000  1.0 -0.551591984
O  O18  1  0.55950000  0.39910000  0.99270000  1.0 -0.3473522617
O  O19  1  0.83800000  0.31200000  0.16160000  1.0 -0.551591984
O  O20  1  0.90960000  0.31980000  0.08300000  1.0 -0.1815903662
O  O21  1  0.83400000  0.68900000  0.87600000  1.0 -0.551591984
O  O22  1  0.90860000  0.70550000  0.94740000  1.0 -0.1658120407
O  O23  1  0.03590000  0.81220000  0.75070000  1.0 -0.5008407695
O  O24  1  0.89280000  0.81230000  0.76840000  1.0 -0.551591984
O  O25  1  0.67300000  0.80700000  0.37900000  1.0 -0.5435400931
O  O26  1  0.56240000  0.82160000  0.43790000  1.0 -0.2266388713
O  O27  1  0.62330000  0.19690000  0.57700000  1.0 -0.1891409671
O  O28  1  0.65600000  0.18500000  0.66280000  1.0 -0.551591984
O  O29  1  0.94050000  0.10090000  0.49270000  1.0 -0.3473522617
O  O30  1  0.66200000  0.18800000  0.66160000  1.0 -0.551591984
O  O31  1  0.59040000  0.18020000  0.58300000  1.0 -0.1815903662
O  O32  1  0.66600000  0.81100000  0.37600000  1.0 -0.551591984
O  O33  1  0.59140000  0.79450000  0.44740000  1.0 -0.1658120407
O  O34  1  0.53590000  0.18780000  0.74930000  1.0 -0.5008407695
O  O35  1  0.39280000  0.18770000  0.73160000  1.0 -0.551591984
O  O36  1  0.17300000  0.19300000  0.12100000  1.0 -0.5435400931
O  O37  1  0.06240000  0.17840000  0.06210000  1.0 -0.2266388713
O  O38  1  0.12330000  0.80310000  0.92300000  1.0 -0.1891409671
O  O39  1  0.15600000  0.81500000  0.83720000  1.0 -0.551591984
O  O40  1  0.44050000  0.89910000  0.00730000  1.0 -0.3473522617
O  O41  1  0.16200000  0.81200000  0.83840000  1.0 -0.551591984
O  O42  1  0.09040000  0.81980000  0.91700000  1.0 -0.1815903662
O  O43  1  0.16600000  0.18900000  0.12400000  1.0 -0.551591984
O  O44  1  0.09140000  0.20550000  0.05260000  1.0 -0.161314458
O  O45  1  0.03590000  0.68780000  0.75070000  1.0 -0.5008407695
O  O46  1  0.89280000  0.68770000  0.76840000  1.0 -0.551591984
O  O47  1  0.67300000  0.69300000  0.37900000  1.0 -0.5435400931
O  O48  1  0.56240000  0.67840000  0.43790000  1.0 -0.2266388713
O  O49  1  0.62330000  0.30310000  0.57700000  1.0 -0.1891409671
O  O50  1  0.65600000  0.31500000  0.66280000  1.0 -0.551591984
O  O51  1  0.94050000  0.39910000  0.49270000  1.0 -0.3473522617
O  O52  1  0.66200000  0.31200000  0.66160000  1.0 -0.551591984
O  O53  1  0.59040000  0.31980000  0.58300000  1.0 -0.1815903662
O  O54  1  0.66600000  0.68900000  0.37600000  1.0 -0.551591984
O  O55  1  0.59140000  0.70550000  0.44740000  1.0 -0.1658120407
O  O56  1  0.53590000  0.31220000  0.74930000  1.0 -0.5008407695
O  O57  1  0.39280000  0.31230000  0.73160000  1.0 -0.551591984
O  O58  1  0.17300000  0.30700000  0.12100000  1.0 -0.5435400931
O  O59  1  0.06240000  0.32160000  0.06210000  1.0 -0.2266388713
O  O60  1  0.12330000  0.69690000  0.92300000  1.0 -0.1891409671
O  O61  1  0.15600000  0.68500000  0.83720000  1.0 -0.551591984
O  O62  1  0.44050000  0.60090000  0.00730000  1.0 -0.3473522617
O  O63  1  0.16200000  0.68800000  0.83840000  1.0 -0.551591984
O  O64  1  0.09040000  0.68020000  0.91700000  1.0 -0.1815903662
O  O65  1  0.16600000  0.31100000  0.12400000  1.0 -0.551591984
O  O66  1  0.09140000  0.29450000  0.05260000  1.0 -0.161314458
O  O67  1  0.96410000  0.18780000  0.24930000  1.0 -0.5008407695
O  O68  1  0.10720000  0.18770000  0.23160000  1.0 -0.551591984
O  O69  1  0.32700000  0.19300000  0.62100000  1.0 -0.5435400931
O  O70  1  0.43760000  0.17840000  0.56210000  1.0 -0.2266388713
O  O71  1  0.37670000  0.80310000  0.42300000  1.0 -0.1891409671
O  O72  1  0.34400000  0.81500000  0.33720000  1.0 -0.551591984
O  O73  1  0.05950000  0.89910000  0.50730000  1.0 -0.3473522617
O  O74  1  0.33800000  0.81200000  0.33840000  1.0 -0.551591984
O  O75  1  0.40960000  0.81980000  0.41700000  1.0 -0.1815903662
O  O76  1  0.33400000  0.18900000  0.62400000  1.0 -0.551591984
O  O77  1  0.40860000  0.20550000  0.55260000  1.0 -0.161314458
O  O78  1  0.46410000  0.81220000  0.25070000  1.0 -0.5008407695
O  O79  1  0.60720000  0.81230000  0.26840000  1.0 -0.551591984
O  O80  1  0.82700000  0.80700000  0.87900000  1.0 -0.5435400931
O  O81  1  0.93760000  0.82160000  0.93790000  1.0 -0.2266388713
O  O82  1  0.87670000  0.19690000  0.07700000  1.0 -0.1891409671
O  O83  1  0.84400000  0.18500000  0.16280000  1.0 -0.551591984
O  O84  1  0.55950000  0.10090000  0.99270000  1.0 -0.3473522617
O  O85  1  0.83800000  0.18800000  0.16160000  1.0 -0.551591984
O  O86  1  0.90960000  0.18020000  0.08300000  1.0 -0.1815903662
O  O87  1  0.83400000  0.81100000  0.87600000  1.0 -0.551591984
O  O88  1  0.90860000  0.79450000  0.94740000  1.0 -0.1658120407
F  F1  1  0.50410000  0.75000000  0.34790000  1.0 -0.5008407695
F  F2  1  0.00410000  0.25000000  0.15210000  1.0 -0.5051772101
F  F3  1  0.49590000  0.25000000  0.65210000  1.0 -0.5051772101
F  F4  1  0.99590000  0.75000000  0.84790000  1.0 -0.5008407695
