# DDEC6 charges by PACMAN v1.1 (https://github.com/mtap-research/PACMAN-charge/)
data_ABEDEU_ASR_pacman
_symmetry_space_group_name_H-M   'P 1'
_cell_length_a   15.42120000
_cell_length_b   24.07620000
_cell_length_c   25.13480000
_cell_angle_alpha   90.00000000
_cell_angle_beta   90.00000000
_cell_angle_gamma   90.00000000
_symmetry_Int_Tables_number   1
_chemical_formula_structural   Co3P2H32AuC52N2O12F
_chemical_formula_sum   'Co12 P8 H128 Au4 C208 N8 O48 F4'
_cell_volume   9332.14645511
_cell_formula_units_Z   4
loop_
 _symmetry_equiv_pos_site_id
 _symmetry_equiv_pos_as_xyz
  1  'x, y, z'
loop_
 _atom_site_type_symbol
 _atom_site_label
 _atom_site_symmetry_multiplicity
 _atom_site_fract_x
 _atom_site_fract_y
 _atom_site_fract_z
 _atom_site_occupancy
 _atom_site_charge
Co  Co1  1  0.59000000  0.75000000  0.29611000  1.0 1.0153482116
Co  Co2  1  0.36406000  0.75000000  0.32283000  1.0 1.0990422821
Co  Co3  1  0.09000000  0.25000000  0.20389000  1.0 1.0139462308
Co  Co4  1  0.86406000  0.25000000  0.17717000  1.0 1.0990422821
Co  Co5  1  0.41000000  0.25000000  0.70389000  1.0 1.0139462308
Co  Co6  1  0.63594000  0.25000000  0.67717000  1.0 1.0990422821
Co  Co7  1  0.91000000  0.75000000  0.79611000  1.0 1.0139462308
Co  Co8  1  0.13594000  0.75000000  0.82283000  1.0 1.0990422821
Co  Co9  1  0.48598000  0.25000000  0.57295000  1.0 1.0004857338
Co  Co10  1  0.98598000  0.75000000  0.92705000  1.0 1.0004857338
Co  Co11  1  0.51402000  0.75000000  0.42705000  1.0 1.0004857338
Co  Co12  1  0.01402000  0.25000000  0.07295000  1.0 1.0004857338
P  P1  1  0.11808000  0.52439000  0.55079000  1.0 0.3519836
P  P2  1  0.61808000  0.47561000  0.94921000  1.0 0.3519836
P  P3  1  0.88192000  0.02439000  0.44921000  1.0 0.3519836
P  P4  1  0.38192000  0.97561000  0.05079000  1.0 0.3519836
P  P5  1  0.88192000  0.47561000  0.44921000  1.0 0.3519836
P  P6  1  0.38192000  0.52439000  0.05079000  1.0 0.3519836
P  P7  1  0.11808000  0.97561000  0.55079000  1.0 0.3519836
P  P8  1  0.61808000  0.02439000  0.94921000  1.0 0.3519836
H  H1  1  0.88155000  0.83420000  0.09877000  1.0 0.1207438634
H  H2  1  0.95346000  0.83189000  0.01852000  1.0 0.1101251748
H  H3  1  0.96497000  0.56539000  0.60221000  1.0 0.1207438634
H  H4  1  0.93970000  0.62478000  0.67347000  1.0 0.1207438634
H  H5  1  0.24042000  0.39316000  0.67526000  1.0 0.1207438634
H  H6  1  0.80256000  0.83403000  0.16537000  1.0 0.1207438634
H  H7  1  0.70086000  0.83148000  0.23342000  1.0 0.1101251748
H  H8  1  0.21618000  0.44458000  0.49908000  1.0 0.1207438634
H  H9  1  0.30621000  0.37140000  0.52265000  1.0 0.1101251748
H  H10  1  0.15600000  0.46981000  0.64971000  1.0 0.1207438634
H  H11  1  0.18943000  0.63691000  0.70232000  1.0 0.1283419874
H  H12  1  0.30339000  0.54352000  0.54541000  1.0 0.1207438634
H  H13  1  0.38973000  0.60946000  0.50178000  1.0 0.1207438634
H  H14  1  0.18645000  0.65830000  0.41663000  1.0 0.1283419874
H  H15  1  0.21822000  0.57509000  0.63193000  1.0 0.1207438634
H  H16  1  0.09698000  0.60111000  0.46788000  1.0 0.1207438634
H  H17  1  0.38155000  0.16580000  0.40123000  1.0 0.1207438634
H  H18  1  0.45346000  0.16811000  0.48148000  1.0 0.1101251748
H  H19  1  0.46497000  0.43461000  0.89779000  1.0 0.1207438634
H  H20  1  0.43970000  0.37522000  0.82653000  1.0 0.1207438634
H  H21  1  0.74042000  0.60684000  0.82474000  1.0 0.1207438634
H  H22  1  0.30256000  0.16597000  0.33463000  1.0 0.1207438634
H  H23  1  0.20086000  0.16852000  0.26658000  1.0 0.1101251748
H  H24  1  0.71618000  0.55542000  0.00092000  1.0 0.1207438634
H  H25  1  0.80621000  0.62860000  0.97735000  1.0 0.1101251748
H  H26  1  0.65600000  0.53019000  0.85029000  1.0 0.1207438634
H  H27  1  0.68943000  0.36309000  0.79768000  1.0 0.1283419874
H  H28  1  0.80339000  0.45648000  0.95459000  1.0 0.1207438634
H  H29  1  0.88973000  0.39054000  0.99822000  1.0 0.1207438634
H  H30  1  0.68645000  0.34170000  0.08337000  1.0 0.1283419874
H  H31  1  0.71822000  0.42491000  0.86807000  1.0 0.1207438634
H  H32  1  0.59698000  0.39889000  0.03212000  1.0 0.1207438634
H  H33  1  0.11845000  0.33420000  0.90123000  1.0 0.1207438634
H  H34  1  0.04654000  0.33189000  0.98148000  1.0 0.1101251748
H  H35  1  0.03503000  0.06539000  0.39779000  1.0 0.1207438634
H  H36  1  0.06030000  0.12478000  0.32653000  1.0 0.1207438634
H  H37  1  0.75958000  0.89316000  0.32474000  1.0 0.1207438634
H  H38  1  0.19744000  0.33403000  0.83463000  1.0 0.1207438634
H  H39  1  0.29914000  0.33148000  0.76658000  1.0 0.1101251748
H  H40  1  0.78382000  0.94458000  0.50092000  1.0 0.1207438634
H  H41  1  0.69379000  0.87140000  0.47735000  1.0 0.1101251748
H  H42  1  0.84400000  0.96981000  0.35029000  1.0 0.1207438634
H  H43  1  0.81057000  0.13691000  0.29768000  1.0 0.1283419874
H  H44  1  0.69661000  0.04352000  0.45459000  1.0 0.1207438634
H  H45  1  0.61027000  0.10946000  0.49822000  1.0 0.1207438634
H  H46  1  0.81355000  0.15830000  0.58337000  1.0 0.1283419874
H  H47  1  0.78178000  0.07509000  0.36807000  1.0 0.1207438634
H  H48  1  0.90302000  0.10111000  0.53212000  1.0 0.1207438634
H  H49  1  0.61845000  0.66580000  0.59877000  1.0 0.1207438634
H  H50  1  0.54654000  0.66811000  0.51852000  1.0 0.1101251748
H  H51  1  0.53503000  0.93461000  0.10221000  1.0 0.1207438634
H  H52  1  0.56030000  0.87522000  0.17347000  1.0 0.1207438634
H  H53  1  0.25958000  0.10684000  0.17526000  1.0 0.1207438634
H  H54  1  0.69744000  0.66597000  0.66537000  1.0 0.1207438634
H  H55  1  0.79914000  0.66852000  0.73342000  1.0 0.1101251748
H  H56  1  0.28382000  0.05542000  0.99908000  1.0 0.1207438634
H  H57  1  0.19379000  0.12860000  0.02265000  1.0 0.1101251748
H  H58  1  0.34400000  0.03019000  0.14971000  1.0 0.1207438634
H  H59  1  0.31057000  0.86309000  0.20232000  1.0 0.1283419874
H  H60  1  0.19661000  0.95648000  0.04541000  1.0 0.1207438634
H  H61  1  0.11027000  0.89054000  0.00178000  1.0 0.1207438634
H  H62  1  0.31355000  0.84170000  0.91663000  1.0 0.1283419874
H  H63  1  0.28178000  0.92491000  0.13193000  1.0 0.1207438634
H  H64  1  0.40302000  0.89889000  0.96788000  1.0 0.1207438634
H  H65  1  0.11845000  0.16580000  0.90123000  1.0 0.1207438634
H  H66  1  0.04654000  0.16811000  0.98148000  1.0 0.1101251748
H  H67  1  0.03503000  0.43461000  0.39779000  1.0 0.1207438634
H  H68  1  0.06030000  0.37522000  0.32653000  1.0 0.1207438634
H  H69  1  0.75958000  0.60684000  0.32474000  1.0 0.1207438634
H  H70  1  0.19744000  0.16597000  0.83463000  1.0 0.1207438634
H  H71  1  0.29914000  0.16852000  0.76658000  1.0 0.1101251748
H  H72  1  0.78382000  0.55542000  0.50092000  1.0 0.1207438634
H  H73  1  0.69379000  0.62860000  0.47735000  1.0 0.1101251748
H  H74  1  0.84400000  0.53019000  0.35029000  1.0 0.1207438634
H  H75  1  0.81057000  0.36309000  0.29768000  1.0 0.1283419874
H  H76  1  0.69661000  0.45648000  0.45459000  1.0 0.1207438634
H  H77  1  0.61027000  0.39054000  0.49822000  1.0 0.1207438634
H  H78  1  0.81355000  0.34170000  0.58337000  1.0 0.1283419874
H  H79  1  0.78178000  0.42491000  0.36807000  1.0 0.1207438634
H  H80  1  0.90302000  0.39889000  0.53212000  1.0 0.1207438634
H  H81  1  0.61845000  0.83420000  0.59877000  1.0 0.1207438634
H  H82  1  0.54654000  0.83189000  0.51852000  1.0 0.1101251748
H  H83  1  0.53503000  0.56539000  0.10221000  1.0 0.1207438634
H  H84  1  0.56030000  0.62478000  0.17347000  1.0 0.1207438634
H  H85  1  0.25958000  0.39316000  0.17526000  1.0 0.1207438634
H  H86  1  0.69744000  0.83403000  0.66537000  1.0 0.1207438634
H  H87  1  0.79914000  0.83148000  0.73342000  1.0 0.1101251748
H  H88  1  0.28382000  0.44458000  0.99908000  1.0 0.1207438634
H  H89  1  0.19379000  0.37140000  0.02265000  1.0 0.1101251748
H  H90  1  0.34400000  0.46981000  0.14971000  1.0 0.1207438634
H  H91  1  0.31057000  0.63691000  0.20232000  1.0 0.1283419874
H  H92  1  0.19661000  0.54352000  0.04541000  1.0 0.1207438634
H  H93  1  0.11027000  0.60946000  0.00178000  1.0 0.1207438634
H  H94  1  0.31355000  0.65830000  0.91663000  1.0 0.1283419874
H  H95  1  0.28178000  0.57509000  0.13193000  1.0 0.1207438634
H  H96  1  0.40302000  0.60111000  0.96788000  1.0 0.1207438634
H  H97  1  0.88155000  0.66580000  0.09877000  1.0 0.1207438634
H  H98  1  0.95346000  0.66811000  0.01852000  1.0 0.1101251748
H  H99  1  0.96497000  0.93461000  0.60221000  1.0 0.1207438634
H  H100  1  0.93970000  0.87522000  0.67347000  1.0 0.1207438634
H  H101  1  0.24042000  0.10684000  0.67526000  1.0 0.1207438634
H  H102  1  0.80256000  0.66597000  0.16537000  1.0 0.1207438634
H  H103  1  0.70086000  0.66852000  0.23342000  1.0 0.1101251748
H  H104  1  0.21618000  0.05542000  0.49908000  1.0 0.1207438634
H  H105  1  0.30621000  0.12860000  0.52265000  1.0 0.1101251748
H  H106  1  0.15600000  0.03019000  0.64971000  1.0 0.1207438634
H  H107  1  0.18943000  0.86309000  0.70232000  1.0 0.1283419874
H  H108  1  0.30339000  0.95648000  0.54541000  1.0 0.1207438634
H  H109  1  0.38973000  0.89054000  0.50178000  1.0 0.1207438634
H  H110  1  0.18645000  0.84170000  0.41663000  1.0 0.1283419874
H  H111  1  0.21822000  0.92491000  0.63193000  1.0 0.1207438634
H  H112  1  0.09698000  0.89889000  0.46788000  1.0 0.1207438634
H  H113  1  0.38155000  0.33420000  0.40123000  1.0 0.1207438634
H  H114  1  0.45346000  0.33189000  0.48148000  1.0 0.1101251748
H  H115  1  0.46497000  0.06539000  0.89779000  1.0 0.1207438634
H  H116  1  0.43970000  0.12478000  0.82653000  1.0 0.1207438634
H  H117  1  0.74042000  0.89316000  0.82474000  1.0 0.1207438634
H  H118  1  0.30256000  0.33403000  0.33463000  1.0 0.1207438634
H  H119  1  0.20086000  0.33148000  0.26658000  1.0 0.1101251748
H  H120  1  0.71618000  0.94458000  0.00092000  1.0 0.1207438634
H  H121  1  0.80621000  0.87140000  0.97735000  1.0 0.1101251748
H  H122  1  0.65600000  0.96981000  0.85029000  1.0 0.1207438634
H  H123  1  0.68943000  0.13691000  0.79768000  1.0 0.1283419874
H  H124  1  0.80339000  0.04352000  0.95459000  1.0 0.1207438634
H  H125  1  0.88973000  0.10946000  0.99822000  1.0 0.1207438634
H  H126  1  0.68645000  0.15830000  0.08337000  1.0 0.1283419874
H  H127  1  0.71822000  0.07509000  0.86807000  1.0 0.1207438634
H  H128  1  0.59698000  0.10111000  0.03212000  1.0 0.1207438634
Au  Au1  1  0.00000000  0.50000000  0.50000000  1.0 -0.378720253
Au  Au2  1  0.50000000  0.50000000  0.00000000  1.0 -0.378720253
Au  Au3  1  0.00000000  0.00000000  0.50000000  1.0 -0.378720253
Au  Au4  1  0.50000000  0.00000000  0.00000000  1.0 -0.378720253
C  C1  1  0.09340000  0.56570000  0.60990000  1.0 -0.0323922656
C  C2  1  0.34640000  0.32820000  0.61640000  1.0 0.5881249762
C  C3  1  0.18250000  0.46560000  0.57240000  1.0 -0.0383330638
C  C4  1  0.06120000  0.63540000  0.69570000  1.0 -0.0165199778
C  C5  1  0.29820000  0.63700000  0.45220000  1.0 -0.0323922656
C  C6  1  0.35470000  0.67520000  0.42120000  1.0 0.6016287363
C  C7  1  0.28530000  0.37600000  0.60160000  1.0 -0.006890055
C  C8  1  0.04520000  0.67490000  0.74110000  1.0 0.606546194
C  C9  1  0.19120000  0.56670000  0.51180000  1.0 -0.0323922656
C  C10  1  0.89400000  0.79940000  0.08270000  1.0 -0.207361921
C  C11  1  0.93660000  0.79790000  0.03470000  1.0 0.0982323563
C  C12  1  0.01230000  0.57950000  0.62230000  1.0 -0.1330189847
C  C13  1  0.99780000  0.61480000  0.66530000  1.0 -0.0897619332
C  C14  1  0.23850000  0.40430000  0.63900000  1.0 -0.0897619332
C  C15  1  0.78190000  0.79930000  0.17820000  1.0 -0.1986205832
C  C16  1  0.72220000  0.79740000  0.21960000  1.0 0.0982323563
C  C17  1  0.22340000  0.43550000  0.53560000  1.0 -0.1330189847
C  C18  1  0.27610000  0.39130000  0.54960000  1.0 -0.0983008632
C  C19  1  0.18750000  0.44980000  0.62350000  1.0 -0.1382590153
C  C20  1  0.14260000  0.62180000  0.68250000  1.0 -0.0897619332
C  C21  1  0.27790000  0.56810000  0.52030000  1.0 -0.1382590153
C  C22  1  0.33040000  0.60580000  0.49230000  1.0 -0.0834952661
C  C23  1  0.21120000  0.63560000  0.44350000  1.0 -0.0738268824
C  C24  1  0.16020000  0.58560000  0.63980000  1.0 -0.1382590153
C  C25  1  0.15780000  0.60080000  0.47390000  1.0 -0.1382590153
C  C26  1  0.59340000  0.43430000  0.89010000  1.0 -0.0323922656
C  C27  1  0.84640000  0.67180000  0.88360000  1.0 0.5881249762
C  C28  1  0.68250000  0.53440000  0.92760000  1.0 -0.0383330638
C  C29  1  0.56120000  0.36460000  0.80430000  1.0 -0.0165199778
C  C30  1  0.79820000  0.36300000  0.04780000  1.0 -0.0323922656
C  C31  1  0.85470000  0.32480000  0.07880000  1.0 0.6016287363
C  C32  1  0.78530000  0.62400000  0.89840000  1.0 -0.006890055
C  C33  1  0.54520000  0.32510000  0.75890000  1.0 0.606546194
C  C34  1  0.69120000  0.43330000  0.98820000  1.0 -0.0323922656
C  C35  1  0.39400000  0.20060000  0.41730000  1.0 -0.207361921
C  C36  1  0.43660000  0.20210000  0.46530000  1.0 0.0982323563
C  C37  1  0.51230000  0.42050000  0.87770000  1.0 -0.1330189847
C  C38  1  0.49780000  0.38520000  0.83470000  1.0 -0.0897619332
C  C39  1  0.73850000  0.59570000  0.86100000  1.0 -0.0897619332
C  C40  1  0.28190000  0.20070000  0.32180000  1.0 -0.1986205832
C  C41  1  0.22220000  0.20260000  0.28040000  1.0 0.0982323563
C  C42  1  0.72340000  0.56450000  0.96440000  1.0 -0.1330189847
C  C43  1  0.77610000  0.60870000  0.95040000  1.0 -0.0983008632
C  C44  1  0.68750000  0.55020000  0.87650000  1.0 -0.1382590153
C  C45  1  0.64260000  0.37820000  0.81750000  1.0 -0.0897619332
C  C46  1  0.77790000  0.43190000  0.97970000  1.0 -0.1382590153
C  C47  1  0.83040000  0.39420000  0.00770000  1.0 -0.0834952661
C  C48  1  0.71120000  0.36440000  0.05650000  1.0 -0.0738268824
C  C49  1  0.66020000  0.41440000  0.86020000  1.0 -0.1382590153
C  C50  1  0.65780000  0.39920000  0.02610000  1.0 -0.1382590153
C  C51  1  0.90660000  0.06570000  0.39010000  1.0 -0.0323922656
C  C52  1  0.65360000  0.82820000  0.38360000  1.0 0.5881249762
C  C53  1  0.81750000  0.96560000  0.42760000  1.0 -0.0383330638
C  C54  1  0.93880000  0.13540000  0.30430000  1.0 -0.0165199778
C  C55  1  0.70180000  0.13700000  0.54780000  1.0 -0.0323922656
C  C56  1  0.64530000  0.17520000  0.57880000  1.0 0.6016287363
C  C57  1  0.71470000  0.87600000  0.39840000  1.0 -0.006890055
C  C58  1  0.95480000  0.17490000  0.25890000  1.0 0.606546194
C  C59  1  0.80880000  0.06670000  0.48820000  1.0 -0.0323922656
C  C60  1  0.10600000  0.29940000  0.91730000  1.0 -0.207361921
C  C61  1  0.06340000  0.29790000  0.96530000  1.0 0.0982323563
C  C62  1  0.98770000  0.07950000  0.37770000  1.0 -0.1330189847
C  C63  1  0.00220000  0.11480000  0.33470000  1.0 -0.0983008632
C  C64  1  0.76150000  0.90430000  0.36100000  1.0 -0.0897619332
C  C65  1  0.21810000  0.29930000  0.82180000  1.0 -0.1986205832
C  C66  1  0.27780000  0.29740000  0.78040000  1.0 0.0982323563
C  C67  1  0.77660000  0.93550000  0.46440000  1.0 -0.1330189847
C  C68  1  0.72390000  0.89130000  0.45040000  1.0 -0.0983008632
C  C69  1  0.81250000  0.94980000  0.37650000  1.0 -0.1382590153
C  C70  1  0.85740000  0.12180000  0.31750000  1.0 -0.0897619332
C  C71  1  0.72210000  0.06810000  0.47970000  1.0 -0.1382590153
C  C72  1  0.66960000  0.10580000  0.50770000  1.0 -0.0834952661
C  C73  1  0.78880000  0.13560000  0.55650000  1.0 -0.0738268824
C  C74  1  0.83980000  0.08560000  0.36020000  1.0 -0.1382590153
C  C75  1  0.84220000  0.10080000  0.52610000  1.0 -0.1382590153
C  C76  1  0.40660000  0.93430000  0.10990000  1.0 -0.0323922656
C  C77  1  0.15360000  0.17180000  0.11640000  1.0 0.5881249762
C  C78  1  0.31750000  0.03440000  0.07240000  1.0 -0.0383330638
C  C79  1  0.43880000  0.86460000  0.19570000  1.0 -0.0165199778
C  C80  1  0.20180000  0.86300000  0.95220000  1.0 -0.0323922656
C  C81  1  0.14530000  0.82480000  0.92120000  1.0 0.6016287363
C  C82  1  0.21470000  0.12400000  0.10160000  1.0 -0.006890055
C  C83  1  0.45480000  0.82510000  0.24110000  1.0 0.606546194
C  C84  1  0.30880000  0.93330000  0.01180000  1.0 -0.0323922656
C  C85  1  0.60600000  0.70060000  0.58270000  1.0 -0.207361921
C  C86  1  0.56340000  0.70210000  0.53470000  1.0 0.0982323563
C  C87  1  0.48770000  0.92050000  0.12230000  1.0 -0.1330189847
C  C88  1  0.50220000  0.88520000  0.16530000  1.0 -0.0897619332
C  C89  1  0.26150000  0.09570000  0.13900000  1.0 -0.0897619332
C  C90  1  0.71810000  0.70070000  0.67820000  1.0 -0.1986205832
C  C91  1  0.77780000  0.70260000  0.71960000  1.0 0.0982323563
C  C92  1  0.27660000  0.06450000  0.03560000  1.0 -0.1330189847
C  C93  1  0.22390000  0.10870000  0.04960000  1.0 -0.0983008632
C  C94  1  0.31250000  0.05020000  0.12350000  1.0 -0.1382590153
C  C95  1  0.35740000  0.87820000  0.18250000  1.0 -0.0897619332
C  C96  1  0.22210000  0.93190000  0.02030000  1.0 -0.1382590153
C  C97  1  0.16960000  0.89420000  0.99230000  1.0 -0.0834952661
C  C98  1  0.28880000  0.86440000  0.94350000  1.0 -0.0738268824
C  C99  1  0.33980000  0.91440000  0.13980000  1.0 -0.1382590153
C  C100  1  0.34220000  0.89920000  0.97390000  1.0 -0.1382590153
C  C101  1  0.90660000  0.43430000  0.39010000  1.0 -0.0323922656
C  C102  1  0.65360000  0.67180000  0.38360000  1.0 0.5881249762
C  C103  1  0.81750000  0.53440000  0.42760000  1.0 -0.0383330638
C  C104  1  0.93880000  0.36460000  0.30430000  1.0 -0.0165199778
C  C105  1  0.70180000  0.36300000  0.54780000  1.0 -0.0323922656
C  C106  1  0.64530000  0.32480000  0.57880000  1.0 0.6016287363
C  C107  1  0.71470000  0.62400000  0.39840000  1.0 -0.006890055
C  C108  1  0.95480000  0.32510000  0.25890000  1.0 0.606546194
C  C109  1  0.80880000  0.43330000  0.48820000  1.0 -0.0323922656
C  C110  1  0.10600000  0.20060000  0.91730000  1.0 -0.207361921
C  C111  1  0.06340000  0.20210000  0.96530000  1.0 0.0982323563
C  C112  1  0.98770000  0.42050000  0.37770000  1.0 -0.1330189847
C  C113  1  0.00220000  0.38520000  0.33470000  1.0 -0.0983008632
C  C114  1  0.76150000  0.59570000  0.36100000  1.0 -0.0897619332
C  C115  1  0.21810000  0.20070000  0.82180000  1.0 -0.1986205832
C  C116  1  0.27780000  0.20260000  0.78040000  1.0 0.0982323563
C  C117  1  0.77660000  0.56450000  0.46440000  1.0 -0.1330189847
C  C118  1  0.72390000  0.60870000  0.45040000  1.0 -0.0983008632
C  C119  1  0.81250000  0.55020000  0.37650000  1.0 -0.1382590153
C  C120  1  0.85740000  0.37820000  0.31750000  1.0 -0.0897619332
C  C121  1  0.72210000  0.43190000  0.47970000  1.0 -0.1382590153
C  C122  1  0.66960000  0.39420000  0.50770000  1.0 -0.0834952661
C  C123  1  0.78880000  0.36440000  0.55650000  1.0 -0.0738268824
C  C124  1  0.83980000  0.41440000  0.36020000  1.0 -0.1382590153
C  C125  1  0.84220000  0.39920000  0.52610000  1.0 -0.1382590153
C  C126  1  0.40660000  0.56570000  0.10990000  1.0 -0.0323922656
C  C127  1  0.15360000  0.32820000  0.11640000  1.0 0.5881249762
C  C128  1  0.31750000  0.46560000  0.07240000  1.0 -0.0383330638
C  C129  1  0.43880000  0.63540000  0.19570000  1.0 -0.0165199778
C  C130  1  0.20180000  0.63700000  0.95220000  1.0 -0.0323922656
C  C131  1  0.14530000  0.67520000  0.92120000  1.0 0.6016287363
C  C132  1  0.21470000  0.37600000  0.10160000  1.0 -0.006890055
C  C133  1  0.45480000  0.67490000  0.24110000  1.0 0.606546194
C  C134  1  0.30880000  0.56670000  0.01180000  1.0 -0.0323922656
C  C135  1  0.60600000  0.79940000  0.58270000  1.0 -0.207361921
C  C136  1  0.56340000  0.79790000  0.53470000  1.0 0.0982323563
C  C137  1  0.48770000  0.57950000  0.12230000  1.0 -0.1330189847
C  C138  1  0.50220000  0.61480000  0.16530000  1.0 -0.0897619332
C  C139  1  0.26150000  0.40430000  0.13900000  1.0 -0.0897619332
C  C140  1  0.71810000  0.79930000  0.67820000  1.0 -0.1986205832
C  C141  1  0.77780000  0.79740000  0.71960000  1.0 0.0982323563
C  C142  1  0.27660000  0.43550000  0.03560000  1.0 -0.1330189847
C  C143  1  0.22390000  0.39130000  0.04960000  1.0 -0.0983008632
C  C144  1  0.31250000  0.44980000  0.12350000  1.0 -0.1382590153
C  C145  1  0.35740000  0.62180000  0.18250000  1.0 -0.0897619332
C  C146  1  0.22210000  0.56810000  0.02030000  1.0 -0.1382590153
C  C147  1  0.16960000  0.60580000  0.99230000  1.0 -0.0834952661
C  C148  1  0.28880000  0.63560000  0.94350000  1.0 -0.0738268824
C  C149  1  0.33980000  0.58560000  0.13980000  1.0 -0.1382590153
C  C150  1  0.34220000  0.60080000  0.97390000  1.0 -0.1382590153
C  C151  1  0.09340000  0.93430000  0.60990000  1.0 -0.0323922656
C  C152  1  0.34640000  0.17180000  0.61640000  1.0 0.5881249762
C  C153  1  0.18250000  0.03440000  0.57240000  1.0 -0.0383330638
C  C154  1  0.06120000  0.86460000  0.69570000  1.0 -0.0165199778
C  C155  1  0.29820000  0.86300000  0.45220000  1.0 -0.0323922656
C  C156  1  0.35470000  0.82480000  0.42120000  1.0 0.6016287363
C  C157  1  0.28530000  0.12400000  0.60160000  1.0 -0.006890055
C  C158  1  0.04520000  0.82510000  0.74110000  1.0 0.606546194
C  C159  1  0.19120000  0.93330000  0.51180000  1.0 -0.0323922656
C  C160  1  0.89400000  0.70060000  0.08270000  1.0 -0.207361921
C  C161  1  0.93660000  0.70210000  0.03470000  1.0 0.0982323563
C  C162  1  0.01230000  0.92050000  0.62230000  1.0 -0.1330189847
C  C163  1  0.99780000  0.88520000  0.66530000  1.0 -0.0897619332
C  C164  1  0.23850000  0.09570000  0.63900000  1.0 -0.0897619332
C  C165  1  0.78190000  0.70070000  0.17820000  1.0 -0.1986205832
C  C166  1  0.72220000  0.70260000  0.21960000  1.0 0.0982323563
C  C167  1  0.22340000  0.06450000  0.53560000  1.0 -0.1330189847
C  C168  1  0.27610000  0.10870000  0.54960000  1.0 -0.0983008632
C  C169  1  0.18750000  0.05020000  0.62350000  1.0 -0.1382590153
C  C170  1  0.14260000  0.87820000  0.68250000  1.0 -0.0897619332
C  C171  1  0.27790000  0.93190000  0.52030000  1.0 -0.1382590153
C  C172  1  0.33040000  0.89420000  0.49230000  1.0 -0.0834952661
C  C173  1  0.21120000  0.86440000  0.44350000  1.0 -0.0738268824
C  C174  1  0.16020000  0.91440000  0.63980000  1.0 -0.1382590153
C  C175  1  0.15780000  0.89920000  0.47390000  1.0 -0.1382590153
C  C176  1  0.59340000  0.06570000  0.89010000  1.0 -0.0323922656
C  C177  1  0.84640000  0.82820000  0.88360000  1.0 0.5881249762
C  C178  1  0.68250000  0.96560000  0.92760000  1.0 -0.0383330638
C  C179  1  0.56120000  0.13540000  0.80430000  1.0 -0.0165199778
C  C180  1  0.79820000  0.13700000  0.04780000  1.0 -0.0323922656
C  C181  1  0.85470000  0.17520000  0.07880000  1.0 0.6016287363
C  C182  1  0.78530000  0.87600000  0.89840000  1.0 -0.006890055
C  C183  1  0.54520000  0.17490000  0.75890000  1.0 0.606546194
C  C184  1  0.69120000  0.06670000  0.98820000  1.0 -0.0323922656
C  C185  1  0.39400000  0.29940000  0.41730000  1.0 -0.207361921
C  C186  1  0.43660000  0.29790000  0.46530000  1.0 0.0982323563
C  C187  1  0.51230000  0.07950000  0.87770000  1.0 -0.1330189847
C  C188  1  0.49780000  0.11480000  0.83470000  1.0 -0.0897619332
C  C189  1  0.73850000  0.90430000  0.86100000  1.0 -0.0897619332
C  C190  1  0.28190000  0.29930000  0.32180000  1.0 -0.1986205832
C  C191  1  0.22220000  0.29740000  0.28040000  1.0 0.0982323563
C  C192  1  0.72340000  0.93550000  0.96440000  1.0 -0.1330189847
C  C193  1  0.77610000  0.89130000  0.95040000  1.0 -0.0983008632
C  C194  1  0.68750000  0.94980000  0.87650000  1.0 -0.1382590153
C  C195  1  0.64260000  0.12180000  0.81750000  1.0 -0.0897619332
C  C196  1  0.77790000  0.06810000  0.97970000  1.0 -0.1382590153
C  C197  1  0.83040000  0.10580000  0.00770000  1.0 -0.0834952661
C  C198  1  0.71120000  0.13560000  0.05650000  1.0 -0.0738268824
C  C199  1  0.66020000  0.08560000  0.86020000  1.0 -0.1382590153
C  C200  1  0.65780000  0.10080000  0.02610000  1.0 -0.1382590153
C  C201  1  0.86830000  0.75000000  0.10820000  1.0 0.1101251748
C  C202  1  0.81110000  0.75000000  0.15580000  1.0 0.0982323563
C  C203  1  0.36830000  0.25000000  0.39180000  1.0 0.1101251748
C  C204  1  0.31110000  0.25000000  0.34420000  1.0 0.0982323563
C  C205  1  0.13170000  0.25000000  0.89180000  1.0 0.1101251748
C  C206  1  0.18890000  0.25000000  0.84420000  1.0 0.0982323563
C  C207  1  0.63170000  0.75000000  0.60820000  1.0 0.1101251748
C  C208  1  0.68890000  0.75000000  0.65580000  1.0 0.0982323563
N  N1  1  0.69320000  0.75000000  0.24100000  1.0 -0.2187515361
N  N2  1  0.95530000  0.75000000  0.01000000  1.0 -0.2187515361
N  N3  1  0.19320000  0.25000000  0.25900000  1.0 -0.2187515361
N  N4  1  0.45530000  0.25000000  0.49000000  1.0 -0.2187515361
N  N5  1  0.30680000  0.25000000  0.75900000  1.0 -0.2187515361
N  N6  1  0.04470000  0.25000000  0.99000000  1.0 -0.2187515361
N  N7  1  0.80680000  0.75000000  0.74100000  1.0 -0.2187515361
N  N8  1  0.54470000  0.75000000  0.51000000  1.0 -0.2187515361
O  O1  1  0.39200000  0.31030000  0.58064000  1.0 -0.5347581947
O  O2  1  0.34460000  0.31300000  0.66390000  1.0 -0.5516251729
O  O3  1  0.42390000  0.68840000  0.44210000  1.0 -0.5413308205
O  O4  1  0.11080000  0.68940000  0.76650000  1.0 -0.5516251729
O  O5  1  0.32520000  0.69090000  0.37700000  1.0 -0.5598971278
O  O6  1  0.96800000  0.68870000  0.74920000  1.0 -0.5598971278
O  O7  1  0.89200000  0.68970000  0.91936000  1.0 -0.5413308205
O  O8  1  0.84460000  0.68700000  0.83610000  1.0 -0.5516251729
O  O9  1  0.92390000  0.31160000  0.05790000  1.0 -0.5413308205
O  O10  1  0.61080000  0.31060000  0.73350000  1.0 -0.5516251729
O  O11  1  0.82520000  0.30910000  0.12300000  1.0 -0.5598971278
O  O12  1  0.46800000  0.31130000  0.75080000  1.0 -0.5598971278
O  O13  1  0.60800000  0.81030000  0.41936000  1.0 -0.5413308205
O  O14  1  0.65540000  0.81300000  0.33610000  1.0 -0.5516251729
O  O15  1  0.57610000  0.18840000  0.55790000  1.0 -0.5413308205
O  O16  1  0.88920000  0.18940000  0.23350000  1.0 -0.5516251729
O  O17  1  0.67480000  0.19090000  0.62300000  1.0 -0.5598971278
O  O18  1  0.03200000  0.18870000  0.25080000  1.0 -0.5598971278
O  O19  1  0.10800000  0.18970000  0.08064000  1.0 -0.5347581947
O  O20  1  0.15540000  0.18700000  0.16390000  1.0 -0.5516251729
O  O21  1  0.07610000  0.81160000  0.94210000  1.0 -0.5413308205
O  O22  1  0.38920000  0.81060000  0.26650000  1.0 -0.5516251729
O  O23  1  0.17480000  0.80910000  0.87700000  1.0 -0.5598971278
O  O24  1  0.53200000  0.81130000  0.24920000  1.0 -0.5598971278
O  O25  1  0.60800000  0.68970000  0.41936000  1.0 -0.5347581947
O  O26  1  0.65540000  0.68700000  0.33610000  1.0 -0.5516251729
O  O27  1  0.57610000  0.31160000  0.55790000  1.0 -0.5413308205
O  O28  1  0.88920000  0.31060000  0.23350000  1.0 -0.5516251729
O  O29  1  0.67480000  0.30910000  0.62300000  1.0 -0.5598971278
O  O30  1  0.03200000  0.31130000  0.25080000  1.0 -0.5598971278
O  O31  1  0.10800000  0.31030000  0.08064000  1.0 -0.5347581947
O  O32  1  0.15540000  0.31300000  0.16390000  1.0 -0.5516251729
O  O33  1  0.07610000  0.68840000  0.94210000  1.0 -0.5413308205
O  O34  1  0.38920000  0.68940000  0.26650000  1.0 -0.5516251729
O  O35  1  0.17480000  0.69090000  0.87700000  1.0 -0.5598971278
O  O36  1  0.53200000  0.68870000  0.24920000  1.0 -0.5598971278
O  O37  1  0.39200000  0.18970000  0.58064000  1.0 -0.5347581947
O  O38  1  0.34460000  0.18700000  0.66390000  1.0 -0.5516251729
O  O39  1  0.42390000  0.81160000  0.44210000  1.0 -0.5413308205
O  O40  1  0.11080000  0.81060000  0.76650000  1.0 -0.5516251729
O  O41  1  0.32520000  0.80910000  0.37700000  1.0 -0.5598971278
O  O42  1  0.96800000  0.81130000  0.74920000  1.0 -0.5598971278
O  O43  1  0.89200000  0.81030000  0.91936000  1.0 -0.5413308205
O  O44  1  0.84460000  0.81300000  0.83610000  1.0 -0.5516251729
O  O45  1  0.92390000  0.18840000  0.05790000  1.0 -0.5413308205
O  O46  1  0.61080000  0.18940000  0.73350000  1.0 -0.5516251729
O  O47  1  0.82520000  0.19090000  0.12300000  1.0 -0.5598971278
O  O48  1  0.46800000  0.18870000  0.75080000  1.0 -0.5598971278
F  F1  1  0.48880000  0.75000000  0.34790000  1.0 -0.6007027322
F  F2  1  0.98880000  0.25000000  0.15210000  1.0 -0.6007027322
F  F3  1  0.51120000  0.25000000  0.65210000  1.0 -0.6007027322
F  F4  1  0.01120000  0.75000000  0.84790000  1.0 -0.6007027322
