# DDEC6 charges by PACMAN v1.1 (https://github.com/mtap-research/PACMAN-charge/)
data_ABESUX_FSR_pacman
_symmetry_space_group_name_H-M   'P 1'
_cell_length_a   10.37950000
_cell_length_b   10.37950000
_cell_length_c   13.01990000
_cell_angle_alpha   90.00000000
_cell_angle_beta   90.00000000
_cell_angle_gamma   96.70460000
_symmetry_Int_Tables_number   1
_chemical_formula_structural   U5P4O27
_chemical_formula_sum   'U10 P8 O54'
_cell_volume   1393.09359146
_cell_formula_units_Z   2
loop_
 _symmetry_equiv_pos_site_id
 _symmetry_equiv_pos_as_xyz
  1  'x, y, z'
loop_
 _atom_site_type_symbol
 _atom_site_label
 _atom_site_symmetry_multiplicity
 _atom_site_fract_x
 _atom_site_fract_y
 _atom_site_fract_z
 _atom_site_occupancy
 _atom_site_charge
U  U1  1  0.24561000  0.73465000  0.43733000  1.0 2.5349724371
U  U2  1  0.73465000  0.24561000  0.43733000  1.0 2.5377509673
U  U3  1  0.26535000  0.75439000  0.93733000  1.0 2.5349724371
U  U4  1  0.75439000  0.26535000  0.93733000  1.0 2.5377509673
U  U5  1  0.01548000  0.46166000  0.58577000  1.0 2.5138279278
U  U6  1  0.46166000  0.01548000  0.58577000  1.0 2.5138279278
U  U7  1  0.53834000  0.98452000  0.08577000  1.0 2.5138279278
U  U8  1  0.98452000  0.53834000  0.08577000  1.0 2.5138279278
U  U9  1  0.11612000  0.11612000  0.24394000  1.0 2.551382788
U  U10  1  0.88388000  0.88388000  0.74394000  1.0 2.551382788
P  P1  1  0.79550000  0.24090000  0.17570000  1.0 1.5932718594
P  P2  1  0.24090000  0.79550000  0.17570000  1.0 1.5932718594
P  P3  1  0.75910000  0.20450000  0.67570000  1.0 1.5932718594
P  P4  1  0.20450000  0.75910000  0.67570000  1.0 1.5932718594
P  P5  1  0.05540000  0.42880000  0.34450000  1.0 1.6275828858
P  P6  1  0.42880000  0.05540000  0.34450000  1.0 1.6275828858
P  P7  1  0.57120000  0.94460000  0.84450000  1.0 1.6275828858
P  P8  1  0.94460000  0.57120000  0.84450000  1.0 1.6275828858
O  O1  1  0.09420000  0.79600000  0.42480000  1.0 -0.589522786
O  O2  1  0.79600000  0.09420000  0.42480000  1.0 -0.589522786
O  O3  1  0.20400000  0.90580000  0.92480000  1.0 -0.589522786
O  O4  1  0.90580000  0.20400000  0.92480000  1.0 -0.589522786
O  O5  1  0.39360000  0.66680000  0.45490000  1.0 -0.5782239358
O  O6  1  0.66680000  0.39360000  0.45490000  1.0 -0.5782239358
O  O7  1  0.33320000  0.60640000  0.95490000  1.0 -0.5782239358
O  O8  1  0.60640000  0.33320000  0.95490000  1.0 -0.5782239358
O  O9  1  0.89750000  0.56770000  0.55950000  1.0 -0.6055986802
O  O10  1  0.56770000  0.89750000  0.55950000  1.0 -0.6055986802
O  O11  1  0.43230000  0.10250000  0.05950000  1.0 -0.6055986802
O  O12  1  0.10250000  0.43230000  0.05950000  1.0 -0.6055986802
O  O13  1  0.13000000  0.35180000  0.60660000  1.0 -0.5589949211
O  O14  1  0.35180000  0.13000000  0.60660000  1.0 -0.5589949211
O  O15  1  0.64820000  0.87000000  0.10660000  1.0 -0.5589949211
O  O16  1  0.87000000  0.64820000  0.10660000  1.0 -0.5589949211
O  O17  1  0.17670000  0.17670000  0.12460000  1.0 -0.5589949211
O  O18  1  0.82330000  0.82330000  0.62460000  1.0 -0.5589949211
O  O19  1  0.05630000  0.05630000  0.36450000  1.0 -0.6012215237
O  O20  1  0.94370000  0.94370000  0.86450000  1.0 -0.6012215237
O  O21  1  0.13030000  0.52530000  0.42050000  1.0 -0.8835279863
O  O22  1  0.52530000  0.13030000  0.42050000  1.0 -0.8835279863
O  O23  1  0.47470000  0.86970000  0.92050000  1.0 -0.8835279863
O  O24  1  0.86970000  0.47470000  0.92050000  1.0 -0.8835279863
O  O25  1  0.82570000  0.36030000  0.10270000  1.0 -0.8918970744
O  O26  1  0.36030000  0.82570000  0.10270000  1.0 -0.8918970744
O  O27  1  0.63970000  0.17430000  0.60270000  1.0 -0.8918970744
O  O28  1  0.17430000  0.63970000  0.60270000  1.0 -0.8918970744
O  O29  1  0.72090000  0.14270000  0.10110000  1.0 -0.8835279863
O  O30  1  0.14270000  0.72090000  0.10110000  1.0 -0.8835279863
O  O31  1  0.85730000  0.27910000  0.60110000  1.0 -0.8835279863
O  O32  1  0.27910000  0.85730000  0.60110000  1.0 -0.8835279863
O  O33  1  0.94460000  0.36260000  0.41410000  1.0 -0.9140582006
O  O34  1  0.36260000  0.94460000  0.41410000  1.0 -0.9150885265
O  O35  1  0.63740000  0.05540000  0.91410000  1.0 -0.9140582006
O  O36  1  0.05540000  0.63740000  0.91410000  1.0 -0.9150885265
O  O37  1  0.71070000  0.27370000  0.26410000  1.0 -0.7868100922
O  O38  1  0.27370000  0.71070000  0.26410000  1.0 -0.7868100922
O  O39  1  0.72630000  0.28930000  0.76410000  1.0 -0.7868100922
O  O40  1  0.28930000  0.72630000  0.76410000  1.0 -0.7868100922
O  O41  1  0.99770000  0.50590000  0.25680000  1.0 -0.8143801611
O  O42  1  0.50590000  0.99770000  0.25680000  1.0 -0.8143801611
O  O43  1  0.49410000  0.00230000  0.75680000  1.0 -0.8143801611
O  O44  1  0.00230000  0.49410000  0.75680000  1.0 -0.815382592
O  O45  1  0.14350000  0.33390000  0.30600000  1.0 -0.7868100922
O  O46  1  0.33390000  0.14350000  0.30600000  1.0 -0.7868100922
O  O47  1  0.66610000  0.85650000  0.80600000  1.0 -0.7868100922
O  O48  1  0.85650000  0.66610000  0.80600000  1.0 -0.7868100922
O  O49  1  0.91600000  0.19080000  0.21350000  1.0 -0.815382592
O  O50  1  0.19080000  0.91600000  0.21350000  1.0 -0.815382592
O  O51  1  0.80920000  0.08400000  0.71350000  1.0 -0.815382592
O  O52  1  0.08400000  0.80920000  0.71350000  1.0 -0.8143801611
O  O53  1  0.95290000  0.95290000  0.13660000  1.0 0.2818169672
O  O54  1  0.04710000  0.04710000  0.63660000  1.0 0.2886715312
