# DDEC6 charges by PACMAN v1.1 (https://github.com/mtap-research/PACMAN-charge/)
data_ABETAE_ASR_pacman
_symmetry_space_group_name_H-M   'P 1'
_cell_length_a   10.41400000
_cell_length_b   10.41400000
_cell_length_c   13.07690000
_cell_angle_alpha   90.00000000
_cell_angle_beta   90.00000000
_cell_angle_gamma   96.34460000
_symmetry_Int_Tables_number   1
_chemical_formula_structural   U5(PO4)4
_chemical_formula_sum   'U10 P8 O32'
_cell_volume   1409.52186967
_cell_formula_units_Z   2
loop_
 _symmetry_equiv_pos_site_id
 _symmetry_equiv_pos_as_xyz
  1  'x, y, z'
loop_
 _atom_site_type_symbol
 _atom_site_label
 _atom_site_symmetry_multiplicity
 _atom_site_fract_x
 _atom_site_fract_y
 _atom_site_fract_z
 _atom_site_occupancy
 _atom_site_charge
U  U1  1  0.72823000  0.25095000  0.43733000  1.0 2.0280948615
U  U2  1  0.25095000  0.72823000  0.43733000  1.0 2.0242007709
U  U3  1  0.74905000  0.27177000  0.93733000  1.0 2.0280948615
U  U4  1  0.27177000  0.74905000  0.93733000  1.0 2.0242007709
U  U5  1  0.46312000  0.01188000  0.58520000  1.0 2.0456091698
U  U6  1  0.01188000  0.46312000  0.58520000  1.0 2.0456091698
U  U7  1  0.98812000  0.53688000  0.08520000  1.0 2.0456091698
U  U8  1  0.53688000  0.98812000  0.08520000  1.0 2.0412300563
U  U9  1  0.11003000  0.11003000  0.24730000  1.0 2.2382718062
U  U10  1  0.88997000  0.88997000  0.74730000  1.0 2.2308090663
P  P1  1  0.24290000  0.79450000  0.17570000  1.0 1.3730110264
P  P2  1  0.79450000  0.24290000  0.17570000  1.0 1.3730110264
P  P3  1  0.20550000  0.75710000  0.67570000  1.0 1.3730110264
P  P4  1  0.75710000  0.20550000  0.67570000  1.0 1.3730110264
P  P5  1  0.42660000  0.05240000  0.34590000  1.0 1.3596970474
P  P6  1  0.05240000  0.42660000  0.34590000  1.0 1.3596970474
P  P7  1  0.94760000  0.57340000  0.84590000  1.0 1.3596970474
P  P8  1  0.57340000  0.94760000  0.84590000  1.0 1.3596970474
O  O1  1  0.51990000  0.13010000  0.42040000  1.0 -1.0427328014
O  O2  1  0.13010000  0.51990000  0.42040000  1.0 -1.0427328014
O  O3  1  0.86990000  0.48010000  0.92040000  1.0 -1.0427328014
O  O4  1  0.48010000  0.86990000  0.92040000  1.0 -1.0427328014
O  O5  1  0.36060000  0.82660000  0.10390000  1.0 -1.06262007
O  O6  1  0.82660000  0.36060000  0.10390000  1.0 -1.06262007
O  O7  1  0.17340000  0.63940000  0.60390000  1.0 -1.06262007
O  O8  1  0.63940000  0.17340000  0.60390000  1.0 -1.06262007
O  O9  1  0.15160000  0.71120000  0.10210000  1.0 -1.0217242503
O  O10  1  0.71120000  0.15160000  0.10210000  1.0 -1.0217242503
O  O11  1  0.28880000  0.84840000  0.60210000  1.0 -1.0217242503
O  O12  1  0.84840000  0.28880000  0.60210000  1.0 -1.0217242503
O  O13  1  0.36910000  0.93830000  0.41440000  1.0 -1.0964277053
O  O14  1  0.93830000  0.36910000  0.41440000  1.0 -1.0964277053
O  O15  1  0.06170000  0.63090000  0.91440000  1.0 -1.0964277053
O  O16  1  0.63090000  0.06170000  0.91440000  1.0 -1.0964277053
O  O17  1  0.27720000  0.71200000  0.26480000  1.0 -0.8914199734
O  O18  1  0.71200000  0.27720000  0.26480000  1.0 -0.8914199734
O  O19  1  0.28800000  0.72280000  0.76480000  1.0 -0.8914199734
O  O20  1  0.72280000  0.28800000  0.76480000  1.0 -0.8914199734
O  O21  1  0.50300000  0.00120000  0.25540000  1.0 -0.8914199734
O  O22  1  0.00120000  0.50300000  0.25540000  1.0 -0.8963762188
O  O23  1  0.99880000  0.49700000  0.75540000  1.0 -0.8963762188
O  O24  1  0.49700000  0.99880000  0.75540000  1.0 -0.8963762188
O  O25  1  0.32300000  0.13220000  0.30870000  1.0 -0.9279716277
O  O26  1  0.13220000  0.32300000  0.30870000  1.0 -0.9209951027
O  O27  1  0.86780000  0.67700000  0.80870000  1.0 -0.9209951027
O  O28  1  0.67700000  0.86780000  0.80870000  1.0 -0.9209951027
O  O29  1  0.18640000  0.91300000  0.20960000  1.0 -0.9878393078
O  O30  1  0.91300000  0.18640000  0.20960000  1.0 -0.9878393078
O  O31  1  0.08700000  0.81360000  0.70960000  1.0 -0.9878393078
O  O32  1  0.81360000  0.08700000  0.70960000  1.0 -0.9878393078
