# DDEC6 charges by PACMAN v1.1 (https://github.com/mtap-research/PACMAN-charge/)
data_ABIBAS_FSR_pacman
_symmetry_space_group_name_H-M   'P 1'
_cell_length_a   20.11280000
_cell_length_b   20.35120000
_cell_length_c   28.90060000
_cell_angle_alpha   90.00000000
_cell_angle_beta   133.62200000
_cell_angle_gamma   90.00000000
_symmetry_Int_Tables_number   1
_chemical_formula_structural   Co2H32C64S4N4O15
_chemical_formula_sum   'Co8 H128 C256 S16 N16 O60'
_cell_volume   8563.51771694
_cell_formula_units_Z   4
loop_
 _symmetry_equiv_pos_site_id
 _symmetry_equiv_pos_as_xyz
  1  'x, y, z'
loop_
 _atom_site_type_symbol
 _atom_site_label
 _atom_site_symmetry_multiplicity
 _atom_site_fract_x
 _atom_site_fract_y
 _atom_site_fract_z
 _atom_site_occupancy
 _atom_site_charge
Co  Co1  1  0.41795000  0.88152000  0.66687000  1.0 0.9578030243
Co  Co2  1  0.19457000  0.92339000  0.52057000  1.0 0.9967231287
Co  Co3  1  0.58205000  0.38152000  0.83313000  1.0 0.9578030243
Co  Co4  1  0.80543000  0.42339000  0.97943000  1.0 0.9967231287
Co  Co5  1  0.58205000  0.11848000  0.33313000  1.0 0.9578030243
Co  Co6  1  0.80543000  0.07661000  0.47943000  1.0 0.9967231287
Co  Co7  1  0.41795000  0.61848000  0.16687000  1.0 0.9578030243
Co  Co8  1  0.19457000  0.57661000  0.02057000  1.0 0.9967231287
H  H1  1  0.04869000  0.92761000  0.49978000  1.0 0.3454271092
H  H2  1  0.05797000  0.99080000  0.48605000  1.0 0.3393478587
H  H3  1  0.16551000  0.00197000  0.43190000  1.0 0.3675311341
H  H4  1  0.21145000  0.04207000  0.48630000  1.0 0.3977380826
H  H5  1  0.07208000  0.77193000  0.54890000  1.0 0.1193948374
H  H6  1  0.01595000  0.70952000  0.58191000  1.0 0.1193948374
H  H7  1  0.27348000  0.68357000  0.75427000  1.0 0.1193948374
H  H8  1  0.32939000  0.74645000  0.71947000  1.0 0.1297386864
H  H9  1  0.29561000  0.58315000  0.85615000  1.0 0.1193948374
H  H10  1  0.43454000  0.54226000  0.90052000  1.0 0.1297386864
H  H11  1  0.32681000  0.49145000  0.72507000  1.0 0.1193948374
H  H12  1  0.19091000  0.54018000  0.67936000  1.0 0.1193948374
H  H13  1  0.61784000  0.66958000  0.57334000  1.0 0.1193948374
H  H14  1  0.49162000  0.72703000  0.54045000  1.0 0.1193948374
H  H15  1  0.63810000  0.77228000  0.72593000  1.0 0.1193948374
H  H16  1  0.76179000  0.71956000  0.75431000  1.0 0.1193948374
H  H17  1  0.66816000  0.53870000  0.67897000  1.0 0.1297386864
H  H18  1  0.62100000  0.49403000  0.72565000  1.0 0.1297386864
H  H19  1  0.85914000  0.54674000  0.90031000  1.0 0.1022623971
H  H20  1  0.90770000  0.59285000  0.85273000  1.0 0.1080366288
H  H21  1  0.32691000  0.27915000  0.52643000  1.0 0.1193948374
H  H22  1  0.24708000  0.27068000  0.52579000  1.0 0.1193948374
H  H23  1  0.34102000  0.46922000  0.43608000  1.0 0.1297386864
H  H24  1  0.27338000  0.56661000  0.37431000  1.0 0.1417565042
H  H25  1  0.95044000  0.53803000  0.37187000  1.0 0.1297386864
H  H26  1  0.02031000  0.44441000  0.43305000  1.0 0.1297386864
H  H27  1  0.94745000  0.71985000  0.25885000  1.0 0.1080366288
H  H28  1  0.03386000  0.72826000  0.26642000  1.0 0.1080366288
H  H29  1  0.03512000  0.83182000  0.43573000  1.0 0.1022623971
H  H30  1  0.96413000  0.75847000  0.35025000  1.0 0.1417565042
H  H31  1  0.16056000  0.79689000  0.35154000  1.0 0.1417565042
H  H32  1  0.22067000  0.87540000  0.43012000  1.0 0.1080366288
H  H33  1  0.95131000  0.42761000  0.00022000  1.0 0.3454271092
H  H34  1  0.94203000  0.49080000  0.01395000  1.0 0.3393478587
H  H35  1  0.83449000  0.50197000  0.06810000  1.0 0.3675311341
H  H36  1  0.78855000  0.54207000  0.01370000  1.0 0.3977380826
H  H37  1  0.92792000  0.27193000  0.95110000  1.0 0.1193948374
H  H38  1  0.98405000  0.20952000  0.91809000  1.0 0.1193948374
H  H39  1  0.72652000  0.18357000  0.74573000  1.0 0.1193948374
H  H40  1  0.67061000  0.24645000  0.78053000  1.0 0.1297386864
H  H41  1  0.70439000  0.08315000  0.64385000  1.0 0.1193948374
H  H42  1  0.56546000  0.04226000  0.59948000  1.0 0.1297386864
H  H43  1  0.67319000  0.99145000  0.77493000  1.0 0.1297386864
H  H44  1  0.80909000  0.04018000  0.82064000  1.0 0.1193948374
H  H45  1  0.38216000  0.16958000  0.92666000  1.0 0.1193948374
H  H46  1  0.50838000  0.22703000  0.95955000  1.0 0.1193948374
H  H47  1  0.36190000  0.27228000  0.77407000  1.0 0.1193948374
H  H48  1  0.23821000  0.21956000  0.74569000  1.0 0.1193948374
H  H49  1  0.33184000  0.03870000  0.82103000  1.0 0.1297386864
H  H50  1  0.37900000  0.99403000  0.77435000  1.0 0.1297386864
H  H51  1  0.14086000  0.04674000  0.59969000  1.0 0.1022623971
H  H52  1  0.09230000  0.09285000  0.64727000  1.0 0.1080366288
H  H53  1  0.67309000  0.77915000  0.97357000  1.0 0.1193948374
H  H54  1  0.75292000  0.77068000  0.97421000  1.0 0.1193948374
H  H55  1  0.65898000  0.96922000  0.06392000  1.0 0.1297386864
H  H56  1  0.72662000  0.06661000  0.12569000  1.0 0.1417565042
H  H57  1  0.04956000  0.03803000  0.12813000  1.0 0.1297386864
H  H58  1  0.97969000  0.94441000  0.06695000  1.0 0.1297386864
H  H59  1  0.05255000  0.21985000  0.24115000  1.0 0.1080366288
H  H60  1  0.96614000  0.22826000  0.23358000  1.0 0.1080366288
H  H61  1  0.96488000  0.33182000  0.06427000  1.0 0.1022623971
H  H62  1  0.03587000  0.25847000  0.14975000  1.0 0.1417565042
H  H63  1  0.83944000  0.29689000  0.14846000  1.0 0.1417565042
H  H64  1  0.77933000  0.37540000  0.06988000  1.0 0.1080366288
H  H65  1  0.95131000  0.07239000  0.50022000  1.0 0.3393478587
H  H66  1  0.94203000  0.00920000  0.51395000  1.0 0.3393478587
H  H67  1  0.83449000  0.99803000  0.56810000  1.0 0.3675311341
H  H68  1  0.78855000  0.95793000  0.51370000  1.0 0.3977380826
H  H69  1  0.92792000  0.22807000  0.45110000  1.0 0.1193948374
H  H70  1  0.98405000  0.29048000  0.41809000  1.0 0.1193948374
H  H71  1  0.72652000  0.31643000  0.24573000  1.0 0.1193948374
H  H72  1  0.67061000  0.25355000  0.28053000  1.0 0.1297386864
H  H73  1  0.70439000  0.41685000  0.14385000  1.0 0.1193948374
H  H74  1  0.56546000  0.45774000  0.09948000  1.0 0.1297386864
H  H75  1  0.67319000  0.50855000  0.27493000  1.0 0.1297386864
H  H76  1  0.80909000  0.45982000  0.32064000  1.0 0.1193948374
H  H77  1  0.38216000  0.33042000  0.42666000  1.0 0.1193948374
H  H78  1  0.50838000  0.27297000  0.45955000  1.0 0.1193948374
H  H79  1  0.36190000  0.22772000  0.27407000  1.0 0.1193948374
H  H80  1  0.23821000  0.28044000  0.24569000  1.0 0.1193948374
H  H81  1  0.33184000  0.46130000  0.32103000  1.0 0.1297386864
H  H82  1  0.37900000  0.50597000  0.27435000  1.0 0.1297386864
H  H83  1  0.14086000  0.45326000  0.09969000  1.0 0.1022623971
H  H84  1  0.09230000  0.40715000  0.14727000  1.0 0.1080366288
H  H85  1  0.67309000  0.72085000  0.47357000  1.0 0.1193948374
H  H86  1  0.75292000  0.72932000  0.47421000  1.0 0.1193948374
H  H87  1  0.65898000  0.53078000  0.56392000  1.0 0.1297386864
H  H88  1  0.72662000  0.43339000  0.62569000  1.0 0.1417565042
H  H89  1  0.04956000  0.46197000  0.62813000  1.0 0.1297386864
H  H90  1  0.97969000  0.55559000  0.56695000  1.0 0.1297386864
H  H91  1  0.05255000  0.28015000  0.74115000  1.0 0.1080366288
H  H92  1  0.96614000  0.27174000  0.73358000  1.0 0.1080366288
H  H93  1  0.96488000  0.16818000  0.56427000  1.0 0.1022623971
H  H94  1  0.03587000  0.24153000  0.64975000  1.0 0.1417565042
H  H95  1  0.83944000  0.20311000  0.64846000  1.0 0.1417565042
H  H96  1  0.77933000  0.12460000  0.56988000  1.0 0.1080366288
H  H97  1  0.04869000  0.57239000  0.99978000  1.0 0.3454271092
H  H98  1  0.05797000  0.50920000  0.98605000  1.0 0.3393478587
H  H99  1  0.16551000  0.49803000  0.93190000  1.0 0.3675311341
H  H100  1  0.21145000  0.45793000  0.98630000  1.0 0.3977380826
H  H101  1  0.07208000  0.72807000  0.04890000  1.0 0.1193948374
H  H102  1  0.01595000  0.79048000  0.08191000  1.0 0.1193948374
H  H103  1  0.27348000  0.81643000  0.25427000  1.0 0.1193948374
H  H104  1  0.32939000  0.75355000  0.21947000  1.0 0.1297386864
H  H105  1  0.29561000  0.91685000  0.35615000  1.0 0.1193948374
H  H106  1  0.43454000  0.95774000  0.40052000  1.0 0.1297386864
H  H107  1  0.32681000  0.00855000  0.22507000  1.0 0.1297386864
H  H108  1  0.19091000  0.95982000  0.17936000  1.0 0.1193948374
H  H109  1  0.61784000  0.83042000  0.07334000  1.0 0.1193948374
H  H110  1  0.49162000  0.77297000  0.04045000  1.0 0.1193948374
H  H111  1  0.63810000  0.72772000  0.22593000  1.0 0.1193948374
H  H112  1  0.76179000  0.78044000  0.25431000  1.0 0.1193948374
H  H113  1  0.66816000  0.96130000  0.17897000  1.0 0.1297386864
H  H114  1  0.62100000  0.00597000  0.22565000  1.0 0.1297386864
H  H115  1  0.85914000  0.95326000  0.40031000  1.0 0.1022623971
H  H116  1  0.90770000  0.90715000  0.35273000  1.0 0.1080366288
H  H117  1  0.32691000  0.22085000  0.02643000  1.0 0.1193948374
H  H118  1  0.24708000  0.22932000  0.02579000  1.0 0.1193948374
H  H119  1  0.34102000  0.03078000  0.93608000  1.0 0.1297386864
H  H120  1  0.27338000  0.93339000  0.87431000  1.0 0.1417565042
H  H121  1  0.95044000  0.96197000  0.87187000  1.0 0.1297386864
H  H122  1  0.02031000  0.05559000  0.93305000  1.0 0.1297386864
H  H123  1  0.94745000  0.78015000  0.75885000  1.0 0.1080366288
H  H124  1  0.03386000  0.77174000  0.76642000  1.0 0.1080366288
H  H125  1  0.03512000  0.66818000  0.93573000  1.0 0.1022623971
H  H126  1  0.96413000  0.74153000  0.85025000  1.0 0.1417565042
H  H127  1  0.16056000  0.70311000  0.85154000  1.0 0.1417565042
H  H128  1  0.22067000  0.62460000  0.93012000  1.0 0.1080366288
C  C1  1  0.99500000  0.62480000  0.71290000  1.0 -0.0911365486
C  C2  1  0.92840000  0.62420000  0.70990000  1.0 -0.0821479001
C  C3  1  0.24510000  0.81190000  0.61310000  1.0 0.5928019493
C  C4  1  0.20700000  0.76520000  0.63130000  1.0 -0.010063958
C  C5  1  0.11330000  0.75380000  0.59070000  1.0 -0.0911365486
C  C6  1  0.08020000  0.71690000  0.61040000  1.0 -0.1485499879
C  C7  1  0.13970000  0.68940000  0.67230000  1.0 0.0888203767
C  C8  1  0.23190000  0.70120000  0.71220000  1.0 -0.1272181586
C  C9  1  0.26530000  0.73900000  0.69140000  1.0 -0.0911365486
C  C10  1  0.10330000  0.65280000  0.69450000  1.0 -0.0515551649
C  C11  1  0.14330000  0.60140000  0.73520000  1.0 -0.0715361104
C  C12  1  0.22860000  0.56890000  0.76390000  1.0 0.0721084174
C  C13  1  0.30230000  0.56620000  0.82890000  1.0 -0.1485499879
C  C14  1  0.38410000  0.54010000  0.85550000  1.0 -0.0821479001
C  C15  1  0.39550000  0.51040000  0.81830000  1.0 -0.0178428308
C  C16  1  0.32060000  0.51130000  0.75170000  1.0 -0.0821479001
C  C17  1  0.24020000  0.53960000  0.72460000  1.0 -0.1485499879
C  C18  1  0.48420000  0.48110000  0.84670000  1.0 0.5515811577
C  C19  1  0.78130000  0.64980000  0.68830000  1.0 -0.0515551649
C  C20  1  0.70060000  0.68670000  0.66680000  1.0 0.0721084174
C  C21  1  0.62170000  0.69090000  0.60440000  1.0 -0.1485499879
C  C22  1  0.54640000  0.72530000  0.58450000  1.0 -0.0911365486
C  C23  1  0.55130000  0.75730000  0.62930000  1.0 -0.010063958
C  C24  1  0.63340000  0.75250000  0.69400000  1.0 -0.0821479001
C  C25  1  0.70550000  0.71980000  0.71070000  1.0 -0.1376026251
C  C26  1  0.47300000  0.79420000  0.61170000  1.0 0.5515811577
C  C27  1  0.82320000  0.60040000  0.73140000  1.0 -0.0515551649
C  C28  1  0.79200000  0.57090000  0.76070000  1.0 0.0888203767
C  C29  1  0.70760000  0.54090000  0.72400000  1.0 -0.1376026251
C  C30  1  0.67990000  0.51400000  0.75210000  1.0 -0.0821479001
C  C31  1  0.73400000  0.51500000  0.81650000  1.0 -0.0035708254
C  C32  1  0.82030000  0.54500000  0.85530000  1.0 -0.1167450265
C  C33  1  0.84900000  0.57270000  0.82670000  1.0 -0.1552471385
C  C34  1  0.70760000  0.48150000  0.84860000  1.0 0.5928019493
C  C35  1  0.29350000  0.30160000  0.53570000  1.0 -0.1485499879
C  C36  1  0.16760000  0.38280000  0.47960000  1.0 0.4220950402
C  C37  1  0.12320000  0.44210000  0.43910000  1.0 -0.0608887974
C  C38  1  0.16800000  0.47490000  0.42220000  1.0 0.0235173258
C  C39  1  0.24930000  0.45270000  0.44050000  1.0 -0.0392400293
C  C40  1  0.29120000  0.39090000  0.48010000  1.0 0.4261383101
C  C41  1  0.28610000  0.48540000  0.42340000  1.0 -0.0911365486
C  C42  1  0.24620000  0.54400000  0.38650000  1.0 -0.099520968
C  C43  1  0.16770000  0.56690000  0.36910000  1.0 -0.0515551649
C  C44  1  0.12720000  0.53330000  0.38590000  1.0 0.0305963627
C  C45  1  0.04460000  0.55670000  0.36800000  1.0 -0.0715361104
C  C46  1  0.00590000  0.52300000  0.38480000  1.0 -0.099520968
C  C47  1  0.04760000  0.46670000  0.42080000  1.0 -0.0911365486
C  C48  1  0.00280000  0.61820000  0.33180000  1.0 0.4220950402
C  C49  1  0.12880000  0.63340000  0.33570000  1.0 0.4368576689
C  C50  1  0.01540000  0.71860000  0.28980000  1.0 -0.1485499879
C  C51  1  0.06030000  0.82540000  0.41780000  1.0 0.0888203767
C  C52  1  0.01830000  0.78120000  0.36730000  1.0 -0.1994777561
C  C53  1  0.05650000  0.77090000  0.34260000  1.0 0.1417565042
C  C54  1  0.13240000  0.80440000  0.36720000  1.0 -0.1880679519
C  C55  1  0.16960000  0.84990000  0.41530000  1.0 0.0888203767
C  C56  1  0.51160000  0.34320000  0.70080000  1.0 0.0368916064
C  C57  1  0.33140000  0.32940000  0.63820000  1.0 -0.1093876333
C  C58  1  0.39690000  0.35050000  0.70130000  1.0 0.0721084174
C  C59  1  0.44770000  0.32670000  0.63680000  1.0 -0.0392400293
C  C60  1  0.36030000  0.31970000  0.60570000  1.0 0.1193948374
C  C61  1  0.44860000  0.40060000  0.69160000  1.0 0.1022623971
C  C62  1  0.41060000  0.27210000  0.65380000  1.0 -0.0515551649
C  C63  1  0.47430000  0.29330000  0.71850000  1.0 0.1022623971
C  C64  1  0.38410000  0.38780000  0.62620000  1.0 -0.099520968
C  C65  1  0.00500000  0.12480000  0.78710000  1.0 -0.0911365486
C  C66  1  0.07160000  0.12420000  0.79010000  1.0 -0.0821479001
C  C67  1  0.75490000  0.31190000  0.88690000  1.0 0.5928019493
C  C68  1  0.79300000  0.26520000  0.86870000  1.0 -0.010063958
C  C69  1  0.88670000  0.25380000  0.90930000  1.0 -0.0911365486
C  C70  1  0.91980000  0.21690000  0.88960000  1.0 -0.1485499879
C  C71  1  0.86030000  0.18940000  0.82770000  1.0 0.0888203767
C  C72  1  0.76810000  0.20120000  0.78780000  1.0 -0.1272181586
C  C73  1  0.73470000  0.23900000  0.80860000  1.0 -0.0911365486
C  C74  1  0.89670000  0.15280000  0.80550000  1.0 -0.0515551649
C  C75  1  0.85670000  0.10140000  0.76480000  1.0 -0.0715361104
C  C76  1  0.77140000  0.06890000  0.73610000  1.0 0.0721084174
C  C77  1  0.69770000  0.06620000  0.67110000  1.0 -0.1485499879
C  C78  1  0.61590000  0.04010000  0.64450000  1.0 -0.0821479001
C  C79  1  0.60450000  0.01040000  0.68170000  1.0 -0.0178428308
C  C80  1  0.67940000  0.01130000  0.74830000  1.0 -0.0821479001
C  C81  1  0.75980000  0.03960000  0.77540000  1.0 -0.1485499879
C  C82  1  0.51580000  0.98110000  0.65330000  1.0 0.5515811577
C  C83  1  0.21870000  0.14980000  0.81170000  1.0 -0.0515551649
C  C84  1  0.29940000  0.18670000  0.83320000  1.0 0.0721084174
C  C85  1  0.37830000  0.19090000  0.89560000  1.0 -0.1485499879
C  C86  1  0.45360000  0.22530000  0.91550000  1.0 -0.0911365486
C  C87  1  0.44870000  0.25730000  0.87070000  1.0 -0.010063958
C  C88  1  0.36660000  0.25250000  0.80600000  1.0 -0.0821479001
C  C89  1  0.29450000  0.21980000  0.78930000  1.0 -0.1376026251
C  C90  1  0.52700000  0.29420000  0.88830000  1.0 0.5515811577
C  C91  1  0.17680000  0.10040000  0.76860000  1.0 -0.0515551649
C  C92  1  0.20800000  0.07090000  0.73930000  1.0 0.0888203767
C  C93  1  0.29240000  0.04090000  0.77600000  1.0 -0.1376026251
C  C94  1  0.32010000  0.01400000  0.74790000  1.0 -0.0821479001
C  C95  1  0.26600000  0.01500000  0.68350000  1.0 -0.0035708254
C  C96  1  0.17970000  0.04500000  0.64470000  1.0 -0.1093876333
C  C97  1  0.15100000  0.07270000  0.67330000  1.0 -0.1552471385
C  C98  1  0.29240000  0.98150000  0.65140000  1.0 0.5928019493
C  C99  1  0.70650000  0.80160000  0.96430000  1.0 -0.1485499879
C  C100  1  0.83240000  0.88280000  0.02040000  1.0 0.4220950402
C  C101  1  0.87680000  0.94210000  0.06090000  1.0 -0.0608887974
C  C102  1  0.83200000  0.97490000  0.07780000  1.0 0.0235173258
C  C103  1  0.75070000  0.95270000  0.05950000  1.0 -0.0392400293
C  C104  1  0.70880000  0.89090000  0.01990000  1.0 0.4261383101
C  C105  1  0.71390000  0.98540000  0.07660000  1.0 -0.0911365486
C  C106  1  0.75380000  0.04400000  0.11350000  1.0 -0.099520968
C  C107  1  0.83230000  0.06690000  0.13090000  1.0 -0.0515551649
C  C108  1  0.87280000  0.03330000  0.11410000  1.0 0.0305963627
C  C109  1  0.95540000  0.05670000  0.13200000  1.0 -0.0715361104
C  C110  1  0.99410000  0.02300000  0.11520000  1.0 -0.099520968
C  C111  1  0.95240000  0.96670000  0.07920000  1.0 -0.0911365486
C  C112  1  0.99720000  0.11820000  0.16820000  1.0 0.4220950402
C  C113  1  0.87120000  0.13340000  0.16430000  1.0 0.4368576689
C  C114  1  0.98460000  0.21860000  0.21020000  1.0 -0.1485499879
C  C115  1  0.93970000  0.32540000  0.08220000  1.0 0.0888203767
C  C116  1  0.98170000  0.28120000  0.13270000  1.0 -0.1994777561
C  C117  1  0.94350000  0.27090000  0.15740000  1.0 0.1417565042
C  C118  1  0.86760000  0.30440000  0.13280000  1.0 -0.1880679519
C  C119  1  0.83040000  0.34990000  0.08470000  1.0 0.0888203767
C  C120  1  0.48840000  0.84320000  0.79920000  1.0 0.0368916064
C  C121  1  0.66860000  0.82940000  0.86180000  1.0 -0.1093876333
C  C122  1  0.60310000  0.85050000  0.79870000  1.0 0.0721084174
C  C123  1  0.55230000  0.82670000  0.86320000  1.0 -0.0392400293
C  C124  1  0.63970000  0.81970000  0.89430000  1.0 0.1193948374
C  C125  1  0.55140000  0.90060000  0.80840000  1.0 0.1022623971
C  C126  1  0.58940000  0.77210000  0.84620000  1.0 -0.0515551649
C  C127  1  0.52570000  0.79330000  0.78150000  1.0 0.1022623971
C  C128  1  0.61590000  0.88780000  0.87380000  1.0 -0.099520968
C  C129  1  0.00500000  0.37520000  0.28710000  1.0 -0.0911365486
C  C130  1  0.07160000  0.37580000  0.29010000  1.0 -0.0821479001
C  C131  1  0.75490000  0.18810000  0.38690000  1.0 0.5928019493
C  C132  1  0.79300000  0.23480000  0.36870000  1.0 -0.010063958
C  C133  1  0.88670000  0.24620000  0.40930000  1.0 -0.0911365486
C  C134  1  0.91980000  0.28310000  0.38960000  1.0 -0.1485499879
C  C135  1  0.86030000  0.31060000  0.32770000  1.0 0.0888203767
C  C136  1  0.76810000  0.29880000  0.28780000  1.0 -0.1272181586
C  C137  1  0.73470000  0.26100000  0.30860000  1.0 -0.0911365486
C  C138  1  0.89670000  0.34720000  0.30550000  1.0 -0.0515551649
C  C139  1  0.85670000  0.39860000  0.26480000  1.0 -0.0715361104
C  C140  1  0.77140000  0.43110000  0.23610000  1.0 0.0721084174
C  C141  1  0.69770000  0.43380000  0.17110000  1.0 -0.1485499879
C  C142  1  0.61590000  0.45990000  0.14450000  1.0 -0.0821479001
C  C143  1  0.60450000  0.48960000  0.18170000  1.0 -0.0178428308
C  C144  1  0.67940000  0.48870000  0.24830000  1.0 -0.0821479001
C  C145  1  0.75980000  0.46040000  0.27540000  1.0 -0.1485499879
C  C146  1  0.51580000  0.51890000  0.15330000  1.0 0.5515811577
C  C147  1  0.21870000  0.35020000  0.31170000  1.0 -0.0515551649
C  C148  1  0.29940000  0.31330000  0.33320000  1.0 0.0721084174
C  C149  1  0.37830000  0.30910000  0.39560000  1.0 -0.1485499879
C  C150  1  0.45360000  0.27470000  0.41550000  1.0 -0.0911365486
C  C151  1  0.44870000  0.24270000  0.37070000  1.0 -0.010063958
C  C152  1  0.36660000  0.24750000  0.30600000  1.0 -0.0821479001
C  C153  1  0.29450000  0.28020000  0.28930000  1.0 -0.1376026251
C  C154  1  0.52700000  0.20580000  0.38830000  1.0 0.5515811577
C  C155  1  0.17680000  0.39960000  0.26860000  1.0 -0.0515551649
C  C156  1  0.20800000  0.42910000  0.23930000  1.0 0.0888203767
C  C157  1  0.29240000  0.45910000  0.27600000  1.0 -0.1376026251
C  C158  1  0.32010000  0.48600000  0.24790000  1.0 -0.0821479001
C  C159  1  0.26600000  0.48500000  0.18350000  1.0 -0.0035708254
C  C160  1  0.17970000  0.45500000  0.14470000  1.0 -0.1167450265
C  C161  1  0.15100000  0.42730000  0.17330000  1.0 -0.1552471385
C  C162  1  0.29240000  0.51850000  0.15140000  1.0 0.5928019493
C  C163  1  0.70650000  0.69840000  0.46430000  1.0 -0.1485499879
C  C164  1  0.83240000  0.61720000  0.52040000  1.0 0.4220950402
C  C165  1  0.87680000  0.55790000  0.56090000  1.0 -0.0608887974
C  C166  1  0.83200000  0.52510000  0.57780000  1.0 0.0235173258
C  C167  1  0.75070000  0.54730000  0.55950000  1.0 -0.0392400293
C  C168  1  0.70880000  0.60910000  0.51990000  1.0 0.4261383101
C  C169  1  0.71390000  0.51460000  0.57660000  1.0 -0.0911365486
C  C170  1  0.75380000  0.45600000  0.61350000  1.0 -0.099520968
C  C171  1  0.83230000  0.43310000  0.63090000  1.0 -0.0515551649
C  C172  1  0.87280000  0.46670000  0.61410000  1.0 0.0305963627
C  C173  1  0.95540000  0.44330000  0.63200000  1.0 -0.0715361104
C  C174  1  0.99410000  0.47700000  0.61520000  1.0 -0.099520968
C  C175  1  0.95240000  0.53330000  0.57920000  1.0 -0.0911365486
C  C176  1  0.99720000  0.38180000  0.66820000  1.0 0.4220950402
C  C177  1  0.87120000  0.36660000  0.66430000  1.0 0.4368576689
C  C178  1  0.98460000  0.28140000  0.71020000  1.0 -0.1485499879
C  C179  1  0.93970000  0.17460000  0.58220000  1.0 0.0888203767
C  C180  1  0.98170000  0.21880000  0.63270000  1.0 -0.1994777561
C  C181  1  0.94350000  0.22910000  0.65740000  1.0 0.1417565042
C  C182  1  0.86760000  0.19560000  0.63280000  1.0 -0.1880679519
C  C183  1  0.83040000  0.15010000  0.58470000  1.0 0.0888203767
C  C184  1  0.48840000  0.65680000  0.29920000  1.0 0.0368916064
C  C185  1  0.66860000  0.67060000  0.36180000  1.0 -0.1093876333
C  C186  1  0.60310000  0.64950000  0.29870000  1.0 0.0721084174
C  C187  1  0.55230000  0.67330000  0.36320000  1.0 -0.0392400293
C  C188  1  0.63970000  0.68030000  0.39430000  1.0 0.1193948374
C  C189  1  0.55140000  0.59940000  0.30840000  1.0 0.1022623971
C  C190  1  0.58940000  0.72790000  0.34620000  1.0 -0.0608887974
C  C191  1  0.52570000  0.70670000  0.28150000  1.0 0.1022623971
C  C192  1  0.61590000  0.61220000  0.37380000  1.0 -0.099520968
C  C193  1  0.99500000  0.87520000  0.21290000  1.0 -0.0911365486
C  C194  1  0.92840000  0.87580000  0.20990000  1.0 -0.0821479001
C  C195  1  0.24510000  0.68810000  0.11310000  1.0 0.5928019493
C  C196  1  0.20700000  0.73480000  0.13130000  1.0 -0.010063958
C  C197  1  0.11330000  0.74620000  0.09070000  1.0 -0.0911365486
C  C198  1  0.08020000  0.78310000  0.11040000  1.0 -0.1485499879
C  C199  1  0.13970000  0.81060000  0.17230000  1.0 0.0888203767
C  C200  1  0.23190000  0.79880000  0.21220000  1.0 -0.1272181586
C  C201  1  0.26530000  0.76100000  0.19140000  1.0 -0.0911365486
C  C202  1  0.10330000  0.84720000  0.19450000  1.0 -0.0515551649
C  C203  1  0.14330000  0.89860000  0.23520000  1.0 -0.0715361104
C  C204  1  0.22860000  0.93110000  0.26390000  1.0 0.0721084174
C  C205  1  0.30230000  0.93380000  0.32890000  1.0 -0.1485499879
C  C206  1  0.38410000  0.95990000  0.35550000  1.0 -0.0821479001
C  C207  1  0.39550000  0.98960000  0.31830000  1.0 -0.0178428308
C  C208  1  0.32060000  0.98870000  0.25170000  1.0 -0.0821479001
C  C209  1  0.24020000  0.96040000  0.22460000  1.0 -0.1485499879
C  C210  1  0.48420000  0.01890000  0.34670000  1.0 0.5515811577
C  C211  1  0.78130000  0.85020000  0.18830000  1.0 -0.0515551649
C  C212  1  0.70060000  0.81330000  0.16680000  1.0 0.0721084174
C  C213  1  0.62170000  0.80910000  0.10440000  1.0 -0.1485499879
C  C214  1  0.54640000  0.77470000  0.08450000  1.0 -0.0911365486
C  C215  1  0.55130000  0.74270000  0.12930000  1.0 -0.010063958
C  C216  1  0.63340000  0.74750000  0.19400000  1.0 -0.0821479001
C  C217  1  0.70550000  0.78020000  0.21070000  1.0 -0.1376026251
C  C218  1  0.47300000  0.70580000  0.11170000  1.0 0.5515811577
C  C219  1  0.82320000  0.89960000  0.23140000  1.0 -0.0515551649
C  C220  1  0.79200000  0.92910000  0.26070000  1.0 0.0888203767
C  C221  1  0.70760000  0.95910000  0.22400000  1.0 -0.1376026251
C  C222  1  0.67990000  0.98600000  0.25210000  1.0 -0.0821479001
C  C223  1  0.73400000  0.98500000  0.31650000  1.0 -0.0035708254
C  C224  1  0.82030000  0.95500000  0.35530000  1.0 -0.1167450265
C  C225  1  0.84900000  0.92730000  0.32670000  1.0 -0.1552471385
C  C226  1  0.70760000  0.01850000  0.34860000  1.0 0.5928019493
C  C227  1  0.29350000  0.19840000  0.03570000  1.0 -0.1485499879
C  C228  1  0.16760000  0.11720000  0.97960000  1.0 0.4220950402
C  C229  1  0.12320000  0.05790000  0.93910000  1.0 -0.0608887974
C  C230  1  0.16800000  0.02510000  0.92220000  1.0 0.0235173258
C  C231  1  0.24930000  0.04730000  0.94050000  1.0 -0.0392400293
C  C232  1  0.29120000  0.10910000  0.98010000  1.0 0.4261383101
C  C233  1  0.28610000  0.01460000  0.92340000  1.0 -0.0911365486
C  C234  1  0.24620000  0.95600000  0.88650000  1.0 -0.099520968
C  C235  1  0.16770000  0.93310000  0.86910000  1.0 -0.0515551649
C  C236  1  0.12720000  0.96670000  0.88590000  1.0 0.0305963627
C  C237  1  0.04460000  0.94330000  0.86800000  1.0 -0.0715361104
C  C238  1  0.00590000  0.97700000  0.88480000  1.0 -0.099520968
C  C239  1  0.04760000  0.03330000  0.92080000  1.0 -0.0911365486
C  C240  1  0.00280000  0.88180000  0.83180000  1.0 0.4220950402
C  C241  1  0.12880000  0.86660000  0.83570000  1.0 0.4368576689
C  C242  1  0.01540000  0.78140000  0.78980000  1.0 -0.1485499879
C  C243  1  0.06030000  0.67460000  0.91780000  1.0 0.0888203767
C  C244  1  0.01830000  0.71880000  0.86730000  1.0 -0.1994777561
C  C245  1  0.05650000  0.72910000  0.84260000  1.0 0.1417565042
C  C246  1  0.13240000  0.69560000  0.86720000  1.0 -0.1880679519
C  C247  1  0.16960000  0.65010000  0.91530000  1.0 0.0888203767
C  C248  1  0.51160000  0.15680000  0.20080000  1.0 0.0368916064
C  C249  1  0.33140000  0.17060000  0.13820000  1.0 -0.1093876333
C  C250  1  0.39690000  0.14950000  0.20130000  1.0 0.0721084174
C  C251  1  0.44770000  0.17330000  0.13680000  1.0 -0.0392400293
C  C252  1  0.36030000  0.18030000  0.10570000  1.0 0.1193948374
C  C253  1  0.44860000  0.09940000  0.19160000  1.0 0.1022623971
C  C254  1  0.41060000  0.22790000  0.15380000  1.0 -0.0608887974
C  C255  1  0.47430000  0.20670000  0.21850000  1.0 0.1022623971
C  C256  1  0.38410000  0.11220000  0.12620000  1.0 -0.099520968
S  S1  1  0.00037000  0.68218000  0.66918000  1.0 0.0607448919
S  S2  1  0.08867000  0.57042000  0.75898000  1.0 0.0607448919
S  S3  1  0.83344000  0.67737000  0.66249000  1.0 0.0607448919
S  S4  1  0.92471000  0.56856000  0.75623000  1.0 0.0305963627
S  S5  1  0.99963000  0.18218000  0.83082000  1.0 0.0607448919
S  S6  1  0.91133000  0.07042000  0.74102000  1.0 0.0607448919
S  S7  1  0.16656000  0.17737000  0.83751000  1.0 0.0607448919
S  S8  1  0.07529000  0.06856000  0.74377000  1.0 0.0368916064
S  S9  1  0.99963000  0.31782000  0.33082000  1.0 0.0607448919
S  S10  1  0.91133000  0.42958000  0.24102000  1.0 0.0543824009
S  S11  1  0.16656000  0.32263000  0.33751000  1.0 0.0607448919
S  S12  1  0.07529000  0.43144000  0.24377000  1.0 0.0305963627
S  S13  1  0.00037000  0.81782000  0.16918000  1.0 0.0607448919
S  S14  1  0.08867000  0.92958000  0.25898000  1.0 0.0607448919
S  S15  1  0.83344000  0.82263000  0.16249000  1.0 0.0607448919
S  S16  1  0.92471000  0.93144000  0.25623000  1.0 0.0305963627
N  N1  1  0.13550000  0.85880000  0.44140000  1.0 -0.2755586073
N  N2  1  0.24780000  0.35950000  0.49560000  1.0 -0.1880679519
N  N3  1  0.04910000  0.65160000  0.31960000  1.0 -0.1712774352
N  N4  1  0.48790000  0.35490000  0.73480000  1.0 -0.0911365486
N  N5  1  0.86450000  0.35880000  0.05860000  1.0 -0.2755586073
N  N6  1  0.75220000  0.85950000  0.00440000  1.0 -0.1880679519
N  N7  1  0.95090000  0.15160000  0.18040000  1.0 -0.1763031201
N  N8  1  0.51210000  0.85490000  0.76520000  1.0 -0.0911365486
N  N9  1  0.86450000  0.14120000  0.55860000  1.0 -0.2755586073
N  N10  1  0.75220000  0.64050000  0.50440000  1.0 -0.1880679519
N  N11  1  0.95090000  0.34840000  0.68040000  1.0 -0.1763031201
N  N12  1  0.51210000  0.64510000  0.26520000  1.0 -0.0911365486
N  N13  1  0.13550000  0.64120000  0.94140000  1.0 -0.2755586073
N  N14  1  0.24780000  0.14050000  0.99560000  1.0 -0.1880679519
N  N15  1  0.04910000  0.84840000  0.81960000  1.0 -0.1763031201
N  N16  1  0.48790000  0.14510000  0.23480000  1.0 -0.0911365486
O  O1  1  0.18740000  0.84790000  0.56410000  1.0 -0.6068369911
O  O2  1  0.32940000  0.81070000  0.64680000  1.0 -0.5202813015
O  O3  1  0.48780000  0.45020000  0.81130000  1.0 -0.5548041627
O  O4  1  0.55040000  0.48510000  0.90640000  1.0 -0.493275182
O  O5  1  0.75830000  0.48980000  0.90730000  1.0 -0.5818138883
O  O6  1  0.63620000  0.44740000  0.81300000  1.0 -0.5379067675
O  O7  1  0.48270000  0.81340000  0.65670000  1.0 -0.5379067675
O  O8  1  0.40200000  0.80360000  0.55400000  1.0 -0.5027725266
O  O9  1  0.13900000  0.35260000  0.49850000  1.0 -0.3924906419
O  O10  1  0.36390000  0.37090000  0.49930000  1.0 -0.4096398817
O  O11  1  0.16330000  0.66550000  0.32200000  1.0 -0.4291013048
O  O12  1  0.93150000  0.63880000  0.31290000  1.0 -0.4356339962
O  O13  1  0.32760000  0.90160000  0.56330000  1.0 -0.1712774352
O  O14  1  0.06100000  0.94860000  0.47950000  1.0 -0.6760179863
O  O15  1  0.18950000  0.00150000  0.47190000  1.0 -0.6696934865
O  O16  1  0.81260000  0.34790000  0.93590000  1.0 -0.6068369911
O  O17  1  0.67060000  0.31070000  0.85320000  1.0 -0.5202813015
O  O18  1  0.51220000  0.95020000  0.68870000  1.0 -0.5548041627
O  O19  1  0.44960000  0.98510000  0.59360000  1.0 -0.493275182
O  O20  1  0.24170000  0.98980000  0.59270000  1.0 -0.5818138883
O  O21  1  0.36380000  0.94740000  0.68700000  1.0 -0.5379067675
O  O22  1  0.51730000  0.31340000  0.84330000  1.0 -0.5379067675
O  O23  1  0.59800000  0.30360000  0.94600000  1.0 -0.5027725266
O  O24  1  0.86100000  0.85260000  0.00150000  1.0 -0.3924906419
O  O25  1  0.63610000  0.87090000  0.00070000  1.0 -0.4096398817
O  O26  1  0.83670000  0.16550000  0.17800000  1.0 -0.4291013048
O  O27  1  0.06850000  0.13880000  0.18710000  1.0 -0.4356339962
O  O28  1  0.67240000  0.40160000  0.93670000  1.0 -0.1712774352
O  O29  1  0.93900000  0.44860000  0.02050000  1.0 -0.6696934865
O  O30  1  0.81050000  0.50150000  0.02810000  1.0 -0.6696934865
O  O31  1  0.81260000  0.15210000  0.43590000  1.0 -0.6068369911
O  O32  1  0.67060000  0.18930000  0.35320000  1.0 -0.5202813015
O  O33  1  0.51220000  0.54980000  0.18870000  1.0 -0.5548041627
O  O34  1  0.44960000  0.51490000  0.09360000  1.0 -0.493275182
O  O35  1  0.24170000  0.51020000  0.09270000  1.0 -0.5818138883
O  O36  1  0.36380000  0.55260000  0.18700000  1.0 -0.5379067675
O  O37  1  0.51730000  0.18660000  0.34330000  1.0 -0.5379067675
O  O38  1  0.59800000  0.19640000  0.44600000  1.0 -0.5027725266
O  O39  1  0.86100000  0.64740000  0.50150000  1.0 -0.3924906419
O  O40  1  0.63610000  0.62910000  0.50070000  1.0 -0.4096398817
O  O41  1  0.83670000  0.33450000  0.67800000  1.0 -0.4291013048
O  O42  1  0.06850000  0.36120000  0.68710000  1.0 -0.4356339962
O  O43  1  0.67240000  0.09840000  0.43670000  1.0 -0.1763031201
O  O44  1  0.93900000  0.05140000  0.52050000  1.0 -0.6760179863
O  O45  1  0.81050000  0.99850000  0.52810000  1.0 -0.6696934865
O  O46  1  0.18740000  0.65210000  0.06410000  1.0 -0.6068369911
O  O47  1  0.32940000  0.68930000  0.14680000  1.0 -0.5202813015
O  O48  1  0.48780000  0.04980000  0.31130000  1.0 -0.5548041627
O  O49  1  0.55040000  0.01490000  0.40640000  1.0 -0.493275182
O  O50  1  0.75830000  0.01020000  0.40730000  1.0 -0.5818138883
O  O51  1  0.63620000  0.05260000  0.31300000  1.0 -0.5379067675
O  O52  1  0.48270000  0.68660000  0.15670000  1.0 -0.5379067675
O  O53  1  0.40200000  0.69640000  0.05400000  1.0 -0.5027725266
O  O54  1  0.13900000  0.14740000  0.99850000  1.0 -0.3924906419
O  O55  1  0.36390000  0.12910000  0.99930000  1.0 -0.4096398817
O  O56  1  0.16330000  0.83450000  0.82200000  1.0 -0.4291013048
O  O57  1  0.93150000  0.86120000  0.81290000  1.0 -0.4356339962
O  O58  1  0.32760000  0.59840000  0.06330000  1.0 -0.1712774352
O  O59  1  0.06100000  0.55140000  0.97950000  1.0 -0.6696934865
O  O60  1  0.18950000  0.49850000  0.97190000  1.0 -0.6696934865
