# DDEC6 charges by PACMAN v1.1 (https://github.com/mtap-research/PACMAN-charge/)
data_ABIXOZ_FSR_pacman
_symmetry_space_group_name_H-M   'P 1'
_cell_length_a   12.78460000
_cell_length_b   12.83110000
_cell_length_c   15.99370000
_cell_angle_alpha   67.35800000
_cell_angle_beta   67.22400000
_cell_angle_gamma   63.05300000
_symmetry_Int_Tables_number   1
_chemical_formula_structural   Co3Mo12(P4O33)2
_chemical_formula_sum   'Co3 Mo12 P8 O66'
_cell_volume   2085.14154201
_cell_formula_units_Z   1
loop_
 _symmetry_equiv_pos_site_id
 _symmetry_equiv_pos_as_xyz
  1  'x, y, z'
loop_
 _atom_site_type_symbol
 _atom_site_label
 _atom_site_symmetry_multiplicity
 _atom_site_fract_x
 _atom_site_fract_y
 _atom_site_fract_z
 _atom_site_occupancy
 _atom_site_charge
Co  Co1  1  0.50000000  0.00000000  0.00000000  1.0 1.3585960245
Co  Co2  1  0.03364000  0.52729000  0.38380000  1.0 1.3585960245
Co  Co3  1  0.96636000  0.47271000  0.61620000  1.0 1.3540021754
Mo  Mo1  1  0.66155000  0.70436000  0.15697000  1.0 2.0227021551
Mo  Mo2  1  0.33845000  0.29564000  0.84303000  1.0 2.0227021551
Mo  Mo3  1  0.20636000  0.15811000  0.16284000  1.0 2.0092214237
Mo  Mo4  1  0.79364000  0.84189000  0.83716000  1.0 2.0092214237
Mo  Mo5  1  0.20000000  0.96118000  0.15867000  1.0 2.0092214237
Mo  Mo6  1  0.80000000  0.03882000  0.84133000  1.0 2.0092214237
Mo  Mo7  1  0.47623000  0.16176000  0.16503000  1.0 2.0036122974
Mo  Mo8  1  0.52377000  0.83824000  0.83497000  1.0 2.0092214237
Mo  Mo9  1  0.46194000  0.70115000  0.15402000  1.0 2.0092214237
Mo  Mo10  1  0.53806000  0.29885000  0.84598000  1.0 2.0036122974
Mo  Mo11  1  0.66947000  0.96767000  0.16436000  1.0 2.0036122974
Mo  Mo12  1  0.33053000  0.03233000  0.83564000  1.0 2.0092214237
P  P1  1  0.21071000  0.28542000  0.30999000  1.0 1.4872087216
P  P2  1  0.78929000  0.71458000  0.69001000  1.0 1.4872087216
P  P3  1  0.79428000  0.69981000  0.30515000  1.0 1.5004578209
P  P4  1  0.20572000  0.30019000  0.69485000  1.0 1.5004578209
P  P5  1  0.20704000  0.70239000  0.31838000  1.0 1.5158929205
P  P6  1  0.79296000  0.29761000  0.68162000  1.0 1.5119776106
P  P7  1  0.40718000  0.90026000  0.27181000  1.0 1.5289682722
P  P8  1  0.59282000  0.09974000  0.72819000  1.0 1.5289682722
O  O1  1  0.23490000  0.72320000  0.39750000  1.0 -0.5541093969
O  O2  1  0.76510000  0.27680000  0.60250000  1.0 -0.5564494554
O  O3  1  0.77470000  0.03140000  0.10420000  1.0 -0.4090211018
O  O4  1  0.22530000  0.96860000  0.89580000  1.0 -0.4090211018
O  O5  1  0.72650000  0.67500000  0.40830000  1.0 -0.5844327831
O  O6  1  0.27350000  0.32500000  0.59170000  1.0 -0.5871370061
O  O7  1  0.19010000  0.21580000  0.41350000  1.0 -0.5871370061
O  O8  1  0.80990000  0.78420000  0.58650000  1.0 -0.5871370061
O  O9  1  0.36400000  0.85280000  0.37520000  1.0 -0.5564494554
O  O10  1  0.63600000  0.14720000  0.62480000  1.0 -0.5564494554
O  O11  1  0.15680000  0.42080000  0.29590000  1.0 -0.7326539331
O  O12  1  0.84320000  0.57920000  0.70410000  1.0 -0.7326539331
O  O13  1  0.75480000  0.64570000  0.25530000  1.0 -0.7006014543
O  O14  1  0.24520000  0.35430000  0.74470000  1.0 -0.7006014543
O  O15  1  0.92690000  0.41530000  0.43290000  1.0 0.4345490313
O  O16  1  0.07310000  0.58470000  0.56710000  1.0 0.4394260919
O  O17  1  0.76230000  0.60140000  0.09700000  1.0 -0.4326499873
O  O18  1  0.23770000  0.39860000  0.90300000  1.0 -0.4326499873
O  O19  1  0.34900000  0.24930000  0.26540000  1.0 -0.6908936971
O  O20  1  0.65100000  0.75070000  0.73460000  1.0 -0.6908936971
O  O21  1  0.51530000  0.59740000  0.09490000  1.0 -0.4090211018
O  O22  1  0.48470000  0.40260000  0.90510000  1.0 -0.4090211018
O  O23  1  0.93140000  0.64410000  0.29020000  1.0 -0.7326539331
O  O24  1  0.06860000  0.35590000  0.70980000  1.0 -0.7326539331
O  O25  1  0.74630000  0.83120000  0.09420000  1.0 -0.7108591478
O  O26  1  0.25370000  0.16880000  0.90580000  1.0 -0.7108591478
O  O27  1  0.75760000  0.83820000  0.26270000  1.0 -0.6908936971
O  O28  1  0.24240000  0.16180000  0.73730000  1.0 -0.6908936971
O  O29  1  0.54050000  0.26680000  0.10490000  1.0 -0.4182394171
O  O30  1  0.45950000  0.73320000  0.89510000  1.0 -0.4182394171
O  O31  1  0.10040000  0.26020000  0.10570000  1.0 -0.4326499873
O  O32  1  0.89960000  0.73980000  0.89430000  1.0 -0.4326499873
O  O33  1  0.36050000  0.04040000  0.23830000  1.0 -0.8002340817
O  O34  1  0.63950000  0.95960000  0.76170000  1.0 -0.8002340817
O  O35  1  0.54730000  0.85420000  0.23460000  1.0 -0.8002340817
O  O36  1  0.45270000  0.14580000  0.76540000  1.0 -0.8002340817
O  O37  1  0.14000000  0.82500000  0.25950000  1.0 -0.7006014543
O  O38  1  0.86000000  0.17500000  0.74050000  1.0 -0.7006014543
O  O39  1  0.32740000  0.63870000  0.25520000  1.0 -0.7006014543
O  O40  1  0.67260000  0.36130000  0.74480000  1.0 -0.7006014543
O  O41  1  0.09240000  0.01550000  0.10240000  1.0 -0.4090211018
O  O42  1  0.90760000  0.98450000  0.89760000  1.0 -0.4090211018
O  O43  1  0.15180000  0.24810000  0.26280000  1.0 -0.7006014543
O  O44  1  0.84820000  0.75190000  0.73720000  1.0 -0.7006014543
O  O45  1  0.33500000  0.24000000  0.09910000  1.0 -0.7006014543
O  O46  1  0.66500000  0.76000000  0.90090000  1.0 -0.7108591478
O  O47  1  0.10710000  0.39210000  0.50270000  1.0 -0.1753803813
O  O48  1  0.89290000  0.60790000  0.49730000  1.0 -0.1683057272
O  O49  1  0.13050000  0.62620000  0.36990000  1.0 -0.7108591478
O  O50  1  0.86950000  0.37380000  0.63010000  1.0 -0.7108591478
O  O51  1  0.32000000  0.82420000  0.08850000  1.0 -0.7108591478
O  O52  1  0.68000000  0.17580000  0.91150000  1.0 -0.7108591478
O  O53  1  0.35770000  0.85410000  0.22270000  1.0 -0.8002340817
O  O54  1  0.64230000  0.14590000  0.77730000  1.0 -0.8002340817
O  O55  1  0.13210000  0.04300000  0.25770000  1.0 -0.7505049729
O  O56  1  0.86790000  0.95700000  0.74230000  1.0 -0.7505049729
O  O57  1  0.54780000  0.62980000  0.25170000  1.0 -0.7505049729
O  O58  1  0.45220000  0.37020000  0.74830000  1.0 -0.7505049729
O  O59  1  0.56250000  0.05400000  0.26120000  1.0 -0.7580702924
O  O60  1  0.43750000  0.94600000  0.73880000  1.0 -0.7580702924
O  O61  1  0.55730000  0.05060000  0.08190000  1.0 -0.8235520744
O  O62  1  0.44270000  0.94940000  0.91810000  1.0 -0.8235520744
O  O63  1  0.31010000  0.05080000  0.07680000  1.0 -0.8126552128
O  O64  1  0.68990000  0.94920000  0.92320000  1.0 -0.8126552128
O  O65  1  0.55190000  0.81180000  0.07310000  1.0 -0.8126552128
O  O66  1  0.44810000  0.18820000  0.92690000  1.0 -0.8126552128
