# DDEC6 charges by PACMAN v1.1 (https://github.com/mtap-research/PACMAN-charge/)
data_ACIJIJ_ASR_pacman
_symmetry_space_group_name_H-M   'P 1'
_cell_length_a   18.26400000
_cell_length_b   18.26400000
_cell_length_c   12.92400000
_cell_angle_alpha   90.00000000
_cell_angle_beta   90.00000000
_cell_angle_gamma   90.00000000
_symmetry_Int_Tables_number   1
_chemical_formula_structural   Cu6H24C96N12ClO16
_chemical_formula_sum   'Cu12 H48 C192 N24 Cl2 O32'
_cell_volume   4311.10644710
_cell_formula_units_Z   2
loop_
 _symmetry_equiv_pos_site_id
 _symmetry_equiv_pos_as_xyz
  1  'x, y, z'
loop_
 _atom_site_type_symbol
 _atom_site_label
 _atom_site_symmetry_multiplicity
 _atom_site_fract_x
 _atom_site_fract_y
 _atom_site_fract_z
 _atom_site_occupancy
 _atom_site_charge
Cu  Cu1  1  0.86573000  0.00000000  0.00000000  1.0 0.820236184
Cu  Cu2  1  0.13427000  0.00000000  0.00000000  1.0 0.820236184
Cu  Cu3  1  0.50000000  0.63427000  0.50000000  1.0 0.820236184
Cu  Cu4  1  0.50000000  0.36573000  0.50000000  1.0 0.820236184
Cu  Cu5  1  0.63427000  0.50000000  0.50000000  1.0 0.820236184
Cu  Cu6  1  0.36573000  0.50000000  0.50000000  1.0 0.820236184
Cu  Cu7  1  0.00000000  0.86573000  0.00000000  1.0 0.820236184
Cu  Cu8  1  0.00000000  0.13427000  0.00000000  1.0 0.820236184
Cu  Cu9  1  0.75000000  0.75000000  0.75000000  1.0 0.7756409723
Cu  Cu10  1  0.25000000  0.25000000  0.75000000  1.0 0.7748842913
Cu  Cu11  1  0.25000000  0.75000000  0.25000000  1.0 0.7748842913
Cu  Cu12  1  0.75000000  0.25000000  0.25000000  1.0 0.7756409723
H  H1  1  0.70289000  0.89840000  0.79286000  1.0 0.1745691973
H  H2  1  0.70801000  0.93225000  0.90409000  1.0 0.1796961504
H  H3  1  0.74475000  0.97232000  0.81022000  1.0 0.1745691973
H  H4  1  0.29711000  0.10160000  0.79286000  1.0 0.1745691973
H  H5  1  0.29199000  0.06775000  0.90409000  1.0 0.1796961504
H  H6  1  0.25525000  0.02768000  0.81022000  1.0 0.1745691973
H  H7  1  0.39840000  0.79711000  0.29286000  1.0 0.1745691973
H  H8  1  0.43225000  0.79199000  0.40409000  1.0 0.1796961504
H  H9  1  0.47232000  0.75525000  0.31022000  1.0 0.1745691973
H  H10  1  0.60160000  0.20289000  0.29286000  1.0 0.1745691973
H  H11  1  0.56775000  0.20801000  0.40409000  1.0 0.1796961504
H  H12  1  0.52768000  0.24475000  0.31022000  1.0 0.1745691973
H  H13  1  0.70289000  0.10160000  0.20714000  1.0 0.1745691973
H  H14  1  0.70801000  0.06775000  0.09591000  1.0 0.1796961504
H  H15  1  0.74475000  0.02768000  0.18978000  1.0 0.1745691973
H  H16  1  0.29711000  0.89840000  0.20714000  1.0 0.1745691973
H  H17  1  0.29199000  0.93225000  0.09591000  1.0 0.1796961504
H  H18  1  0.25525000  0.97232000  0.18978000  1.0 0.1745691973
H  H19  1  0.39840000  0.20289000  0.70714000  1.0 0.1745691973
H  H20  1  0.43225000  0.20801000  0.59591000  1.0 0.1796961504
H  H21  1  0.47232000  0.24475000  0.68978000  1.0 0.1745691973
H  H22  1  0.60160000  0.79711000  0.70714000  1.0 0.1745691973
H  H23  1  0.56775000  0.79199000  0.59591000  1.0 0.1796961504
H  H24  1  0.52768000  0.75525000  0.68978000  1.0 0.1745691973
H  H25  1  0.79711000  0.60160000  0.70714000  1.0 0.1745691973
H  H26  1  0.79199000  0.56775000  0.59591000  1.0 0.1796961504
H  H27  1  0.75525000  0.52768000  0.68978000  1.0 0.1745691973
H  H28  1  0.20289000  0.39840000  0.70714000  1.0 0.1745691973
H  H29  1  0.20801000  0.43225000  0.59591000  1.0 0.1796961504
H  H30  1  0.24475000  0.47232000  0.68978000  1.0 0.1745691973
H  H31  1  0.10160000  0.70289000  0.20714000  1.0 0.1745691973
H  H32  1  0.06775000  0.70801000  0.09591000  1.0 0.1796961504
H  H33  1  0.02768000  0.74475000  0.18978000  1.0 0.1745691973
H  H34  1  0.89840000  0.29711000  0.20714000  1.0 0.1745691973
H  H35  1  0.93225000  0.29199000  0.09591000  1.0 0.1796961504
H  H36  1  0.97232000  0.25525000  0.18978000  1.0 0.1745691973
H  H37  1  0.79711000  0.39840000  0.29286000  1.0 0.1745691973
H  H38  1  0.79199000  0.43225000  0.40409000  1.0 0.1796961504
H  H39  1  0.75525000  0.47232000  0.31022000  1.0 0.1745691973
H  H40  1  0.20289000  0.60160000  0.29286000  1.0 0.1745691973
H  H41  1  0.20801000  0.56775000  0.40409000  1.0 0.1796961504
H  H42  1  0.24475000  0.52768000  0.31022000  1.0 0.1745691973
H  H43  1  0.10160000  0.29711000  0.79286000  1.0 0.1745691973
H  H44  1  0.06775000  0.29199000  0.90409000  1.0 0.1796961504
H  H45  1  0.02768000  0.25525000  0.81022000  1.0 0.1745691973
H  H46  1  0.89840000  0.70289000  0.79286000  1.0 0.1745691973
H  H47  1  0.93225000  0.70801000  0.90409000  1.0 0.1796961504
H  H48  1  0.97232000  0.74475000  0.81022000  1.0 0.1745691973
C  C1  1  0.80220000  0.88430000  0.85850000  1.0 0.4115317541
C  C2  1  0.73340000  0.92540000  0.83980000  1.0 -0.5361827758
C  C3  1  0.91120000  0.83920000  0.33720000  1.0 -0.0202424288
C  C4  1  0.78356000  0.84670000  0.29190000  1.0 0.016515169
C  C5  1  0.89240000  0.81180000  0.43390000  1.0 0.0040643558
C  C6  1  0.76480000  0.81930000  0.38870000  1.0 0.0343299279
C  C7  1  0.72870000  0.85720000  0.21140000  1.0 0.0406062895
C  C8  1  0.81920000  0.80190000  0.45970000  1.0 0.0406062895
C  C9  1  0.69090000  0.80970000  0.40770000  1.0 -0.1321767901
C  C10  1  0.67920000  0.86120000  0.16480000  1.0 -0.0129349215
C  C11  1  0.19780000  0.11570000  0.85850000  1.0 0.4115317541
C  C12  1  0.26660000  0.07460000  0.83980000  1.0 -0.5361827758
C  C13  1  0.08880000  0.16080000  0.33720000  1.0 -0.0202424288
C  C14  1  0.21644000  0.15330000  0.29190000  1.0 0.016515169
C  C15  1  0.10760000  0.18820000  0.43390000  1.0 0.0040643558
C  C16  1  0.23520000  0.18070000  0.38870000  1.0 0.0343299279
C  C17  1  0.27130000  0.14280000  0.21140000  1.0 0.0406062895
C  C18  1  0.18080000  0.19810000  0.45970000  1.0 0.0406062895
C  C19  1  0.30910000  0.19030000  0.40770000  1.0 -0.1321767901
C  C20  1  0.32080000  0.13880000  0.16480000  1.0 -0.0129349215
C  C21  1  0.38430000  0.69780000  0.35850000  1.0 0.4115317541
C  C22  1  0.42540000  0.76660000  0.33980000  1.0 -0.5361827758
C  C23  1  0.33920000  0.58880000  0.83720000  1.0 -0.0202424288
C  C24  1  0.34670000  0.71644000  0.79190000  1.0 0.016515169
C  C25  1  0.31180000  0.60760000  0.93390000  1.0 0.0040643558
C  C26  1  0.31930000  0.73520000  0.88870000  1.0 0.0343299279
C  C27  1  0.35720000  0.77130000  0.71140000  1.0 0.0406062895
C  C28  1  0.30190000  0.68080000  0.95970000  1.0 0.0406062895
C  C29  1  0.30970000  0.80910000  0.90770000  1.0 -0.1321767901
C  C30  1  0.36120000  0.82080000  0.66480000  1.0 -0.0129349215
C  C31  1  0.61570000  0.30220000  0.35850000  1.0 0.4115317541
C  C32  1  0.57460000  0.23340000  0.33980000  1.0 -0.5361827758
C  C33  1  0.66080000  0.41120000  0.83720000  1.0 -0.0202424288
C  C34  1  0.65330000  0.28356000  0.79190000  1.0 0.016515169
C  C35  1  0.68820000  0.39240000  0.93390000  1.0 0.0040643558
C  C36  1  0.68070000  0.26480000  0.88870000  1.0 0.0343299279
C  C37  1  0.64280000  0.22870000  0.71140000  1.0 0.0406062895
C  C38  1  0.69810000  0.31920000  0.95970000  1.0 0.0406062895
C  C39  1  0.69030000  0.19090000  0.90770000  1.0 -0.1321767901
C  C40  1  0.63880000  0.17920000  0.66480000  1.0 -0.0129349215
C  C41  1  0.80220000  0.11570000  0.14150000  1.0 0.4115317541
C  C42  1  0.73340000  0.07460000  0.16020000  1.0 -0.5361827758
C  C43  1  0.91120000  0.16080000  0.66280000  1.0 -0.0202424288
C  C44  1  0.78356000  0.15330000  0.70810000  1.0 0.016515169
C  C45  1  0.89240000  0.18820000  0.56610000  1.0 0.0040643558
C  C46  1  0.76480000  0.18070000  0.61130000  1.0 0.0343299279
C  C47  1  0.72870000  0.14280000  0.78860000  1.0 0.0406062895
C  C48  1  0.81920000  0.19810000  0.54030000  1.0 0.0406062895
C  C49  1  0.69090000  0.19030000  0.59230000  1.0 -0.1321767901
C  C50  1  0.67920000  0.13880000  0.83520000  1.0 -0.0129349215
C  C51  1  0.19780000  0.88430000  0.14150000  1.0 0.4115317541
C  C52  1  0.26660000  0.92540000  0.16020000  1.0 -0.5361827758
C  C53  1  0.08880000  0.83920000  0.66280000  1.0 -0.0202424288
C  C54  1  0.21644000  0.84670000  0.70810000  1.0 0.016515169
C  C55  1  0.10760000  0.81180000  0.56610000  1.0 0.0040643558
C  C56  1  0.23520000  0.81930000  0.61130000  1.0 0.0343299279
C  C57  1  0.27130000  0.85720000  0.78860000  1.0 0.0406062895
C  C58  1  0.18080000  0.80190000  0.54030000  1.0 0.0406062895
C  C59  1  0.30910000  0.80970000  0.59230000  1.0 -0.1321767901
C  C60  1  0.32080000  0.86120000  0.83520000  1.0 -0.0129349215
C  C61  1  0.38430000  0.30220000  0.64150000  1.0 0.4115317541
C  C62  1  0.42540000  0.23340000  0.66020000  1.0 -0.5361827758
C  C63  1  0.33920000  0.41120000  0.16280000  1.0 -0.0202424288
C  C64  1  0.34670000  0.28356000  0.20810000  1.0 0.016515169
C  C65  1  0.31180000  0.39240000  0.06610000  1.0 0.0040643558
C  C66  1  0.31930000  0.26480000  0.11130000  1.0 0.0343299279
C  C67  1  0.35720000  0.22870000  0.28860000  1.0 0.0406062895
C  C68  1  0.30190000  0.31920000  0.04030000  1.0 0.0406062895
C  C69  1  0.30970000  0.19090000  0.09230000  1.0 -0.1321767901
C  C70  1  0.36120000  0.17920000  0.33520000  1.0 -0.0129349215
C  C71  1  0.61570000  0.69780000  0.64150000  1.0 0.4115317541
C  C72  1  0.57460000  0.76660000  0.66020000  1.0 -0.5361827758
C  C73  1  0.66080000  0.58880000  0.16280000  1.0 -0.0202424288
C  C74  1  0.65330000  0.71644000  0.20810000  1.0 0.016515169
C  C75  1  0.68820000  0.60760000  0.06610000  1.0 0.0040643558
C  C76  1  0.68070000  0.73520000  0.11130000  1.0 0.0343299279
C  C77  1  0.64280000  0.77130000  0.28860000  1.0 0.0406062895
C  C78  1  0.69810000  0.68080000  0.04030000  1.0 0.0406062895
C  C79  1  0.69030000  0.80910000  0.09230000  1.0 -0.1321767901
C  C80  1  0.63880000  0.82080000  0.33520000  1.0 -0.0129349215
C  C81  1  0.69780000  0.61570000  0.64150000  1.0 0.4115317541
C  C82  1  0.76660000  0.57460000  0.66020000  1.0 -0.5361827758
C  C83  1  0.58880000  0.66080000  0.16280000  1.0 -0.0202424288
C  C84  1  0.71644000  0.65330000  0.20810000  1.0 0.016515169
C  C85  1  0.60760000  0.68820000  0.06610000  1.0 0.0040643558
C  C86  1  0.73520000  0.68070000  0.11130000  1.0 0.0343299279
C  C87  1  0.77130000  0.64280000  0.28860000  1.0 0.0406062895
C  C88  1  0.68080000  0.69810000  0.04030000  1.0 0.0406062895
C  C89  1  0.80910000  0.69030000  0.09230000  1.0 -0.1321767901
C  C90  1  0.82080000  0.63880000  0.33520000  1.0 -0.0129349215
C  C91  1  0.30220000  0.38430000  0.64150000  1.0 0.4115317541
C  C92  1  0.23340000  0.42540000  0.66020000  1.0 -0.5361827758
C  C93  1  0.41120000  0.33920000  0.16280000  1.0 -0.0202424288
C  C94  1  0.28356000  0.34670000  0.20810000  1.0 0.016515169
C  C95  1  0.39240000  0.31180000  0.06610000  1.0 0.0040643558
C  C96  1  0.26480000  0.31930000  0.11130000  1.0 0.0343299279
C  C97  1  0.22870000  0.35720000  0.28860000  1.0 0.0406062895
C  C98  1  0.31920000  0.30190000  0.04030000  1.0 0.0406062895
C  C99  1  0.19090000  0.30970000  0.09230000  1.0 -0.1321767901
C  C100  1  0.17920000  0.36120000  0.33520000  1.0 -0.0129349215
C  C101  1  0.11570000  0.80220000  0.14150000  1.0 0.4115317541
C  C102  1  0.07460000  0.73340000  0.16020000  1.0 -0.5361827758
C  C103  1  0.16080000  0.91120000  0.66280000  1.0 -0.0202424288
C  C104  1  0.15330000  0.78356000  0.70810000  1.0 0.016515169
C  C105  1  0.18820000  0.89240000  0.56610000  1.0 0.0040643558
C  C106  1  0.18070000  0.76480000  0.61130000  1.0 0.0343299279
C  C107  1  0.14280000  0.72870000  0.78860000  1.0 0.0406062895
C  C108  1  0.19810000  0.81920000  0.54030000  1.0 0.0406062895
C  C109  1  0.19030000  0.69090000  0.59230000  1.0 -0.1321767901
C  C110  1  0.13880000  0.67920000  0.83520000  1.0 -0.0129349215
C  C111  1  0.88430000  0.19780000  0.14150000  1.0 0.4115317541
C  C112  1  0.92540000  0.26660000  0.16020000  1.0 -0.5361827758
C  C113  1  0.83920000  0.08880000  0.66280000  1.0 -0.0202424288
C  C114  1  0.84670000  0.21644000  0.70810000  1.0 0.016515169
C  C115  1  0.81180000  0.10760000  0.56610000  1.0 0.0040643558
C  C116  1  0.81930000  0.23520000  0.61130000  1.0 0.0343299279
C  C117  1  0.85720000  0.27130000  0.78860000  1.0 0.0406062895
C  C118  1  0.80190000  0.18080000  0.54030000  1.0 0.0406062895
C  C119  1  0.80970000  0.30910000  0.59230000  1.0 -0.1321767901
C  C120  1  0.86120000  0.32080000  0.83520000  1.0 -0.0129349215
C  C121  1  0.69780000  0.38430000  0.35850000  1.0 0.4115317541
C  C122  1  0.76660000  0.42540000  0.33980000  1.0 -0.5361827758
C  C123  1  0.58880000  0.33920000  0.83720000  1.0 -0.0202424288
C  C124  1  0.71644000  0.34670000  0.79190000  1.0 0.016515169
C  C125  1  0.60760000  0.31180000  0.93390000  1.0 0.0040643558
C  C126  1  0.73520000  0.31930000  0.88870000  1.0 0.0343299279
C  C127  1  0.77130000  0.35720000  0.71140000  1.0 0.0406062895
C  C128  1  0.68080000  0.30190000  0.95970000  1.0 0.0406062895
C  C129  1  0.80910000  0.30970000  0.90770000  1.0 -0.1321767901
C  C130  1  0.82080000  0.36120000  0.66480000  1.0 -0.0129349215
C  C131  1  0.30220000  0.61570000  0.35850000  1.0 0.4115317541
C  C132  1  0.23340000  0.57460000  0.33980000  1.0 -0.5361827758
C  C133  1  0.41120000  0.66080000  0.83720000  1.0 -0.0202424288
C  C134  1  0.28356000  0.65330000  0.79190000  1.0 0.016515169
C  C135  1  0.39240000  0.68820000  0.93390000  1.0 0.0040643558
C  C136  1  0.26480000  0.68070000  0.88870000  1.0 0.0343299279
C  C137  1  0.22870000  0.64280000  0.71140000  1.0 0.0406062895
C  C138  1  0.31920000  0.69810000  0.95970000  1.0 0.0406062895
C  C139  1  0.19090000  0.69030000  0.90770000  1.0 -0.1321767901
C  C140  1  0.17920000  0.63880000  0.66480000  1.0 -0.0129349215
C  C141  1  0.11570000  0.19780000  0.85850000  1.0 0.4115317541
C  C142  1  0.07460000  0.26660000  0.83980000  1.0 -0.5361827758
C  C143  1  0.16080000  0.08880000  0.33720000  1.0 -0.0202424288
C  C144  1  0.15330000  0.21644000  0.29190000  1.0 0.016515169
C  C145  1  0.18820000  0.10760000  0.43390000  1.0 0.0040643558
C  C146  1  0.18070000  0.23520000  0.38870000  1.0 0.0343299279
C  C147  1  0.14280000  0.27130000  0.21140000  1.0 0.0406062895
C  C148  1  0.19810000  0.18080000  0.45970000  1.0 0.0406062895
C  C149  1  0.19030000  0.30910000  0.40770000  1.0 -0.1321767901
C  C150  1  0.13880000  0.32080000  0.16480000  1.0 -0.0129349215
C  C151  1  0.88430000  0.80220000  0.85850000  1.0 0.4115317541
C  C152  1  0.92540000  0.73340000  0.83980000  1.0 -0.5361827758
C  C153  1  0.83920000  0.91120000  0.33720000  1.0 -0.0202424288
C  C154  1  0.84670000  0.78356000  0.29190000  1.0 0.016515169
C  C155  1  0.81180000  0.89240000  0.43390000  1.0 0.0040643558
C  C156  1  0.81930000  0.76480000  0.38870000  1.0 0.0343299279
C  C157  1  0.85720000  0.72870000  0.21140000  1.0 0.0406062895
C  C158  1  0.80190000  0.81920000  0.45970000  1.0 0.0406062895
C  C159  1  0.80970000  0.69090000  0.40770000  1.0 -0.1321767901
C  C160  1  0.86120000  0.67920000  0.16480000  1.0 -0.0129349215
C  C161  1  0.88560000  0.88560000  0.16360000  1.0 0.5955206233
C  C162  1  0.85670000  0.85670000  0.26620000  1.0 -0.0129349215
C  C163  1  0.70800000  0.70800000  0.93010000  1.0 0.4706337344
C  C164  1  0.11440000  0.11440000  0.16360000  1.0 0.5948779065
C  C165  1  0.14330000  0.14330000  0.26620000  1.0 -0.0129349215
C  C166  1  0.29200000  0.29200000  0.93010000  1.0 0.4706337344
C  C167  1  0.38560000  0.61440000  0.66360000  1.0 0.5955206233
C  C168  1  0.35670000  0.64330000  0.76620000  1.0 -0.0129349215
C  C169  1  0.20800000  0.79200000  0.43010000  1.0 0.4706337344
C  C170  1  0.61440000  0.38560000  0.66360000  1.0 0.5955206233
C  C171  1  0.64330000  0.35670000  0.76620000  1.0 -0.0129349215
C  C172  1  0.79200000  0.20800000  0.43010000  1.0 0.4706337344
C  C173  1  0.88560000  0.11440000  0.83640000  1.0 0.5955206233
C  C174  1  0.85670000  0.14330000  0.73380000  1.0 -0.0129349215
C  C175  1  0.70800000  0.29200000  0.06990000  1.0 0.4706337344
C  C176  1  0.11440000  0.88560000  0.83640000  1.0 0.5955206233
C  C177  1  0.14330000  0.85670000  0.73380000  1.0 -0.0202424288
C  C178  1  0.29200000  0.70800000  0.06990000  1.0 0.4706337344
C  C179  1  0.38560000  0.38560000  0.33640000  1.0 0.5948779065
C  C180  1  0.35670000  0.35670000  0.23380000  1.0 -0.0129349215
C  C181  1  0.20800000  0.20800000  0.56990000  1.0 0.4706337344
C  C182  1  0.61440000  0.61440000  0.33640000  1.0 0.5955206233
C  C183  1  0.64330000  0.64330000  0.23380000  1.0 -0.0129349215
C  C184  1  0.79200000  0.79200000  0.56990000  1.0 0.4706337344
C  C185  1  0.65650000  0.84350000  0.25000000  1.0 -0.0129349215
C  C186  1  0.34350000  0.15650000  0.25000000  1.0 -0.0129349215
C  C187  1  0.34350000  0.84350000  0.75000000  1.0 -0.0129349215
C  C188  1  0.65650000  0.15650000  0.75000000  1.0 -0.0129349215
C  C189  1  0.84350000  0.65650000  0.25000000  1.0 -0.0129349215
C  C190  1  0.15650000  0.34350000  0.25000000  1.0 -0.0129349215
C  C191  1  0.15650000  0.65650000  0.75000000  1.0 -0.0129349215
C  C192  1  0.84350000  0.34350000  0.75000000  1.0 -0.0129349215
N  N1  1  0.85710000  0.91040000  0.91570000  1.0 -0.2701578845
N  N2  1  0.14290000  0.08960000  0.91570000  1.0 -0.2701578845
N  N3  1  0.41040000  0.64290000  0.41570000  1.0 -0.2701578845
N  N4  1  0.58960000  0.35710000  0.41570000  1.0 -0.2701578845
N  N5  1  0.85710000  0.08960000  0.08430000  1.0 -0.2701578845
N  N6  1  0.14290000  0.91040000  0.08430000  1.0 -0.2701578845
N  N7  1  0.41040000  0.35710000  0.58430000  1.0 -0.2701578845
N  N8  1  0.58960000  0.64290000  0.58430000  1.0 -0.2701578845
N  N9  1  0.64290000  0.58960000  0.58430000  1.0 -0.2701578845
N  N10  1  0.35710000  0.41040000  0.58430000  1.0 -0.2701578845
N  N11  1  0.08960000  0.85710000  0.08430000  1.0 -0.2701578845
N  N12  1  0.91040000  0.14290000  0.08430000  1.0 -0.2701578845
N  N13  1  0.64290000  0.41040000  0.41570000  1.0 -0.2701578845
N  N14  1  0.35710000  0.58960000  0.41570000  1.0 -0.2701578845
N  N15  1  0.08960000  0.14290000  0.91570000  1.0 -0.2701578845
N  N16  1  0.91040000  0.85710000  0.91570000  1.0 -0.2701578845
N  N17  1  0.81750000  0.81750000  0.82220000  1.0 -0.3916275386
N  N18  1  0.18250000  0.18250000  0.82220000  1.0 -0.3916275386
N  N19  1  0.31750000  0.68250000  0.32220000  1.0 -0.3916275386
N  N20  1  0.68250000  0.31750000  0.32220000  1.0 -0.3916275386
N  N21  1  0.81750000  0.18250000  0.17780000  1.0 -0.3916275386
N  N22  1  0.18250000  0.81750000  0.17780000  1.0 -0.3916275386
N  N23  1  0.31750000  0.31750000  0.67780000  1.0 -0.3916275386
N  N24  1  0.68250000  0.68250000  0.67780000  1.0 -0.3916275386
Cl  Cl1  1  0.00000000  0.00000000  0.00000000  1.0 -0.5852293295
Cl  Cl2  1  0.50000000  0.50000000  0.50000000  1.0 -0.5828612965
O  O1  1  0.85340000  0.94090000  0.12570000  1.0 -0.500863075
O  O2  1  0.67480000  0.75790000  0.88590000  1.0 -0.4586499703
O  O3  1  0.14660000  0.05910000  0.12570000  1.0 -0.500863075
O  O4  1  0.32520000  0.24210000  0.88590000  1.0 -0.4586499703
O  O5  1  0.44090000  0.64660000  0.62570000  1.0 -0.500863075
O  O6  1  0.25790000  0.82520000  0.38590000  1.0 -0.4586499703
O  O7  1  0.55910000  0.35340000  0.62570000  1.0 -0.500863075
O  O8  1  0.74210000  0.17480000  0.38590000  1.0 -0.4586499703
O  O9  1  0.85340000  0.05910000  0.87430000  1.0 -0.500863075
O  O10  1  0.67480000  0.24210000  0.11410000  1.0 -0.4586499703
O  O11  1  0.14660000  0.94090000  0.87430000  1.0 -0.500863075
O  O12  1  0.32520000  0.75790000  0.11410000  1.0 -0.4586499703
O  O13  1  0.44090000  0.35340000  0.37430000  1.0 -0.500863075
O  O14  1  0.25790000  0.17480000  0.61410000  1.0 -0.4586499703
O  O15  1  0.55910000  0.64660000  0.37430000  1.0 -0.500863075
O  O16  1  0.74210000  0.82520000  0.61410000  1.0 -0.4586499703
O  O17  1  0.64660000  0.55910000  0.37430000  1.0 -0.500863075
O  O18  1  0.82520000  0.74210000  0.61410000  1.0 -0.4586499703
O  O19  1  0.35340000  0.44090000  0.37430000  1.0 -0.500863075
O  O20  1  0.17480000  0.25790000  0.61410000  1.0 -0.4586499703
O  O21  1  0.05910000  0.85340000  0.87430000  1.0 -0.500863075
O  O22  1  0.24210000  0.67480000  0.11410000  1.0 -0.4586499703
O  O23  1  0.94090000  0.14660000  0.87430000  1.0 -0.500863075
O  O24  1  0.75790000  0.32520000  0.11410000  1.0 -0.4586499703
O  O25  1  0.64660000  0.44090000  0.62570000  1.0 -0.500863075
O  O26  1  0.82520000  0.25790000  0.38590000  1.0 -0.4586499703
O  O27  1  0.35340000  0.55910000  0.62570000  1.0 -0.500863075
O  O28  1  0.17480000  0.74210000  0.38590000  1.0 -0.4586499703
O  O29  1  0.05910000  0.14660000  0.12570000  1.0 -0.500863075
O  O30  1  0.24210000  0.32520000  0.88590000  1.0 -0.4586499703
O  O31  1  0.94090000  0.85340000  0.12570000  1.0 -0.500863075
O  O32  1  0.75790000  0.67480000  0.88590000  1.0 -0.4586499703
