# DDEC6 charges by PACMAN v1.1 (https://github.com/mtap-research/PACMAN-charge/)
data_ACOCOM_ASR_pacman
_symmetry_space_group_name_H-M   'P 1'
_cell_length_a   32.94270000
_cell_length_b   32.94270000
_cell_length_c   32.94270000
_cell_angle_alpha   60.00000000
_cell_angle_beta   60.00000000
_cell_angle_gamma   60.00000000
_symmetry_Int_Tables_number   1
_chemical_formula_structural   CuH14C24NO4
_chemical_formula_sum   'Cu12 H168 C288 N12 O48'
_cell_volume   25279.15635145
_cell_formula_units_Z   12
loop_
 _symmetry_equiv_pos_site_id
 _symmetry_equiv_pos_as_xyz
  1  'x, y, z'
loop_
 _atom_site_type_symbol
 _atom_site_label
 _atom_site_symmetry_multiplicity
 _atom_site_fract_x
 _atom_site_fract_y
 _atom_site_fract_z
 _atom_site_occupancy
 _atom_site_charge
Cu  Cu1  1  0.35050000  0.35050000  0.64950000  1.0 0.8319842803
Cu  Cu2  1  0.64950000  0.64950000  0.35050000  1.0 0.8319842803
Cu  Cu3  1  0.64950000  0.35050000  0.35050000  1.0 0.8319842803
Cu  Cu4  1  0.35050000  0.64950000  0.35050000  1.0 0.8319842803
Cu  Cu5  1  0.35050000  0.64950000  0.64950000  1.0 0.8319842803
Cu  Cu6  1  0.64950000  0.35050000  0.64950000  1.0 0.8319842803
Cu  Cu7  1  0.29400000  0.29400000  0.70600000  1.0 0.859506884
Cu  Cu8  1  0.70600000  0.70600000  0.29400000  1.0 0.859506884
Cu  Cu9  1  0.70600000  0.29400000  0.29400000  1.0 0.859506884
Cu  Cu10  1  0.29400000  0.70600000  0.29400000  1.0 0.859506884
Cu  Cu11  1  0.29400000  0.70600000  0.70600000  1.0 0.859506884
Cu  Cu12  1  0.70600000  0.29400000  0.70600000  1.0 0.859506884
H  H1  1  0.27280000  0.45680000  0.72720000  1.0 0.1394271277
H  H2  1  0.45680000  0.27280000  0.72720000  1.0 0.1394271277
H  H3  1  0.45680000  0.27280000  0.54320000  1.0 0.1394271277
H  H4  1  0.27280000  0.45680000  0.54320000  1.0 0.1394271277
H  H5  1  0.54320000  0.72720000  0.45680000  1.0 0.1394271277
H  H6  1  0.72720000  0.54320000  0.45680000  1.0 0.1394271277
H  H7  1  0.72720000  0.54320000  0.27280000  1.0 0.1394271277
H  H8  1  0.54320000  0.72720000  0.27280000  1.0 0.1394271277
H  H9  1  0.72720000  0.27280000  0.45680000  1.0 0.1394271277
H  H10  1  0.45680000  0.54320000  0.27280000  1.0 0.1394271277
H  H11  1  0.27280000  0.72720000  0.54320000  1.0 0.1394271277
H  H12  1  0.54320000  0.45680000  0.72720000  1.0 0.1394271277
H  H13  1  0.54320000  0.45680000  0.27280000  1.0 0.1394271277
H  H14  1  0.27280000  0.72720000  0.45680000  1.0 0.1394271277
H  H15  1  0.45680000  0.54320000  0.72720000  1.0 0.1394271277
H  H16  1  0.72720000  0.27280000  0.54320000  1.0 0.1394271277
H  H17  1  0.45680000  0.72720000  0.27280000  1.0 0.1394271277
H  H18  1  0.27280000  0.54320000  0.72720000  1.0 0.1394271277
H  H19  1  0.45680000  0.72720000  0.54320000  1.0 0.1394271277
H  H20  1  0.54320000  0.27280000  0.45680000  1.0 0.1394271277
H  H21  1  0.72720000  0.45680000  0.27280000  1.0 0.1394271277
H  H22  1  0.54320000  0.27280000  0.72720000  1.0 0.1394271277
H  H23  1  0.72720000  0.45680000  0.54320000  1.0 0.1394271277
H  H24  1  0.27280000  0.54320000  0.45680000  1.0 0.1394271277
H  H25  1  0.13790000  0.41590000  0.86210000  1.0 0.1301544967
H  H26  1  0.41590000  0.13790000  0.86210000  1.0 0.1301544967
H  H27  1  0.41590000  0.13790000  0.58410000  1.0 0.1301544967
H  H28  1  0.13790000  0.41590000  0.58410000  1.0 0.1301544967
H  H29  1  0.58410000  0.86210000  0.41590000  1.0 0.1301544967
H  H30  1  0.86210000  0.58410000  0.41590000  1.0 0.1301544967
H  H31  1  0.86210000  0.58410000  0.13790000  1.0 0.1301544967
H  H32  1  0.58410000  0.86210000  0.13790000  1.0 0.1301544967
H  H33  1  0.86210000  0.13790000  0.41590000  1.0 0.1301544967
H  H34  1  0.41590000  0.58410000  0.13790000  1.0 0.1301544967
H  H35  1  0.13790000  0.86210000  0.58410000  1.0 0.1301544967
H  H36  1  0.58410000  0.41590000  0.86210000  1.0 0.1301544967
H  H37  1  0.58410000  0.41590000  0.13790000  1.0 0.1301544967
H  H38  1  0.13790000  0.86210000  0.41590000  1.0 0.1301544967
H  H39  1  0.41590000  0.58410000  0.86210000  1.0 0.1301544967
H  H40  1  0.86210000  0.13790000  0.58410000  1.0 0.1301544967
H  H41  1  0.41590000  0.86210000  0.13790000  1.0 0.1301544967
H  H42  1  0.13790000  0.58410000  0.86210000  1.0 0.1301544967
H  H43  1  0.41590000  0.86210000  0.58410000  1.0 0.1301544967
H  H44  1  0.58410000  0.13790000  0.41590000  1.0 0.1301544967
H  H45  1  0.86210000  0.41590000  0.13790000  1.0 0.1301544967
H  H46  1  0.58410000  0.13790000  0.86210000  1.0 0.1301544967
H  H47  1  0.86210000  0.41590000  0.58410000  1.0 0.1301544967
H  H48  1  0.13790000  0.58410000  0.41590000  1.0 0.1301544967
H  H49  1  0.18780000  0.36920000  0.81220000  1.0 0.1222315263
H  H50  1  0.36920000  0.18780000  0.81220000  1.0 0.1222315263
H  H51  1  0.36920000  0.18780000  0.63080000  1.0 0.1222315263
H  H52  1  0.18780000  0.36920000  0.63080000  1.0 0.1222315263
H  H53  1  0.63080000  0.81220000  0.36920000  1.0 0.1222315263
H  H54  1  0.81220000  0.63080000  0.36920000  1.0 0.1222315263
H  H55  1  0.81220000  0.63080000  0.18780000  1.0 0.1222315263
H  H56  1  0.63080000  0.81220000  0.18780000  1.0 0.1222315263
H  H57  1  0.81220000  0.18780000  0.36920000  1.0 0.1222315263
H  H58  1  0.36920000  0.63080000  0.18780000  1.0 0.1222315263
H  H59  1  0.18780000  0.81220000  0.63080000  1.0 0.1222315263
H  H60  1  0.63080000  0.36920000  0.81220000  1.0 0.1222315263
H  H61  1  0.63080000  0.36920000  0.18780000  1.0 0.1222315263
H  H62  1  0.18780000  0.81220000  0.36920000  1.0 0.1222315263
H  H63  1  0.36920000  0.63080000  0.81220000  1.0 0.1222315263
H  H64  1  0.81220000  0.18780000  0.63080000  1.0 0.1222315263
H  H65  1  0.36920000  0.81220000  0.18780000  1.0 0.1222315263
H  H66  1  0.18780000  0.63080000  0.81220000  1.0 0.1222315263
H  H67  1  0.36920000  0.81220000  0.63080000  1.0 0.1222315263
H  H68  1  0.63080000  0.18780000  0.36920000  1.0 0.1222315263
H  H69  1  0.81220000  0.36920000  0.18780000  1.0 0.1222315263
H  H70  1  0.63080000  0.18780000  0.81220000  1.0 0.1222315263
H  H71  1  0.81220000  0.36920000  0.63080000  1.0 0.1222315263
H  H72  1  0.18780000  0.63080000  0.36920000  1.0 0.1222315263
H  H73  1  0.14020000  0.43460000  0.93820000  1.0 0.1041657402
H  H74  1  0.51300000  0.06180000  0.85980000  1.0 0.1041657402
H  H75  1  0.43460000  0.14020000  0.48700000  1.0 0.1041657402
H  H76  1  0.06180000  0.51300000  0.56540000  1.0 0.1041657402
H  H77  1  0.48700000  0.93820000  0.43460000  1.0 0.1041657402
H  H78  1  0.85980000  0.56540000  0.51300000  1.0 0.1041657402
H  H79  1  0.93820000  0.48700000  0.14020000  1.0 0.1041657402
H  H80  1  0.56540000  0.85980000  0.06180000  1.0 0.1041657402
H  H81  1  0.93820000  0.14020000  0.43460000  1.0 0.1041657402
H  H82  1  0.51300000  0.56540000  0.06180000  1.0 0.1041657402
H  H83  1  0.14020000  0.93820000  0.48700000  1.0 0.1041657402
H  H84  1  0.56540000  0.51300000  0.85980000  1.0 0.1041657402
H  H85  1  0.48700000  0.43460000  0.14020000  1.0 0.1041657402
H  H86  1  0.06180000  0.85980000  0.51300000  1.0 0.1041657402
H  H87  1  0.43460000  0.48700000  0.93820000  1.0 0.1041657402
H  H88  1  0.85980000  0.06180000  0.56540000  1.0 0.1041657402
H  H89  1  0.43460000  0.93820000  0.14020000  1.0 0.1041657402
H  H90  1  0.06180000  0.56540000  0.85980000  1.0 0.1041657402
H  H91  1  0.51300000  0.85980000  0.56540000  1.0 0.1041657402
H  H92  1  0.56540000  0.06180000  0.51300000  1.0 0.1041657402
H  H93  1  0.85980000  0.51300000  0.06180000  1.0 0.1041657402
H  H94  1  0.48700000  0.14020000  0.93820000  1.0 0.1041657402
H  H95  1  0.93820000  0.43460000  0.48700000  1.0 0.1041657402
H  H96  1  0.14020000  0.48700000  0.43460000  1.0 0.1041657402
H  H97  1  0.85980000  0.56540000  0.06180000  1.0 0.1041657402
H  H98  1  0.48700000  0.93820000  0.14020000  1.0 0.1041657402
H  H99  1  0.56540000  0.85980000  0.51300000  1.0 0.1041657402
H  H100  1  0.93820000  0.48700000  0.43460000  1.0 0.1041657402
H  H101  1  0.51300000  0.06180000  0.56540000  1.0 0.1041657402
H  H102  1  0.14020000  0.43460000  0.48700000  1.0 0.1041657402
H  H103  1  0.06180000  0.51300000  0.85980000  1.0 0.1041657402
H  H104  1  0.43460000  0.14020000  0.93820000  1.0 0.1041657402
H  H105  1  0.06180000  0.85980000  0.56540000  1.0 0.1041657402
H  H106  1  0.48700000  0.43460000  0.93820000  1.0 0.1041657402
H  H107  1  0.85980000  0.06180000  0.51300000  1.0 0.1041657402
H  H108  1  0.43460000  0.48700000  0.14020000  1.0 0.1041657402
H  H109  1  0.51300000  0.56540000  0.85980000  1.0 0.1041657402
H  H110  1  0.93820000  0.14020000  0.48700000  1.0 0.1041657402
H  H111  1  0.56540000  0.51300000  0.06180000  1.0 0.1041657402
H  H112  1  0.14020000  0.93820000  0.43460000  1.0 0.1041657402
H  H113  1  0.56540000  0.06180000  0.85980000  1.0 0.1041657402
H  H114  1  0.93820000  0.43460000  0.14020000  1.0 0.1041657402
H  H115  1  0.48700000  0.14020000  0.43460000  1.0 0.1041657402
H  H116  1  0.43460000  0.93820000  0.48700000  1.0 0.1041657402
H  H117  1  0.14020000  0.48700000  0.93820000  1.0 0.1041657402
H  H118  1  0.51300000  0.85980000  0.06180000  1.0 0.1041657402
H  H119  1  0.06180000  0.56540000  0.51300000  1.0 0.1041657402
H  H120  1  0.85980000  0.51300000  0.56540000  1.0 0.1041657402
H  H121  1  0.06630000  0.43410000  0.00830000  1.0 0.0873157675
H  H122  1  0.50870000  0.99170000  0.93370000  1.0 0.0873157675
H  H123  1  0.43410000  0.06630000  0.49130000  1.0 0.0873157675
H  H124  1  0.99170000  0.50870000  0.56590000  1.0 0.0873157675
H  H125  1  0.49130000  0.00830000  0.43410000  1.0 0.0873157675
H  H126  1  0.93370000  0.56590000  0.50870000  1.0 0.0873157675
H  H127  1  0.00830000  0.49130000  0.06630000  1.0 0.0873157675
H  H128  1  0.56590000  0.93370000  0.99170000  1.0 0.0873157675
H  H129  1  0.00830000  0.06630000  0.43410000  1.0 0.0873157675
H  H130  1  0.50870000  0.56590000  0.99170000  1.0 0.0873157675
H  H131  1  0.06630000  0.00830000  0.49130000  1.0 0.0873157675
H  H132  1  0.56590000  0.50870000  0.93370000  1.0 0.0873157675
H  H133  1  0.49130000  0.43410000  0.06630000  1.0 0.0873157675
H  H134  1  0.99170000  0.93370000  0.50870000  1.0 0.0873157675
H  H135  1  0.43410000  0.49130000  0.00830000  1.0 0.0873157675
H  H136  1  0.93370000  0.99170000  0.56590000  1.0 0.0873157675
H  H137  1  0.43410000  0.00830000  0.06630000  1.0 0.0873157675
H  H138  1  0.99170000  0.56590000  0.93370000  1.0 0.0873157675
H  H139  1  0.50870000  0.93370000  0.56590000  1.0 0.0873157675
H  H140  1  0.56590000  0.99170000  0.50870000  1.0 0.0873157675
H  H141  1  0.93370000  0.50870000  0.99170000  1.0 0.0873157675
H  H142  1  0.49130000  0.06630000  0.00830000  1.0 0.0873157675
H  H143  1  0.00830000  0.43410000  0.49130000  1.0 0.0873157675
H  H144  1  0.06630000  0.49130000  0.43410000  1.0 0.0873157675
H  H145  1  0.93370000  0.56590000  0.99170000  1.0 0.0873157675
H  H146  1  0.49130000  0.00830000  0.06630000  1.0 0.0873157675
H  H147  1  0.56590000  0.93370000  0.50870000  1.0 0.0873157675
H  H148  1  0.00830000  0.49130000  0.43410000  1.0 0.0873157675
H  H149  1  0.50870000  0.99170000  0.56590000  1.0 0.0873157675
H  H150  1  0.06630000  0.43410000  0.49130000  1.0 0.0873157675
H  H151  1  0.99170000  0.50870000  0.93370000  1.0 0.0873157675
H  H152  1  0.43410000  0.06630000  0.00830000  1.0 0.0873157675
H  H153  1  0.99170000  0.93370000  0.56590000  1.0 0.0873157675
H  H154  1  0.49130000  0.43410000  0.00830000  1.0 0.0873157675
H  H155  1  0.93370000  0.99170000  0.50870000  1.0 0.0873157675
H  H156  1  0.43410000  0.49130000  0.06630000  1.0 0.0873157675
H  H157  1  0.50870000  0.56590000  0.93370000  1.0 0.0873157675
H  H158  1  0.00830000  0.06630000  0.49130000  1.0 0.0873157675
H  H159  1  0.56590000  0.50870000  0.99170000  1.0 0.0873157675
H  H160  1  0.06630000  0.00830000  0.43410000  1.0 0.0873157675
H  H161  1  0.56590000  0.99170000  0.93370000  1.0 0.0873157675
H  H162  1  0.00830000  0.43410000  0.06630000  1.0 0.0873157675
H  H163  1  0.49130000  0.06630000  0.43410000  1.0 0.0873157675
H  H164  1  0.43410000  0.00830000  0.49130000  1.0 0.0873157675
H  H165  1  0.06630000  0.49130000  0.00830000  1.0 0.0873157675
H  H166  1  0.50870000  0.93370000  0.99170000  1.0 0.0873157675
H  H167  1  0.99170000  0.56590000  0.50870000  1.0 0.0873157675
H  H168  1  0.93370000  0.50870000  0.56590000  1.0 0.0873157675
C  C1  1  0.26862000  0.37638000  0.73138000  1.0 0.5692577698
C  C2  1  0.37638000  0.26862000  0.73138000  1.0 0.5692577698
C  C3  1  0.37638000  0.26862000  0.62362000  1.0 0.5692577698
C  C4  1  0.26862000  0.37638000  0.62362000  1.0 0.5692577698
C  C5  1  0.62362000  0.73138000  0.37638000  1.0 0.5692577698
C  C6  1  0.73138000  0.62362000  0.37638000  1.0 0.5692577698
C  C7  1  0.73138000  0.62362000  0.26862000  1.0 0.5692577698
C  C8  1  0.62362000  0.73138000  0.26862000  1.0 0.5692577698
C  C9  1  0.73138000  0.26862000  0.37638000  1.0 0.5692577698
C  C10  1  0.37638000  0.62362000  0.26862000  1.0 0.5692577698
C  C11  1  0.26862000  0.73138000  0.62362000  1.0 0.5692577698
C  C12  1  0.62362000  0.37638000  0.73138000  1.0 0.5692577698
C  C13  1  0.62362000  0.37638000  0.26862000  1.0 0.5692577698
C  C14  1  0.26862000  0.73138000  0.37638000  1.0 0.5692577698
C  C15  1  0.37638000  0.62362000  0.73138000  1.0 0.5692577698
C  C16  1  0.73138000  0.26862000  0.62362000  1.0 0.5692577698
C  C17  1  0.37638000  0.73138000  0.26862000  1.0 0.5692577698
C  C18  1  0.26862000  0.62362000  0.73138000  1.0 0.5692577698
C  C19  1  0.37638000  0.73138000  0.62362000  1.0 0.5692577698
C  C20  1  0.62362000  0.26862000  0.37638000  1.0 0.5692577698
C  C21  1  0.73138000  0.37638000  0.26862000  1.0 0.5692577698
C  C22  1  0.62362000  0.26862000  0.73138000  1.0 0.5692577698
C  C23  1  0.73138000  0.37638000  0.62362000  1.0 0.5692577698
C  C24  1  0.26862000  0.62362000  0.37638000  1.0 0.5692577698
C  C25  1  0.23587000  0.40773000  0.76413000  1.0 -0.0332588536
C  C26  1  0.40773000  0.23587000  0.76413000  1.0 -0.0332588536
C  C27  1  0.40773000  0.23587000  0.59227000  1.0 -0.0332588536
C  C28  1  0.23587000  0.40773000  0.59227000  1.0 -0.0332588536
C  C29  1  0.59227000  0.76413000  0.40773000  1.0 -0.0332588536
C  C30  1  0.76413000  0.59227000  0.40773000  1.0 -0.0332588536
C  C31  1  0.76413000  0.59227000  0.23587000  1.0 -0.0332588536
C  C32  1  0.59227000  0.76413000  0.23587000  1.0 -0.0332588536
C  C33  1  0.76413000  0.23587000  0.40773000  1.0 -0.0332588536
C  C34  1  0.40773000  0.59227000  0.23587000  1.0 -0.0332588536
C  C35  1  0.23587000  0.76413000  0.59227000  1.0 -0.0332588536
C  C36  1  0.59227000  0.40773000  0.76413000  1.0 -0.0332588536
C  C37  1  0.59227000  0.40773000  0.23587000  1.0 -0.0332588536
C  C38  1  0.23587000  0.76413000  0.40773000  1.0 -0.0332588536
C  C39  1  0.40773000  0.59227000  0.76413000  1.0 -0.0332588536
C  C40  1  0.76413000  0.23587000  0.59227000  1.0 -0.0332588536
C  C41  1  0.40773000  0.76413000  0.23587000  1.0 -0.0332588536
C  C42  1  0.23587000  0.59227000  0.76413000  1.0 -0.0332588536
C  C43  1  0.40773000  0.76413000  0.59227000  1.0 -0.0332588536
C  C44  1  0.59227000  0.23587000  0.40773000  1.0 -0.0332588536
C  C45  1  0.76413000  0.40773000  0.23587000  1.0 -0.0332588536
C  C46  1  0.59227000  0.23587000  0.76413000  1.0 -0.0332588536
C  C47  1  0.76413000  0.40773000  0.59227000  1.0 -0.0332588536
C  C48  1  0.23587000  0.59227000  0.40773000  1.0 -0.0332588536
C  C49  1  0.24569000  0.44911000  0.75431000  1.0 -0.1305936453
C  C50  1  0.44911000  0.24569000  0.75431000  1.0 -0.1305936453
C  C51  1  0.44911000  0.24569000  0.55089000  1.0 -0.1305936453
C  C52  1  0.24569000  0.44911000  0.55089000  1.0 -0.1305936453
C  C53  1  0.55089000  0.75431000  0.44911000  1.0 -0.1305936453
C  C54  1  0.75431000  0.55089000  0.44911000  1.0 -0.1305936453
C  C55  1  0.75431000  0.55089000  0.24569000  1.0 -0.1305936453
C  C56  1  0.55089000  0.75431000  0.24569000  1.0 -0.1305936453
C  C57  1  0.75431000  0.24569000  0.44911000  1.0 -0.1305936453
C  C58  1  0.44911000  0.55089000  0.24569000  1.0 -0.1305936453
C  C59  1  0.24569000  0.75431000  0.55089000  1.0 -0.1305936453
C  C60  1  0.55089000  0.44911000  0.75431000  1.0 -0.1305936453
C  C61  1  0.55089000  0.44911000  0.24569000  1.0 -0.1305936453
C  C62  1  0.24569000  0.75431000  0.44911000  1.0 -0.1305936453
C  C63  1  0.44911000  0.55089000  0.75431000  1.0 -0.1305936453
C  C64  1  0.75431000  0.24569000  0.55089000  1.0 -0.1305936453
C  C65  1  0.44911000  0.75431000  0.24569000  1.0 -0.1305936453
C  C66  1  0.24569000  0.55089000  0.75431000  1.0 -0.1305936453
C  C67  1  0.44911000  0.75431000  0.55089000  1.0 -0.1305936453
C  C68  1  0.55089000  0.24569000  0.44911000  1.0 -0.1305936453
C  C69  1  0.75431000  0.44911000  0.24569000  1.0 -0.1305936453
C  C70  1  0.55089000  0.24569000  0.75431000  1.0 -0.1305936453
C  C71  1  0.75431000  0.44911000  0.55089000  1.0 -0.1305936453
C  C72  1  0.24569000  0.55089000  0.44911000  1.0 -0.1305936453
C  C73  1  0.21641000  0.47799000  0.78359000  1.0 -0.0227229981
C  C74  1  0.47799000  0.21641000  0.78359000  1.0 -0.0227229981
C  C75  1  0.47799000  0.21641000  0.52201000  1.0 -0.0227229981
C  C76  1  0.21641000  0.47799000  0.52201000  1.0 -0.0227229981
C  C77  1  0.52201000  0.78359000  0.47799000  1.0 -0.0227229981
C  C78  1  0.78359000  0.52201000  0.47799000  1.0 -0.0227229981
C  C79  1  0.78359000  0.52201000  0.21641000  1.0 -0.0227229981
C  C80  1  0.52201000  0.78359000  0.21641000  1.0 -0.0227229981
C  C81  1  0.78359000  0.21641000  0.47799000  1.0 -0.0227229981
C  C82  1  0.47799000  0.52201000  0.21641000  1.0 -0.0227229981
C  C83  1  0.21641000  0.78359000  0.52201000  1.0 -0.0227229981
C  C84  1  0.52201000  0.47799000  0.78359000  1.0 -0.0227229981
C  C85  1  0.52201000  0.47799000  0.21641000  1.0 -0.0227229981
C  C86  1  0.21641000  0.78359000  0.47799000  1.0 -0.0227229981
C  C87  1  0.47799000  0.52201000  0.78359000  1.0 -0.0227229981
C  C88  1  0.78359000  0.21641000  0.52201000  1.0 -0.0227229981
C  C89  1  0.47799000  0.78359000  0.21641000  1.0 -0.0227229981
C  C90  1  0.21641000  0.52201000  0.78359000  1.0 -0.0227229981
C  C91  1  0.47799000  0.78359000  0.52201000  1.0 -0.0227229981
C  C92  1  0.52201000  0.21641000  0.47799000  1.0 -0.0227229981
C  C93  1  0.78359000  0.47799000  0.21641000  1.0 -0.0227229981
C  C94  1  0.52201000  0.21641000  0.78359000  1.0 -0.0227229981
C  C95  1  0.78359000  0.47799000  0.52201000  1.0 -0.0227229981
C  C96  1  0.21641000  0.52201000  0.47799000  1.0 -0.0227229981
C  C97  1  0.17494000  0.46546000  0.82506000  1.0 0.1394271277
C  C98  1  0.46546000  0.17494000  0.82506000  1.0 0.1394271277
C  C99  1  0.46546000  0.17494000  0.53454000  1.0 0.1394271277
C  C100  1  0.17494000  0.46546000  0.53454000  1.0 0.1394271277
C  C101  1  0.53454000  0.82506000  0.46546000  1.0 0.1394271277
C  C102  1  0.82506000  0.53454000  0.46546000  1.0 0.1394271277
C  C103  1  0.82506000  0.53454000  0.17494000  1.0 0.1394271277
C  C104  1  0.53454000  0.82506000  0.17494000  1.0 0.1394271277
C  C105  1  0.82506000  0.17494000  0.46546000  1.0 0.1394271277
C  C106  1  0.46546000  0.53454000  0.17494000  1.0 0.1394271277
C  C107  1  0.17494000  0.82506000  0.53454000  1.0 0.1394271277
C  C108  1  0.53454000  0.46546000  0.82506000  1.0 0.1394271277
C  C109  1  0.53454000  0.46546000  0.17494000  1.0 0.1394271277
C  C110  1  0.17494000  0.82506000  0.46546000  1.0 0.1394271277
C  C111  1  0.46546000  0.53454000  0.82506000  1.0 0.1394271277
C  C112  1  0.82506000  0.17494000  0.53454000  1.0 0.1394271277
C  C113  1  0.46546000  0.82506000  0.17494000  1.0 0.1394271277
C  C114  1  0.17494000  0.53454000  0.82506000  1.0 0.1394271277
C  C115  1  0.46546000  0.82506000  0.53454000  1.0 0.1394271277
C  C116  1  0.53454000  0.17494000  0.46546000  1.0 0.1394271277
C  C117  1  0.82506000  0.46546000  0.17494000  1.0 0.1394271277
C  C118  1  0.53454000  0.17494000  0.82506000  1.0 0.1394271277
C  C119  1  0.82506000  0.46546000  0.53454000  1.0 0.1394271277
C  C120  1  0.17494000  0.53454000  0.46546000  1.0 0.1394271277
C  C121  1  0.16490000  0.42410000  0.83510000  1.0 -0.1919723165
C  C122  1  0.42410000  0.16490000  0.83510000  1.0 -0.1919723165
C  C123  1  0.42410000  0.16490000  0.57590000  1.0 -0.1919723165
C  C124  1  0.16490000  0.42410000  0.57590000  1.0 -0.1919723165
C  C125  1  0.57590000  0.83510000  0.42410000  1.0 -0.1919723165
C  C126  1  0.83510000  0.57590000  0.42410000  1.0 -0.1919723165
C  C127  1  0.83510000  0.57590000  0.16490000  1.0 -0.1919723165
C  C128  1  0.57590000  0.83510000  0.16490000  1.0 -0.1919723165
C  C129  1  0.83510000  0.16490000  0.42410000  1.0 -0.1951634747
C  C130  1  0.42410000  0.57590000  0.16490000  1.0 -0.1919723165
C  C131  1  0.16490000  0.83510000  0.57590000  1.0 -0.1919723165
C  C132  1  0.57590000  0.42410000  0.83510000  1.0 -0.1919723165
C  C133  1  0.57590000  0.42410000  0.16490000  1.0 -0.1919723165
C  C134  1  0.16490000  0.83510000  0.42410000  1.0 -0.1951634747
C  C135  1  0.42410000  0.57590000  0.83510000  1.0 -0.1919723165
C  C136  1  0.83510000  0.16490000  0.57590000  1.0 -0.1919723165
C  C137  1  0.42410000  0.83510000  0.16490000  1.0 -0.1951634747
C  C138  1  0.16490000  0.57590000  0.83510000  1.0 -0.1919723165
C  C139  1  0.42410000  0.83510000  0.57590000  1.0 -0.1919723165
C  C140  1  0.57590000  0.16490000  0.42410000  1.0 -0.1919723165
C  C141  1  0.83510000  0.42410000  0.16490000  1.0 -0.1919723165
C  C142  1  0.57590000  0.16490000  0.83510000  1.0 -0.1919723165
C  C143  1  0.83510000  0.42410000  0.57590000  1.0 -0.1919723165
C  C144  1  0.16490000  0.57590000  0.42410000  1.0 -0.1919723165
C  C145  1  0.19455000  0.39665000  0.80545000  1.0 -0.0784905626
C  C146  1  0.39665000  0.19455000  0.80545000  1.0 -0.0784905626
C  C147  1  0.39665000  0.19455000  0.60335000  1.0 -0.0784905626
C  C148  1  0.19455000  0.39665000  0.60335000  1.0 -0.0784905626
C  C149  1  0.60335000  0.80545000  0.39665000  1.0 -0.0784905626
C  C150  1  0.80545000  0.60335000  0.39665000  1.0 -0.0784905626
C  C151  1  0.80545000  0.60335000  0.19455000  1.0 -0.0784905626
C  C152  1  0.60335000  0.80545000  0.19455000  1.0 -0.0784905626
C  C153  1  0.80545000  0.19455000  0.39665000  1.0 -0.0784905626
C  C154  1  0.39665000  0.60335000  0.19455000  1.0 -0.0784905626
C  C155  1  0.19455000  0.80545000  0.60335000  1.0 -0.0784905626
C  C156  1  0.60335000  0.39665000  0.80545000  1.0 -0.0784905626
C  C157  1  0.60335000  0.39665000  0.19455000  1.0 -0.0784905626
C  C158  1  0.19455000  0.80545000  0.39665000  1.0 -0.0784905626
C  C159  1  0.39665000  0.60335000  0.80545000  1.0 -0.0784905626
C  C160  1  0.80545000  0.19455000  0.60335000  1.0 -0.0784905626
C  C161  1  0.39665000  0.80545000  0.19455000  1.0 -0.0784905626
C  C162  1  0.19455000  0.60335000  0.80545000  1.0 -0.0784905626
C  C163  1  0.39665000  0.80545000  0.60335000  1.0 -0.0784905626
C  C164  1  0.60335000  0.19455000  0.39665000  1.0 -0.0784905626
C  C165  1  0.80545000  0.39665000  0.19455000  1.0 -0.0784905626
C  C166  1  0.60335000  0.19455000  0.80545000  1.0 -0.0784905626
C  C167  1  0.80545000  0.39665000  0.60335000  1.0 -0.0784905626
C  C168  1  0.19455000  0.60335000  0.39665000  1.0 -0.0784905626
C  C169  1  0.10641000  0.50000000  0.89359000  1.0 0.0589198583
C  C170  1  0.50000000  0.10641000  0.89359000  1.0 0.0589198583
C  C171  1  0.50000000  0.10641000  0.50000000  1.0 0.0589198583
C  C172  1  0.10641000  0.50000000  0.50000000  1.0 0.0589198583
C  C173  1  0.50000000  0.89359000  0.50000000  1.0 0.0589198583
C  C174  1  0.89359000  0.50000000  0.50000000  1.0 0.0589198583
C  C175  1  0.89359000  0.50000000  0.10641000  1.0 0.0589198583
C  C176  1  0.50000000  0.89359000  0.10641000  1.0 0.0589198583
C  C177  1  0.89359000  0.10641000  0.50000000  1.0 0.0589198583
C  C178  1  0.50000000  0.50000000  0.10641000  1.0 0.0589198583
C  C179  1  0.10641000  0.89359000  0.50000000  1.0 0.0589198583
C  C180  1  0.50000000  0.50000000  0.89359000  1.0 0.0589198583
C  C181  1  0.11031000  0.46033000  0.93667000  1.0 -0.096531403
C  C182  1  0.50731000  0.06333000  0.88969000  1.0 -0.094519059
C  C183  1  0.46033000  0.11031000  0.49269000  1.0 -0.096531403
C  C184  1  0.06333000  0.50731000  0.53967000  1.0 -0.096531403
C  C185  1  0.49269000  0.93667000  0.46033000  1.0 -0.096531403
C  C186  1  0.88969000  0.53967000  0.50731000  1.0 -0.096531403
C  C187  1  0.93667000  0.49269000  0.11031000  1.0 -0.096531403
C  C188  1  0.53967000  0.88969000  0.06333000  1.0 -0.096531403
C  C189  1  0.93667000  0.11031000  0.46033000  1.0 -0.094519059
C  C190  1  0.50731000  0.53967000  0.06333000  1.0 -0.096531403
C  C191  1  0.11031000  0.93667000  0.49269000  1.0 -0.094519059
C  C192  1  0.53967000  0.50731000  0.88969000  1.0 -0.094519059
C  C193  1  0.49269000  0.46033000  0.11031000  1.0 -0.096531403
C  C194  1  0.06333000  0.88969000  0.50731000  1.0 -0.094519059
C  C195  1  0.46033000  0.49269000  0.93667000  1.0 -0.094519059
C  C196  1  0.88969000  0.06333000  0.53967000  1.0 -0.094519059
C  C197  1  0.46033000  0.93667000  0.11031000  1.0 -0.096531403
C  C198  1  0.06333000  0.53967000  0.88969000  1.0 -0.096531403
C  C199  1  0.50731000  0.88969000  0.53967000  1.0 -0.096531403
C  C200  1  0.53967000  0.06333000  0.50731000  1.0 -0.096531403
C  C201  1  0.88969000  0.50731000  0.06333000  1.0 -0.096531403
C  C202  1  0.49269000  0.11031000  0.93667000  1.0 -0.094519059
C  C203  1  0.93667000  0.46033000  0.49269000  1.0 -0.094519059
C  C204  1  0.11031000  0.49269000  0.46033000  1.0 -0.096531403
C  C205  1  0.88969000  0.53967000  0.06333000  1.0 -0.096531403
C  C206  1  0.49269000  0.93667000  0.11031000  1.0 -0.096531403
C  C207  1  0.53967000  0.88969000  0.50731000  1.0 -0.094519059
C  C208  1  0.93667000  0.49269000  0.46033000  1.0 -0.094519059
C  C209  1  0.50731000  0.06333000  0.53967000  1.0 -0.094519059
C  C210  1  0.11031000  0.46033000  0.49269000  1.0 -0.096531403
C  C211  1  0.06333000  0.50731000  0.88969000  1.0 -0.096531403
C  C212  1  0.46033000  0.11031000  0.93667000  1.0 -0.094519059
C  C213  1  0.06333000  0.88969000  0.53967000  1.0 -0.096531403
C  C214  1  0.49269000  0.46033000  0.93667000  1.0 -0.096531403
C  C215  1  0.88969000  0.06333000  0.50731000  1.0 -0.096531403
C  C216  1  0.46033000  0.49269000  0.11031000  1.0 -0.096531403
C  C217  1  0.50731000  0.53967000  0.88969000  1.0 -0.096531403
C  C218  1  0.93667000  0.11031000  0.49269000  1.0 -0.094519059
C  C219  1  0.53967000  0.50731000  0.06333000  1.0 -0.096531403
C  C220  1  0.11031000  0.93667000  0.46033000  1.0 -0.096531403
C  C221  1  0.53967000  0.06333000  0.88969000  1.0 -0.094519059
C  C222  1  0.93667000  0.46033000  0.11031000  1.0 -0.096531403
C  C223  1  0.49269000  0.11031000  0.46033000  1.0 -0.096531403
C  C224  1  0.46033000  0.93667000  0.49269000  1.0 -0.094519059
C  C225  1  0.11031000  0.49269000  0.93667000  1.0 -0.096531403
C  C226  1  0.50731000  0.88969000  0.06333000  1.0 -0.096531403
C  C227  1  0.06333000  0.53967000  0.50731000  1.0 -0.096531403
C  C228  1  0.88969000  0.50731000  0.53967000  1.0 -0.096531403
C  C229  1  0.06595000  0.46099000  0.97877000  1.0 -0.0733453272
C  C230  1  0.50571000  0.02123000  0.93405000  1.0 -0.0733453272
C  C231  1  0.46099000  0.06595000  0.49429000  1.0 -0.0733453272
C  C232  1  0.02123000  0.50571000  0.53901000  1.0 -0.0733453272
C  C233  1  0.49429000  0.97877000  0.46099000  1.0 -0.0733453272
C  C234  1  0.93405000  0.53901000  0.50571000  1.0 -0.0733453272
C  C235  1  0.97877000  0.49429000  0.06595000  1.0 -0.0733453272
C  C236  1  0.53901000  0.93405000  0.02123000  1.0 -0.0733453272
C  C237  1  0.97877000  0.06595000  0.46099000  1.0 -0.0733453272
C  C238  1  0.50571000  0.53901000  0.02123000  1.0 -0.0733453272
C  C239  1  0.06595000  0.97877000  0.49429000  1.0 -0.0733453272
C  C240  1  0.53901000  0.50571000  0.93405000  1.0 -0.0733453272
C  C241  1  0.49429000  0.46099000  0.06595000  1.0 -0.0733453272
C  C242  1  0.02123000  0.93405000  0.50571000  1.0 -0.0733453272
C  C243  1  0.46099000  0.49429000  0.97877000  1.0 -0.0733453272
C  C244  1  0.93405000  0.02123000  0.53901000  1.0 -0.0733453272
C  C245  1  0.46099000  0.97877000  0.06595000  1.0 -0.0733453272
C  C246  1  0.02123000  0.53901000  0.93405000  1.0 -0.0733453272
C  C247  1  0.50571000  0.93405000  0.53901000  1.0 -0.0733453272
C  C248  1  0.53901000  0.02123000  0.50571000  1.0 -0.0733453272
C  C249  1  0.93405000  0.50571000  0.02123000  1.0 -0.0784905626
C  C250  1  0.49429000  0.06595000  0.97877000  1.0 -0.0733453272
C  C251  1  0.97877000  0.46099000  0.49429000  1.0 -0.0733453272
C  C252  1  0.06595000  0.49429000  0.46099000  1.0 -0.0733453272
C  C253  1  0.93405000  0.53901000  0.02123000  1.0 -0.0733453272
C  C254  1  0.49429000  0.97877000  0.06595000  1.0 -0.0733453272
C  C255  1  0.53901000  0.93405000  0.50571000  1.0 -0.0733453272
C  C256  1  0.97877000  0.49429000  0.46099000  1.0 -0.0733453272
C  C257  1  0.50571000  0.02123000  0.53901000  1.0 -0.0733453272
C  C258  1  0.06595000  0.46099000  0.49429000  1.0 -0.0784905626
C  C259  1  0.02123000  0.50571000  0.93405000  1.0 -0.0733453272
C  C260  1  0.46099000  0.06595000  0.97877000  1.0 -0.0733453272
C  C261  1  0.02123000  0.93405000  0.53901000  1.0 -0.0733453272
C  C262  1  0.49429000  0.46099000  0.97877000  1.0 -0.0733453272
C  C263  1  0.93405000  0.02123000  0.50571000  1.0 -0.0733453272
C  C264  1  0.46099000  0.49429000  0.06595000  1.0 -0.0733453272
C  C265  1  0.50571000  0.53901000  0.93405000  1.0 -0.0733453272
C  C266  1  0.97877000  0.06595000  0.49429000  1.0 -0.0733453272
C  C267  1  0.53901000  0.50571000  0.02123000  1.0 -0.0733453272
C  C268  1  0.06595000  0.97877000  0.46099000  1.0 -0.0733453272
C  C269  1  0.53901000  0.02123000  0.93405000  1.0 -0.0733453272
C  C270  1  0.97877000  0.46099000  0.06595000  1.0 -0.0784905626
C  C271  1  0.49429000  0.06595000  0.46099000  1.0 -0.0784905626
C  C272  1  0.46099000  0.97877000  0.49429000  1.0 -0.0733453272
C  C273  1  0.06595000  0.49429000  0.97877000  1.0 -0.0733453272
C  C274  1  0.50571000  0.93405000  0.02123000  1.0 -0.0733453272
C  C275  1  0.02123000  0.53901000  0.50571000  1.0 -0.0733453272
C  C276  1  0.93405000  0.50571000  0.53901000  1.0 -0.0733453272
C  C277  1  0.02320000  0.50000000  0.97680000  1.0 -0.0227229981
C  C278  1  0.50000000  0.02320000  0.97680000  1.0 -0.0133183444
C  C279  1  0.50000000  0.02320000  0.50000000  1.0 -0.0133183444
C  C280  1  0.02320000  0.50000000  0.50000000  1.0 -0.0133183444
C  C281  1  0.50000000  0.97680000  0.50000000  1.0 -0.0133183444
C  C282  1  0.97680000  0.50000000  0.50000000  1.0 -0.0133183444
C  C283  1  0.97680000  0.50000000  0.02320000  1.0 -0.0133183444
C  C284  1  0.50000000  0.97680000  0.02320000  1.0 -0.0227229981
C  C285  1  0.97680000  0.02320000  0.50000000  1.0 -0.0133183444
C  C286  1  0.50000000  0.50000000  0.02320000  1.0 -0.0133183444
C  C287  1  0.02320000  0.97680000  0.50000000  1.0 -0.0133183444
C  C288  1  0.50000000  0.50000000  0.97680000  1.0 -0.0133183444
N  N1  1  0.15097000  0.50000000  0.84903000  1.0 -0.1919723165
N  N2  1  0.50000000  0.15097000  0.84903000  1.0 -0.1919723165
N  N3  1  0.50000000  0.15097000  0.50000000  1.0 -0.1919723165
N  N4  1  0.15097000  0.50000000  0.50000000  1.0 -0.1834618412
N  N5  1  0.50000000  0.84903000  0.50000000  1.0 -0.1834618412
N  N6  1  0.84903000  0.50000000  0.50000000  1.0 -0.1834618412
N  N7  1  0.84903000  0.50000000  0.15097000  1.0 -0.1919723165
N  N8  1  0.50000000  0.84903000  0.15097000  1.0 -0.1919723165
N  N9  1  0.84903000  0.15097000  0.50000000  1.0 -0.1919723165
N  N10  1  0.50000000  0.50000000  0.15097000  1.0 -0.1834618412
N  N11  1  0.15097000  0.84903000  0.50000000  1.0 -0.1834618412
N  N12  1  0.50000000  0.50000000  0.84903000  1.0 -0.1834618412
O  O1  1  0.30407000  0.38829000  0.69593000  1.0 -0.5040613879
O  O2  1  0.38829000  0.30407000  0.69593000  1.0 -0.5040613879
O  O3  1  0.38829000  0.30407000  0.61171000  1.0 -0.5040613879
O  O4  1  0.30407000  0.38829000  0.61171000  1.0 -0.5040613879
O  O5  1  0.61171000  0.69593000  0.38829000  1.0 -0.5052446139
O  O6  1  0.69593000  0.61171000  0.38829000  1.0 -0.5040613879
O  O7  1  0.69593000  0.61171000  0.30407000  1.0 -0.5052446139
O  O8  1  0.61171000  0.69593000  0.30407000  1.0 -0.5040613879
O  O9  1  0.69593000  0.30407000  0.38829000  1.0 -0.5052446139
O  O10  1  0.38829000  0.61171000  0.30407000  1.0 -0.5040613879
O  O11  1  0.30407000  0.69593000  0.61171000  1.0 -0.5040613879
O  O12  1  0.61171000  0.38829000  0.69593000  1.0 -0.5040613879
O  O13  1  0.61171000  0.38829000  0.30407000  1.0 -0.5040613879
O  O14  1  0.30407000  0.69593000  0.38829000  1.0 -0.5040613879
O  O15  1  0.38829000  0.61171000  0.69593000  1.0 -0.5040613879
O  O16  1  0.69593000  0.30407000  0.61171000  1.0 -0.5052446139
O  O17  1  0.38829000  0.69593000  0.30407000  1.0 -0.5040613879
O  O18  1  0.30407000  0.61171000  0.69593000  1.0 -0.5040613879
O  O19  1  0.38829000  0.69593000  0.61171000  1.0 -0.5040613879
O  O20  1  0.61171000  0.30407000  0.38829000  1.0 -0.5052446139
O  O21  1  0.69593000  0.38829000  0.30407000  1.0 -0.5040613879
O  O22  1  0.61171000  0.30407000  0.69593000  1.0 -0.5040613879
O  O23  1  0.69593000  0.38829000  0.61171000  1.0 -0.5040613879
O  O24  1  0.30407000  0.61171000  0.38829000  1.0 -0.5040613879
O  O25  1  0.25609000  0.33999000  0.74391000  1.0 -0.5334777496
O  O26  1  0.33999000  0.25609000  0.74391000  1.0 -0.5334777496
O  O27  1  0.33999000  0.25609000  0.66001000  1.0 -0.5334777496
O  O28  1  0.25609000  0.33999000  0.66001000  1.0 -0.5334777496
O  O29  1  0.66001000  0.74391000  0.33999000  1.0 -0.5334777496
O  O30  1  0.74391000  0.66001000  0.33999000  1.0 -0.5334777496
O  O31  1  0.74391000  0.66001000  0.25609000  1.0 -0.5334777496
O  O32  1  0.66001000  0.74391000  0.25609000  1.0 -0.5334777496
O  O33  1  0.74391000  0.25609000  0.33999000  1.0 -0.5334777496
O  O34  1  0.33999000  0.66001000  0.25609000  1.0 -0.5334777496
O  O35  1  0.25609000  0.74391000  0.66001000  1.0 -0.5334777496
O  O36  1  0.66001000  0.33999000  0.74391000  1.0 -0.5334777496
O  O37  1  0.66001000  0.33999000  0.25609000  1.0 -0.5334777496
O  O38  1  0.25609000  0.74391000  0.33999000  1.0 -0.5334777496
O  O39  1  0.33999000  0.66001000  0.74391000  1.0 -0.5334777496
O  O40  1  0.74391000  0.25609000  0.66001000  1.0 -0.5334777496
O  O41  1  0.33999000  0.74391000  0.25609000  1.0 -0.5334777496
O  O42  1  0.25609000  0.66001000  0.74391000  1.0 -0.5334777496
O  O43  1  0.33999000  0.74391000  0.66001000  1.0 -0.5334777496
O  O44  1  0.66001000  0.25609000  0.33999000  1.0 -0.5334777496
O  O45  1  0.74391000  0.33999000  0.25609000  1.0 -0.5334777496
O  O46  1  0.66001000  0.25609000  0.74391000  1.0 -0.5334777496
O  O47  1  0.74391000  0.33999000  0.66001000  1.0 -0.5334777496
O  O48  1  0.25609000  0.66001000  0.33999000  1.0 -0.5334777496
