# DDEC6 charges by PACMAN v1.1 (https://github.com/mtap-research/PACMAN-charge/)
data_ACOCUS_ASR_pacman
_symmetry_space_group_name_H-M   'P 1'
_cell_length_a   33.09680000
_cell_length_b   33.09680000
_cell_length_c   33.09680000
_cell_angle_alpha   60.00000000
_cell_angle_beta   60.00000000
_cell_angle_gamma   60.00000000
_symmetry_Int_Tables_number   1
_chemical_formula_structural   ZnH14C24NO4
_chemical_formula_sum   'Zn12 H168 C288 N12 O48'
_cell_volume   25635.57239542
_cell_formula_units_Z   12
loop_
 _symmetry_equiv_pos_site_id
 _symmetry_equiv_pos_as_xyz
  1  'x, y, z'
loop_
 _atom_site_type_symbol
 _atom_site_label
 _atom_site_symmetry_multiplicity
 _atom_site_fract_x
 _atom_site_fract_y
 _atom_site_fract_z
 _atom_site_occupancy
 _atom_site_charge
Zn  Zn1  1  0.35370000  0.35370000  0.64630000  1.0 0.9483198093
Zn  Zn2  1  0.64630000  0.64630000  0.35370000  1.0 0.9483198093
Zn  Zn3  1  0.64630000  0.35370000  0.35370000  1.0 0.9483198093
Zn  Zn4  1  0.35370000  0.64630000  0.35370000  1.0 0.9483198093
Zn  Zn5  1  0.35370000  0.64630000  0.64630000  1.0 0.9483198093
Zn  Zn6  1  0.64630000  0.35370000  0.64630000  1.0 0.9483198093
Zn  Zn7  1  0.29030000  0.29030000  0.70970000  1.0 0.9483198093
Zn  Zn8  1  0.70970000  0.70970000  0.29030000  1.0 0.9483198093
Zn  Zn9  1  0.70970000  0.29030000  0.29030000  1.0 0.9483198093
Zn  Zn10  1  0.29030000  0.70970000  0.29030000  1.0 0.9483198093
Zn  Zn11  1  0.29030000  0.70970000  0.70970000  1.0 0.9483198093
Zn  Zn12  1  0.70970000  0.29030000  0.70970000  1.0 0.9483198093
H  H1  1  0.45720000  0.27260000  0.54280000  1.0 0.136687296
H  H2  1  0.27260000  0.45720000  0.54280000  1.0 0.136687296
H  H3  1  0.27260000  0.45720000  0.72740000  1.0 0.136687296
H  H4  1  0.45720000  0.27260000  0.72740000  1.0 0.136687296
H  H5  1  0.72740000  0.54280000  0.27260000  1.0 0.136687296
H  H6  1  0.54280000  0.72740000  0.27260000  1.0 0.136687296
H  H7  1  0.54280000  0.72740000  0.45720000  1.0 0.136687296
H  H8  1  0.72740000  0.54280000  0.45720000  1.0 0.136687296
H  H9  1  0.54280000  0.45720000  0.27260000  1.0 0.136687296
H  H10  1  0.27260000  0.72740000  0.45720000  1.0 0.136687296
H  H11  1  0.45720000  0.54280000  0.72740000  1.0 0.136687296
H  H12  1  0.72740000  0.27260000  0.54280000  1.0 0.136687296
H  H13  1  0.72740000  0.27260000  0.45720000  1.0 0.136687296
H  H14  1  0.45720000  0.54280000  0.27260000  1.0 0.136687296
H  H15  1  0.27260000  0.72740000  0.54280000  1.0 0.136687296
H  H16  1  0.54280000  0.45720000  0.72740000  1.0 0.136687296
H  H17  1  0.27260000  0.54280000  0.45720000  1.0 0.136687296
H  H18  1  0.45720000  0.72740000  0.54280000  1.0 0.136687296
H  H19  1  0.27260000  0.54280000  0.72740000  1.0 0.136687296
H  H20  1  0.72740000  0.45720000  0.27260000  1.0 0.136687296
H  H21  1  0.54280000  0.27260000  0.45720000  1.0 0.136687296
H  H22  1  0.72740000  0.45720000  0.54280000  1.0 0.136687296
H  H23  1  0.54280000  0.27260000  0.72740000  1.0 0.136687296
H  H24  1  0.45720000  0.72740000  0.27260000  1.0 0.136687296
H  H25  1  0.41710000  0.13650000  0.58290000  1.0 0.1276406675
H  H26  1  0.13650000  0.41710000  0.58290000  1.0 0.1276406675
H  H27  1  0.13650000  0.41710000  0.86350000  1.0 0.1276406675
H  H28  1  0.41710000  0.13650000  0.86350000  1.0 0.1276406675
H  H29  1  0.86350000  0.58290000  0.13650000  1.0 0.1276406675
H  H30  1  0.58290000  0.86350000  0.13650000  1.0 0.1276406675
H  H31  1  0.58290000  0.86350000  0.41710000  1.0 0.1276406675
H  H32  1  0.86350000  0.58290000  0.41710000  1.0 0.1276406675
H  H33  1  0.58290000  0.41710000  0.13650000  1.0 0.1276406675
H  H34  1  0.13650000  0.86350000  0.41710000  1.0 0.1276406675
H  H35  1  0.41710000  0.58290000  0.86350000  1.0 0.1276406675
H  H36  1  0.86350000  0.13650000  0.58290000  1.0 0.1276406675
H  H37  1  0.86350000  0.13650000  0.41710000  1.0 0.1276406675
H  H38  1  0.41710000  0.58290000  0.13650000  1.0 0.1276406675
H  H39  1  0.13650000  0.86350000  0.58290000  1.0 0.1276406675
H  H40  1  0.58290000  0.41710000  0.86350000  1.0 0.1276406675
H  H41  1  0.13650000  0.58290000  0.41710000  1.0 0.1276406675
H  H42  1  0.41710000  0.86350000  0.58290000  1.0 0.1276406675
H  H43  1  0.13650000  0.58290000  0.86350000  1.0 0.1276406675
H  H44  1  0.86350000  0.41710000  0.13650000  1.0 0.1276406675
H  H45  1  0.58290000  0.13650000  0.41710000  1.0 0.1276406675
H  H46  1  0.86350000  0.41710000  0.58290000  1.0 0.1276406675
H  H47  1  0.58290000  0.13650000  0.86350000  1.0 0.1276406675
H  H48  1  0.41710000  0.86350000  0.13650000  1.0 0.1276406675
H  H49  1  0.37030000  0.18750000  0.62970000  1.0 0.1220589204
H  H50  1  0.18750000  0.37030000  0.62970000  1.0 0.1220589204
H  H51  1  0.18750000  0.37030000  0.81250000  1.0 0.1220589204
H  H52  1  0.37030000  0.18750000  0.81250000  1.0 0.1220589204
H  H53  1  0.81250000  0.62970000  0.18750000  1.0 0.1220589204
H  H54  1  0.62970000  0.81250000  0.18750000  1.0 0.1220589204
H  H55  1  0.62970000  0.81250000  0.37030000  1.0 0.1220589204
H  H56  1  0.81250000  0.62970000  0.37030000  1.0 0.1220589204
H  H57  1  0.62970000  0.37030000  0.18750000  1.0 0.1220589204
H  H58  1  0.18750000  0.81250000  0.37030000  1.0 0.1220589204
H  H59  1  0.37030000  0.62970000  0.81250000  1.0 0.1220589204
H  H60  1  0.81250000  0.18750000  0.62970000  1.0 0.1220589204
H  H61  1  0.81250000  0.18750000  0.37030000  1.0 0.1220589204
H  H62  1  0.37030000  0.62970000  0.18750000  1.0 0.1220589204
H  H63  1  0.18750000  0.81250000  0.62970000  1.0 0.1220589204
H  H64  1  0.62970000  0.37030000  0.81250000  1.0 0.1220589204
H  H65  1  0.18750000  0.62970000  0.37030000  1.0 0.1220589204
H  H66  1  0.37030000  0.81250000  0.62970000  1.0 0.1220589204
H  H67  1  0.18750000  0.62970000  0.81250000  1.0 0.1220589204
H  H68  1  0.81250000  0.37030000  0.18750000  1.0 0.1220589204
H  H69  1  0.62970000  0.18750000  0.37030000  1.0 0.1220589204
H  H70  1  0.81250000  0.37030000  0.62970000  1.0 0.1220589204
H  H71  1  0.62970000  0.18750000  0.81250000  1.0 0.1220589204
H  H72  1  0.37030000  0.81250000  0.18750000  1.0 0.1220589204
H  H73  1  0.43320000  0.13720000  0.49300000  1.0 0.1077418766
H  H74  1  0.06340000  0.50700000  0.56680000  1.0 0.1077418766
H  H75  1  0.13720000  0.43320000  0.93660000  1.0 0.1077418766
H  H76  1  0.50700000  0.06340000  0.86280000  1.0 0.1077418766
H  H77  1  0.93660000  0.49300000  0.13720000  1.0 0.1077418766
H  H78  1  0.56680000  0.86280000  0.06340000  1.0 0.1077418766
H  H79  1  0.49300000  0.93660000  0.43320000  1.0 0.1077418766
H  H80  1  0.86280000  0.56680000  0.50700000  1.0 0.1077418766
H  H81  1  0.49300000  0.43320000  0.13720000  1.0 0.1077418766
H  H82  1  0.06340000  0.86280000  0.50700000  1.0 0.1077418766
H  H83  1  0.43320000  0.49300000  0.93660000  1.0 0.1077418766
H  H84  1  0.86280000  0.06340000  0.56680000  1.0 0.1077418766
H  H85  1  0.93660000  0.13720000  0.43320000  1.0 0.1077418766
H  H86  1  0.50700000  0.56680000  0.06340000  1.0 0.1077418766
H  H87  1  0.13720000  0.93660000  0.49300000  1.0 0.1077418766
H  H88  1  0.56680000  0.50700000  0.86280000  1.0 0.1077418766
H  H89  1  0.13720000  0.49300000  0.43320000  1.0 0.1077418766
H  H90  1  0.50700000  0.86280000  0.56680000  1.0 0.1077418766
H  H91  1  0.06340000  0.56680000  0.86280000  1.0 0.1077418766
H  H92  1  0.86280000  0.50700000  0.06340000  1.0 0.1077418766
H  H93  1  0.56680000  0.06340000  0.50700000  1.0 0.1077418766
H  H94  1  0.93660000  0.43320000  0.49300000  1.0 0.1077418766
H  H95  1  0.49300000  0.13720000  0.93660000  1.0 0.1077418766
H  H96  1  0.43320000  0.93660000  0.13720000  1.0 0.1077418766
H  H97  1  0.56680000  0.86280000  0.50700000  1.0 0.1077418766
H  H98  1  0.93660000  0.49300000  0.43320000  1.0 0.1077418766
H  H99  1  0.86280000  0.56680000  0.06340000  1.0 0.1077418766
H  H100  1  0.49300000  0.93660000  0.13720000  1.0 0.1077418766
H  H101  1  0.06340000  0.50700000  0.86280000  1.0 0.1077418766
H  H102  1  0.43320000  0.13720000  0.93660000  1.0 0.1077418766
H  H103  1  0.50700000  0.06340000  0.56680000  1.0 0.1077418766
H  H104  1  0.13720000  0.43320000  0.49300000  1.0 0.1077418766
H  H105  1  0.50700000  0.56680000  0.86280000  1.0 0.1077418766
H  H106  1  0.93660000  0.13720000  0.49300000  1.0 0.1077418766
H  H107  1  0.56680000  0.50700000  0.06340000  1.0 0.1077418766
H  H108  1  0.13720000  0.93660000  0.43320000  1.0 0.1077418766
H  H109  1  0.06340000  0.86280000  0.56680000  1.0 0.1077418766
H  H110  1  0.49300000  0.43320000  0.93660000  1.0 0.1077418766
H  H111  1  0.86280000  0.06340000  0.50700000  1.0 0.1077418766
H  H112  1  0.43320000  0.49300000  0.13720000  1.0 0.1077418766
H  H113  1  0.86280000  0.50700000  0.56680000  1.0 0.1077418766
H  H114  1  0.49300000  0.13720000  0.43320000  1.0 0.1077418766
H  H115  1  0.93660000  0.43320000  0.13720000  1.0 0.1077418766
H  H116  1  0.13720000  0.49300000  0.93660000  1.0 0.1077418766
H  H117  1  0.43320000  0.93660000  0.49300000  1.0 0.1077418766
H  H118  1  0.06340000  0.56680000  0.50700000  1.0 0.1077418766
H  H119  1  0.50700000  0.86280000  0.06340000  1.0 0.1077418766
H  H120  1  0.56680000  0.06340000  0.86280000  1.0 0.1077418766
H  H121  1  0.43510000  0.06410000  0.49450000  1.0 0.0870951788
H  H122  1  0.99370000  0.50550000  0.56490000  1.0 0.0870951788
H  H123  1  0.06410000  0.43510000  0.00630000  1.0 0.0870951788
H  H124  1  0.50550000  0.99370000  0.93590000  1.0 0.0870951788
H  H125  1  0.00630000  0.49450000  0.06410000  1.0 0.0870951788
H  H126  1  0.56490000  0.93590000  0.99370000  1.0 0.0870951788
H  H127  1  0.49450000  0.00630000  0.43510000  1.0 0.0870951788
H  H128  1  0.93590000  0.56490000  0.50550000  1.0 0.0870951788
H  H129  1  0.49450000  0.43510000  0.06410000  1.0 0.0870951788
H  H130  1  0.99370000  0.93590000  0.50550000  1.0 0.0870951788
H  H131  1  0.43510000  0.49450000  0.00630000  1.0 0.0870951788
H  H132  1  0.93590000  0.99370000  0.56490000  1.0 0.0870951788
H  H133  1  0.00630000  0.06410000  0.43510000  1.0 0.0870951788
H  H134  1  0.50550000  0.56490000  0.99370000  1.0 0.0870951788
H  H135  1  0.06410000  0.00630000  0.49450000  1.0 0.0870951788
H  H136  1  0.56490000  0.50550000  0.93590000  1.0 0.0870951788
H  H137  1  0.06410000  0.49450000  0.43510000  1.0 0.0870951788
H  H138  1  0.50550000  0.93590000  0.56490000  1.0 0.0870951788
H  H139  1  0.99370000  0.56490000  0.93590000  1.0 0.0870951788
H  H140  1  0.93590000  0.50550000  0.99370000  1.0 0.0870951788
H  H141  1  0.56490000  0.99370000  0.50550000  1.0 0.0870951788
H  H142  1  0.00630000  0.43510000  0.49450000  1.0 0.0870951788
H  H143  1  0.49450000  0.06410000  0.00630000  1.0 0.0870951788
H  H144  1  0.43510000  0.00630000  0.06410000  1.0 0.0870951788
H  H145  1  0.56490000  0.93590000  0.50550000  1.0 0.0870951788
H  H146  1  0.00630000  0.49450000  0.43510000  1.0 0.0870951788
H  H147  1  0.93590000  0.56490000  0.99370000  1.0 0.0870951788
H  H148  1  0.49450000  0.00630000  0.06410000  1.0 0.0870951788
H  H149  1  0.99370000  0.50550000  0.93590000  1.0 0.0870951788
H  H150  1  0.43510000  0.06410000  0.00630000  1.0 0.0870951788
H  H151  1  0.50550000  0.99370000  0.56490000  1.0 0.0870951788
H  H152  1  0.06410000  0.43510000  0.49450000  1.0 0.0870951788
H  H153  1  0.50550000  0.56490000  0.93590000  1.0 0.0870951788
H  H154  1  0.00630000  0.06410000  0.49450000  1.0 0.0870951788
H  H155  1  0.56490000  0.50550000  0.99370000  1.0 0.0870951788
H  H156  1  0.06410000  0.00630000  0.43510000  1.0 0.0870951788
H  H157  1  0.99370000  0.93590000  0.56490000  1.0 0.0870951788
H  H158  1  0.49450000  0.43510000  0.00630000  1.0 0.0870951788
H  H159  1  0.93590000  0.99370000  0.50550000  1.0 0.0870951788
H  H160  1  0.43510000  0.49450000  0.06410000  1.0 0.0870951788
H  H161  1  0.93590000  0.50550000  0.56490000  1.0 0.0870951788
H  H162  1  0.49450000  0.06410000  0.43510000  1.0 0.0870951788
H  H163  1  0.00630000  0.43510000  0.06410000  1.0 0.0870951788
H  H164  1  0.06410000  0.49450000  0.00630000  1.0 0.0870951788
H  H165  1  0.43510000  0.00630000  0.49450000  1.0 0.0870951788
H  H166  1  0.99370000  0.56490000  0.50550000  1.0 0.0870951788
H  H167  1  0.50550000  0.93590000  0.99370000  1.0 0.0870951788
H  H168  1  0.56490000  0.99370000  0.93590000  1.0 0.0870951788
C  C1  1  0.37660000  0.26720000  0.62340000  1.0 0.5940856429
C  C2  1  0.26720000  0.37660000  0.62340000  1.0 0.5940856429
C  C3  1  0.26720000  0.37660000  0.73280000  1.0 0.5940856429
C  C4  1  0.37660000  0.26720000  0.73280000  1.0 0.5940856429
C  C5  1  0.73280000  0.62340000  0.26720000  1.0 0.5940856429
C  C6  1  0.62340000  0.73280000  0.26720000  1.0 0.5940856429
C  C7  1  0.62340000  0.73280000  0.37660000  1.0 0.5940856429
C  C8  1  0.73280000  0.62340000  0.37660000  1.0 0.5940856429
C  C9  1  0.62340000  0.37660000  0.26720000  1.0 0.5940856429
C  C10  1  0.26720000  0.73280000  0.37660000  1.0 0.5940856429
C  C11  1  0.37660000  0.62340000  0.73280000  1.0 0.5940856429
C  C12  1  0.73280000  0.26720000  0.62340000  1.0 0.5940856429
C  C13  1  0.73280000  0.26720000  0.37660000  1.0 0.5940856429
C  C14  1  0.37660000  0.62340000  0.26720000  1.0 0.5940856429
C  C15  1  0.26720000  0.73280000  0.62340000  1.0 0.5940856429
C  C16  1  0.62340000  0.37660000  0.73280000  1.0 0.5940856429
C  C17  1  0.26720000  0.62340000  0.37660000  1.0 0.5940856429
C  C18  1  0.37660000  0.73280000  0.62340000  1.0 0.5940856429
C  C19  1  0.26720000  0.62340000  0.73280000  1.0 0.5940856429
C  C20  1  0.73280000  0.37660000  0.26720000  1.0 0.5940856429
C  C21  1  0.62340000  0.26720000  0.37660000  1.0 0.5940856429
C  C22  1  0.73280000  0.37660000  0.62340000  1.0 0.5940856429
C  C23  1  0.62340000  0.26720000  0.73280000  1.0 0.5940856429
C  C24  1  0.37660000  0.73280000  0.26720000  1.0 0.5940856429
C  C25  1  0.40870000  0.23490000  0.59130000  1.0 -0.0371343944
C  C26  1  0.23490000  0.40870000  0.59130000  1.0 -0.0371343944
C  C27  1  0.23490000  0.40870000  0.76510000  1.0 -0.0371343944
C  C28  1  0.40870000  0.23490000  0.76510000  1.0 -0.0371343944
C  C29  1  0.76510000  0.59130000  0.23490000  1.0 -0.0371343944
C  C30  1  0.59130000  0.76510000  0.23490000  1.0 -0.0371343944
C  C31  1  0.59130000  0.76510000  0.40870000  1.0 -0.0371343944
C  C32  1  0.76510000  0.59130000  0.40870000  1.0 -0.0371343944
C  C33  1  0.59130000  0.40870000  0.23490000  1.0 -0.0371343944
C  C34  1  0.23490000  0.76510000  0.40870000  1.0 -0.0371343944
C  C35  1  0.40870000  0.59130000  0.76510000  1.0 -0.0371343944
C  C36  1  0.76510000  0.23490000  0.59130000  1.0 -0.0371343944
C  C37  1  0.76510000  0.23490000  0.40870000  1.0 -0.0371343944
C  C38  1  0.40870000  0.59130000  0.23490000  1.0 -0.0371343944
C  C39  1  0.23490000  0.76510000  0.59130000  1.0 -0.0371343944
C  C40  1  0.59130000  0.40870000  0.76510000  1.0 -0.0371343944
C  C41  1  0.23490000  0.59130000  0.40870000  1.0 -0.0371343944
C  C42  1  0.40870000  0.76510000  0.59130000  1.0 -0.0371343944
C  C43  1  0.23490000  0.59130000  0.76510000  1.0 -0.0371343944
C  C44  1  0.76510000  0.40870000  0.23490000  1.0 -0.0371343944
C  C45  1  0.59130000  0.23490000  0.40870000  1.0 -0.0371343944
C  C46  1  0.76510000  0.40870000  0.59130000  1.0 -0.0371343944
C  C47  1  0.59130000  0.23490000  0.76510000  1.0 -0.0371343944
C  C48  1  0.40870000  0.76510000  0.23490000  1.0 -0.0371343944
C  C49  1  0.44950000  0.24570000  0.55050000  1.0 -0.1327021031
C  C50  1  0.24570000  0.44950000  0.55050000  1.0 -0.1327021031
C  C51  1  0.24570000  0.44950000  0.75430000  1.0 -0.1327021031
C  C52  1  0.44950000  0.24570000  0.75430000  1.0 -0.1327021031
C  C53  1  0.75430000  0.55050000  0.24570000  1.0 -0.1327021031
C  C54  1  0.55050000  0.75430000  0.24570000  1.0 -0.1327021031
C  C55  1  0.55050000  0.75430000  0.44950000  1.0 -0.1327021031
C  C56  1  0.75430000  0.55050000  0.44950000  1.0 -0.1327021031
C  C57  1  0.55050000  0.44950000  0.24570000  1.0 -0.1327021031
C  C58  1  0.24570000  0.75430000  0.44950000  1.0 -0.1327021031
C  C59  1  0.44950000  0.55050000  0.75430000  1.0 -0.1327021031
C  C60  1  0.75430000  0.24570000  0.55050000  1.0 -0.1327021031
C  C61  1  0.75430000  0.24570000  0.44950000  1.0 -0.1327021031
C  C62  1  0.44950000  0.55050000  0.24570000  1.0 -0.1327021031
C  C63  1  0.24570000  0.75430000  0.55050000  1.0 -0.1327021031
C  C64  1  0.55050000  0.44950000  0.75430000  1.0 -0.1327021031
C  C65  1  0.24570000  0.55050000  0.44950000  1.0 -0.1327021031
C  C66  1  0.44950000  0.75430000  0.55050000  1.0 -0.1327021031
C  C67  1  0.24570000  0.55050000  0.75430000  1.0 -0.1327021031
C  C68  1  0.75430000  0.44950000  0.24570000  1.0 -0.1327021031
C  C69  1  0.55050000  0.24570000  0.44950000  1.0 -0.1327021031
C  C70  1  0.75430000  0.44950000  0.55050000  1.0 -0.1327021031
C  C71  1  0.55050000  0.24570000  0.75430000  1.0 -0.1327021031
C  C72  1  0.44950000  0.75430000  0.24570000  1.0 -0.1327021031
C  C73  1  0.47790000  0.21530000  0.52210000  1.0 -0.0202872037
C  C74  1  0.21530000  0.47790000  0.52210000  1.0 -0.0202872037
C  C75  1  0.21530000  0.47790000  0.78470000  1.0 -0.0202872037
C  C76  1  0.47790000  0.21530000  0.78470000  1.0 -0.0202872037
C  C77  1  0.78470000  0.52210000  0.21530000  1.0 -0.0202872037
C  C78  1  0.52210000  0.78470000  0.21530000  1.0 -0.0202872037
C  C79  1  0.52210000  0.78470000  0.47790000  1.0 -0.0202872037
C  C80  1  0.78470000  0.52210000  0.47790000  1.0 -0.0202872037
C  C81  1  0.52210000  0.47790000  0.21530000  1.0 -0.0202872037
C  C82  1  0.21530000  0.78470000  0.47790000  1.0 -0.0202872037
C  C83  1  0.47790000  0.52210000  0.78470000  1.0 -0.0202872037
C  C84  1  0.78470000  0.21530000  0.52210000  1.0 -0.0202872037
C  C85  1  0.78470000  0.21530000  0.47790000  1.0 -0.0202872037
C  C86  1  0.47790000  0.52210000  0.21530000  1.0 -0.0202872037
C  C87  1  0.21530000  0.78470000  0.52210000  1.0 -0.0202872037
C  C88  1  0.52210000  0.47790000  0.78470000  1.0 -0.0202872037
C  C89  1  0.21530000  0.52210000  0.47790000  1.0 -0.0202872037
C  C90  1  0.47790000  0.78470000  0.52210000  1.0 -0.0202872037
C  C91  1  0.21530000  0.52210000  0.78470000  1.0 -0.0202872037
C  C92  1  0.78470000  0.47790000  0.21530000  1.0 -0.0202872037
C  C93  1  0.52210000  0.21530000  0.47790000  1.0 -0.0202872037
C  C94  1  0.78470000  0.47790000  0.52210000  1.0 -0.0202872037
C  C95  1  0.52210000  0.21530000  0.78470000  1.0 -0.0202872037
C  C96  1  0.47790000  0.78470000  0.21530000  1.0 -0.0202872037
C  C97  1  0.46560000  0.17420000  0.53440000  1.0 0.136687296
C  C98  1  0.17420000  0.46560000  0.53440000  1.0 0.136687296
C  C99  1  0.17420000  0.46560000  0.82580000  1.0 0.136687296
C  C100  1  0.46560000  0.17420000  0.82580000  1.0 0.136687296
C  C101  1  0.82580000  0.53440000  0.17420000  1.0 0.136687296
C  C102  1  0.53440000  0.82580000  0.17420000  1.0 0.136687296
C  C103  1  0.53440000  0.82580000  0.46560000  1.0 0.136687296
C  C104  1  0.82580000  0.53440000  0.46560000  1.0 0.136687296
C  C105  1  0.53440000  0.46560000  0.17420000  1.0 0.136687296
C  C106  1  0.17420000  0.82580000  0.46560000  1.0 0.136687296
C  C107  1  0.46560000  0.53440000  0.82580000  1.0 0.136687296
C  C108  1  0.82580000  0.17420000  0.53440000  1.0 0.136687296
C  C109  1  0.82580000  0.17420000  0.46560000  1.0 0.136687296
C  C110  1  0.46560000  0.53440000  0.17420000  1.0 0.136687296
C  C111  1  0.17420000  0.82580000  0.53440000  1.0 0.136687296
C  C112  1  0.53440000  0.46560000  0.82580000  1.0 0.136687296
C  C113  1  0.17420000  0.53440000  0.46560000  1.0 0.136687296
C  C114  1  0.46560000  0.82580000  0.53440000  1.0 0.136687296
C  C115  1  0.17420000  0.53440000  0.82580000  1.0 0.136687296
C  C116  1  0.82580000  0.46560000  0.17420000  1.0 0.136687296
C  C117  1  0.53440000  0.17420000  0.46560000  1.0 0.136687296
C  C118  1  0.82580000  0.46560000  0.53440000  1.0 0.136687296
C  C119  1  0.53440000  0.17420000  0.82580000  1.0 0.136687296
C  C120  1  0.46560000  0.82580000  0.17420000  1.0 0.136687296
C  C121  1  0.42510000  0.16350000  0.57490000  1.0 -0.210328306
C  C122  1  0.16350000  0.42510000  0.57490000  1.0 -0.210328306
C  C123  1  0.16350000  0.42510000  0.83650000  1.0 -0.210328306
C  C124  1  0.42510000  0.16350000  0.83650000  1.0 -0.210328306
C  C125  1  0.83650000  0.57490000  0.16350000  1.0 -0.210328306
C  C126  1  0.57490000  0.83650000  0.16350000  1.0 -0.210328306
C  C127  1  0.57490000  0.83650000  0.42510000  1.0 -0.210328306
C  C128  1  0.83650000  0.57490000  0.42510000  1.0 -0.210328306
C  C129  1  0.57490000  0.42510000  0.16350000  1.0 -0.210328306
C  C130  1  0.16350000  0.83650000  0.42510000  1.0 -0.210328306
C  C131  1  0.42510000  0.57490000  0.83650000  1.0 -0.210328306
C  C132  1  0.83650000  0.16350000  0.57490000  1.0 -0.210328306
C  C133  1  0.83650000  0.16350000  0.42510000  1.0 -0.210328306
C  C134  1  0.42510000  0.57490000  0.16350000  1.0 -0.210328306
C  C135  1  0.16350000  0.83650000  0.57490000  1.0 -0.210328306
C  C136  1  0.57490000  0.42510000  0.83650000  1.0 -0.210328306
C  C137  1  0.16350000  0.57490000  0.42510000  1.0 -0.210328306
C  C138  1  0.42510000  0.83650000  0.57490000  1.0 -0.210328306
C  C139  1  0.16350000  0.57490000  0.83650000  1.0 -0.210328306
C  C140  1  0.83650000  0.42510000  0.16350000  1.0 -0.210328306
C  C141  1  0.57490000  0.16350000  0.42510000  1.0 -0.210328306
C  C142  1  0.83650000  0.42510000  0.57490000  1.0 -0.210328306
C  C143  1  0.57490000  0.16350000  0.83650000  1.0 -0.210328306
C  C144  1  0.42510000  0.83650000  0.16350000  1.0 -0.210328306
C  C145  1  0.39760000  0.19400000  0.60240000  1.0 -0.0780042219
C  C146  1  0.19400000  0.39760000  0.60240000  1.0 -0.0780042219
C  C147  1  0.19400000  0.39760000  0.80600000  1.0 -0.0780042219
C  C148  1  0.39760000  0.19400000  0.80600000  1.0 -0.0780042219
C  C149  1  0.80600000  0.60240000  0.19400000  1.0 -0.0780042219
C  C150  1  0.60240000  0.80600000  0.19400000  1.0 -0.0780042219
C  C151  1  0.60240000  0.80600000  0.39760000  1.0 -0.0780042219
C  C152  1  0.80600000  0.60240000  0.39760000  1.0 -0.0780042219
C  C153  1  0.60240000  0.39760000  0.19400000  1.0 -0.0780042219
C  C154  1  0.19400000  0.80600000  0.39760000  1.0 -0.0780042219
C  C155  1  0.39760000  0.60240000  0.80600000  1.0 -0.0780042219
C  C156  1  0.80600000  0.19400000  0.60240000  1.0 -0.0780042219
C  C157  1  0.80600000  0.19400000  0.39760000  1.0 -0.0780042219
C  C158  1  0.39760000  0.60240000  0.19400000  1.0 -0.0780042219
C  C159  1  0.19400000  0.80600000  0.60240000  1.0 -0.0780042219
C  C160  1  0.60240000  0.39760000  0.80600000  1.0 -0.0780042219
C  C161  1  0.19400000  0.60240000  0.39760000  1.0 -0.0780042219
C  C162  1  0.39760000  0.80600000  0.60240000  1.0 -0.0780042219
C  C163  1  0.19400000  0.60240000  0.80600000  1.0 -0.0780042219
C  C164  1  0.80600000  0.39760000  0.19400000  1.0 -0.0780042219
C  C165  1  0.60240000  0.19400000  0.39760000  1.0 -0.0780042219
C  C166  1  0.80600000  0.39760000  0.60240000  1.0 -0.0780042219
C  C167  1  0.60240000  0.19400000  0.80600000  1.0 -0.0780042219
C  C168  1  0.39760000  0.80600000  0.19400000  1.0 -0.0780042219
C  C169  1  0.50000000  0.10600000  0.50000000  1.0 0.0837369224
C  C170  1  0.10600000  0.50000000  0.50000000  1.0 0.0837369224
C  C171  1  0.10600000  0.50000000  0.89400000  1.0 0.0837369224
C  C172  1  0.50000000  0.10600000  0.89400000  1.0 0.0837369224
C  C173  1  0.89400000  0.50000000  0.10600000  1.0 0.0837369224
C  C174  1  0.50000000  0.89400000  0.10600000  1.0 0.0837369224
C  C175  1  0.50000000  0.89400000  0.50000000  1.0 0.0837369224
C  C176  1  0.89400000  0.50000000  0.50000000  1.0 0.0837369224
C  C177  1  0.50000000  0.50000000  0.10600000  1.0 0.0837369224
C  C178  1  0.10600000  0.89400000  0.50000000  1.0 0.0837369224
C  C179  1  0.50000000  0.50000000  0.89400000  1.0 0.0837369224
C  C180  1  0.89400000  0.10600000  0.50000000  1.0 0.0837369224
C  C181  1  0.46027000  0.10835000  0.49599000  1.0 -0.1012596434
C  C182  1  0.06461000  0.50401000  0.53973000  1.0 -0.1012596434
C  C183  1  0.10835000  0.46027000  0.93539000  1.0 -0.1012596434
C  C184  1  0.50401000  0.06461000  0.89165000  1.0 -0.1012596434
C  C185  1  0.93539000  0.49599000  0.10835000  1.0 -0.1012596434
C  C186  1  0.53973000  0.89165000  0.06461000  1.0 -0.1012596434
C  C187  1  0.49599000  0.93539000  0.46027000  1.0 -0.1012596434
C  C188  1  0.89165000  0.53973000  0.50401000  1.0 -0.1012596434
C  C189  1  0.49599000  0.46027000  0.10835000  1.0 -0.1012596434
C  C190  1  0.06461000  0.89165000  0.50401000  1.0 -0.1012596434
C  C191  1  0.46027000  0.49599000  0.93539000  1.0 -0.1012596434
C  C192  1  0.89165000  0.06461000  0.53973000  1.0 -0.1012596434
C  C193  1  0.93539000  0.10835000  0.46027000  1.0 -0.1012596434
C  C194  1  0.50401000  0.53973000  0.06461000  1.0 -0.1012596434
C  C195  1  0.10835000  0.93539000  0.49599000  1.0 -0.1012596434
C  C196  1  0.53973000  0.50401000  0.89165000  1.0 -0.1012596434
C  C197  1  0.10835000  0.49599000  0.46027000  1.0 -0.1012596434
C  C198  1  0.50401000  0.89165000  0.53973000  1.0 -0.1012596434
C  C199  1  0.06461000  0.53973000  0.89165000  1.0 -0.1012596434
C  C200  1  0.89165000  0.50401000  0.06461000  1.0 -0.1012596434
C  C201  1  0.53973000  0.06461000  0.50401000  1.0 -0.1012596434
C  C202  1  0.93539000  0.46027000  0.49599000  1.0 -0.1012596434
C  C203  1  0.49599000  0.10835000  0.93539000  1.0 -0.1012596434
C  C204  1  0.46027000  0.93539000  0.10835000  1.0 -0.1012596434
C  C205  1  0.53973000  0.89165000  0.50401000  1.0 -0.1012596434
C  C206  1  0.93539000  0.49599000  0.46027000  1.0 -0.1012596434
C  C207  1  0.89165000  0.53973000  0.06461000  1.0 -0.1012596434
C  C208  1  0.49599000  0.93539000  0.10835000  1.0 -0.1012596434
C  C209  1  0.06461000  0.50401000  0.89165000  1.0 -0.1012596434
C  C210  1  0.46027000  0.10835000  0.93539000  1.0 -0.1012596434
C  C211  1  0.50401000  0.06461000  0.53973000  1.0 -0.1012596434
C  C212  1  0.10835000  0.46027000  0.49599000  1.0 -0.1012596434
C  C213  1  0.50401000  0.53973000  0.89165000  1.0 -0.1012596434
C  C214  1  0.93539000  0.10835000  0.49599000  1.0 -0.1012596434
C  C215  1  0.53973000  0.50401000  0.06461000  1.0 -0.1012596434
C  C216  1  0.10835000  0.93539000  0.46027000  1.0 -0.1012596434
C  C217  1  0.06461000  0.89165000  0.53973000  1.0 -0.1012596434
C  C218  1  0.49599000  0.46027000  0.93539000  1.0 -0.1012596434
C  C219  1  0.89165000  0.06461000  0.50401000  1.0 -0.1012596434
C  C220  1  0.46027000  0.49599000  0.10835000  1.0 -0.1012596434
C  C221  1  0.89165000  0.50401000  0.53973000  1.0 -0.1012596434
C  C222  1  0.49599000  0.10835000  0.46027000  1.0 -0.1012596434
C  C223  1  0.93539000  0.46027000  0.10835000  1.0 -0.1012596434
C  C224  1  0.10835000  0.49599000  0.93539000  1.0 -0.1012596434
C  C225  1  0.46027000  0.93539000  0.49599000  1.0 -0.1012596434
C  C226  1  0.06461000  0.53973000  0.50401000  1.0 -0.1012596434
C  C227  1  0.50401000  0.89165000  0.06461000  1.0 -0.1012596434
C  C228  1  0.53973000  0.06461000  0.89165000  1.0 -0.1012596434
C  C229  1  0.46236000  0.06352000  0.49664000  1.0 -0.0690350305
C  C230  1  0.02252000  0.50336000  0.53764000  1.0 -0.0690350305
C  C231  1  0.06352000  0.46236000  0.97748000  1.0 -0.0690350305
C  C232  1  0.50336000  0.02252000  0.93648000  1.0 -0.0690350305
C  C233  1  0.97748000  0.49664000  0.06352000  1.0 -0.0690350305
C  C234  1  0.53764000  0.93648000  0.02252000  1.0 -0.0690350305
C  C235  1  0.49664000  0.97748000  0.46236000  1.0 -0.0690350305
C  C236  1  0.93648000  0.53764000  0.50336000  1.0 -0.0690350305
C  C237  1  0.49664000  0.46236000  0.06352000  1.0 -0.0690350305
C  C238  1  0.02252000  0.93648000  0.50336000  1.0 -0.0690350305
C  C239  1  0.46236000  0.49664000  0.97748000  1.0 -0.0690350305
C  C240  1  0.93648000  0.02252000  0.53764000  1.0 -0.0690350305
C  C241  1  0.97748000  0.06352000  0.46236000  1.0 -0.0690350305
C  C242  1  0.50336000  0.53764000  0.02252000  1.0 -0.0690350305
C  C243  1  0.06352000  0.97748000  0.49664000  1.0 -0.0690350305
C  C244  1  0.53764000  0.50336000  0.93648000  1.0 -0.0690350305
C  C245  1  0.06352000  0.49664000  0.46236000  1.0 -0.0690350305
C  C246  1  0.50336000  0.93648000  0.53764000  1.0 -0.0690350305
C  C247  1  0.02252000  0.53764000  0.93648000  1.0 -0.0690350305
C  C248  1  0.93648000  0.50336000  0.02252000  1.0 -0.0690350305
C  C249  1  0.53764000  0.02252000  0.50336000  1.0 -0.0690350305
C  C250  1  0.97748000  0.46236000  0.49664000  1.0 -0.0690350305
C  C251  1  0.49664000  0.06352000  0.97748000  1.0 -0.0690350305
C  C252  1  0.46236000  0.97748000  0.06352000  1.0 -0.0690350305
C  C253  1  0.53764000  0.93648000  0.50336000  1.0 -0.0690350305
C  C254  1  0.97748000  0.49664000  0.46236000  1.0 -0.0690350305
C  C255  1  0.93648000  0.53764000  0.02252000  1.0 -0.0690350305
C  C256  1  0.49664000  0.97748000  0.06352000  1.0 -0.0690350305
C  C257  1  0.02252000  0.50336000  0.93648000  1.0 -0.0690350305
C  C258  1  0.46236000  0.06352000  0.97748000  1.0 -0.0690350305
C  C259  1  0.50336000  0.02252000  0.53764000  1.0 -0.0690350305
C  C260  1  0.06352000  0.46236000  0.49664000  1.0 -0.0690350305
C  C261  1  0.50336000  0.53764000  0.93648000  1.0 -0.0690350305
C  C262  1  0.97748000  0.06352000  0.49664000  1.0 -0.0690350305
C  C263  1  0.53764000  0.50336000  0.02252000  1.0 -0.0690350305
C  C264  1  0.06352000  0.97748000  0.46236000  1.0 -0.0690350305
C  C265  1  0.02252000  0.93648000  0.53764000  1.0 -0.0690350305
C  C266  1  0.49664000  0.46236000  0.97748000  1.0 -0.0690350305
C  C267  1  0.93648000  0.02252000  0.50336000  1.0 -0.0690350305
C  C268  1  0.46236000  0.49664000  0.06352000  1.0 -0.0690350305
C  C269  1  0.93648000  0.50336000  0.53764000  1.0 -0.0690350305
C  C270  1  0.49664000  0.06352000  0.46236000  1.0 -0.0690350305
C  C271  1  0.97748000  0.46236000  0.06352000  1.0 -0.0690350305
C  C272  1  0.06352000  0.49664000  0.97748000  1.0 -0.0690350305
C  C273  1  0.46236000  0.97748000  0.49664000  1.0 -0.0690350305
C  C274  1  0.02252000  0.53764000  0.50336000  1.0 -0.0690350305
C  C275  1  0.50336000  0.93648000  0.02252000  1.0 -0.0690350305
C  C276  1  0.53764000  0.02252000  0.93648000  1.0 -0.0690350305
C  C277  1  0.50000000  0.02200000  0.50000000  1.0 -0.0202872037
C  C278  1  0.02200000  0.50000000  0.50000000  1.0 -0.0202872037
C  C279  1  0.02200000  0.50000000  0.97800000  1.0 -0.0202872037
C  C280  1  0.50000000  0.02200000  0.97800000  1.0 -0.0202872037
C  C281  1  0.97800000  0.50000000  0.02200000  1.0 -0.0202872037
C  C282  1  0.50000000  0.97800000  0.02200000  1.0 -0.0202872037
C  C283  1  0.50000000  0.97800000  0.50000000  1.0 -0.0202872037
C  C284  1  0.97800000  0.50000000  0.50000000  1.0 -0.0202872037
C  C285  1  0.50000000  0.50000000  0.02200000  1.0 -0.0202872037
C  C286  1  0.02200000  0.97800000  0.50000000  1.0 -0.0202872037
C  C287  1  0.50000000  0.50000000  0.97800000  1.0 -0.0202872037
C  C288  1  0.97800000  0.02200000  0.50000000  1.0 -0.0202872037
N  N1  1  0.50000000  0.15040000  0.50000000  1.0 -0.1798981635
N  N2  1  0.15040000  0.50000000  0.50000000  1.0 -0.1798981635
N  N3  1  0.15040000  0.50000000  0.84960000  1.0 -0.1798981635
N  N4  1  0.50000000  0.15040000  0.84960000  1.0 -0.1798981635
N  N5  1  0.84960000  0.50000000  0.15040000  1.0 -0.1798981635
N  N6  1  0.50000000  0.84960000  0.15040000  1.0 -0.1798981635
N  N7  1  0.50000000  0.84960000  0.50000000  1.0 -0.1798981635
N  N8  1  0.84960000  0.50000000  0.50000000  1.0 -0.1798981635
N  N9  1  0.50000000  0.50000000  0.15040000  1.0 -0.1798981635
N  N10  1  0.15040000  0.84960000  0.50000000  1.0 -0.1798981635
N  N11  1  0.50000000  0.50000000  0.84960000  1.0 -0.1798981635
N  N12  1  0.84960000  0.15040000  0.50000000  1.0 -0.1798981635
O  O1  1  0.38872000  0.30334000  0.61128000  1.0 -0.555611122
O  O2  1  0.30334000  0.38872000  0.61128000  1.0 -0.555611122
O  O3  1  0.30334000  0.38872000  0.69666000  1.0 -0.555611122
O  O4  1  0.38872000  0.30334000  0.69666000  1.0 -0.555611122
O  O5  1  0.69666000  0.61128000  0.30334000  1.0 -0.555611122
O  O6  1  0.61128000  0.69666000  0.30334000  1.0 -0.555611122
O  O7  1  0.61128000  0.69666000  0.38872000  1.0 -0.555611122
O  O8  1  0.69666000  0.61128000  0.38872000  1.0 -0.555611122
O  O9  1  0.61128000  0.38872000  0.30334000  1.0 -0.555611122
O  O10  1  0.30334000  0.69666000  0.38872000  1.0 -0.555611122
O  O11  1  0.38872000  0.61128000  0.69666000  1.0 -0.555611122
O  O12  1  0.69666000  0.30334000  0.61128000  1.0 -0.555611122
O  O13  1  0.69666000  0.30334000  0.38872000  1.0 -0.555611122
O  O14  1  0.38872000  0.61128000  0.30334000  1.0 -0.555611122
O  O15  1  0.30334000  0.69666000  0.61128000  1.0 -0.555611122
O  O16  1  0.61128000  0.38872000  0.69666000  1.0 -0.555611122
O  O17  1  0.30334000  0.61128000  0.38872000  1.0 -0.555611122
O  O18  1  0.38872000  0.69666000  0.61128000  1.0 -0.555611122
O  O19  1  0.30334000  0.61128000  0.69666000  1.0 -0.555611122
O  O20  1  0.69666000  0.38872000  0.30334000  1.0 -0.555611122
O  O21  1  0.61128000  0.30334000  0.38872000  1.0 -0.555611122
O  O22  1  0.69666000  0.38872000  0.61128000  1.0 -0.555611122
O  O23  1  0.61128000  0.30334000  0.69666000  1.0 -0.555611122
O  O24  1  0.38872000  0.69666000  0.30334000  1.0 -0.555611122
O  O25  1  0.34069000  0.25573000  0.65931000  1.0 -0.5481129172
O  O26  1  0.25573000  0.34069000  0.65931000  1.0 -0.5481129172
O  O27  1  0.25573000  0.34069000  0.74427000  1.0 -0.5481129172
O  O28  1  0.34069000  0.25573000  0.74427000  1.0 -0.5481129172
O  O29  1  0.74427000  0.65931000  0.25573000  1.0 -0.5481129172
O  O30  1  0.65931000  0.74427000  0.25573000  1.0 -0.5481129172
O  O31  1  0.65931000  0.74427000  0.34069000  1.0 -0.5481129172
O  O32  1  0.74427000  0.65931000  0.34069000  1.0 -0.5481129172
O  O33  1  0.65931000  0.34069000  0.25573000  1.0 -0.5481129172
O  O34  1  0.25573000  0.74427000  0.34069000  1.0 -0.5481129172
O  O35  1  0.34069000  0.65931000  0.74427000  1.0 -0.5481129172
O  O36  1  0.74427000  0.25573000  0.65931000  1.0 -0.5481129172
O  O37  1  0.74427000  0.25573000  0.34069000  1.0 -0.5481129172
O  O38  1  0.34069000  0.65931000  0.25573000  1.0 -0.5481129172
O  O39  1  0.25573000  0.74427000  0.65931000  1.0 -0.5481129172
O  O40  1  0.65931000  0.34069000  0.74427000  1.0 -0.5481129172
O  O41  1  0.25573000  0.65931000  0.34069000  1.0 -0.5481129172
O  O42  1  0.34069000  0.74427000  0.65931000  1.0 -0.5481129172
O  O43  1  0.25573000  0.65931000  0.74427000  1.0 -0.5481129172
O  O44  1  0.74427000  0.34069000  0.25573000  1.0 -0.5481129172
O  O45  1  0.65931000  0.25573000  0.34069000  1.0 -0.5481129172
O  O46  1  0.74427000  0.34069000  0.65931000  1.0 -0.5481129172
O  O47  1  0.65931000  0.25573000  0.74427000  1.0 -0.5481129172
O  O48  1  0.34069000  0.74427000  0.25573000  1.0 -0.5481129172
