# DDEC6 charges by PACMAN v1.1 (https://github.com/mtap-research/PACMAN-charge/)
data_ACODAZ_ASR_pacman
_symmetry_space_group_name_H-M   'P 1'
_cell_length_a   33.04310000
_cell_length_b   33.04310000
_cell_length_c   33.04310000
_cell_angle_alpha   60.00000000
_cell_angle_beta   60.00000000
_cell_angle_gamma   60.00000000
_symmetry_Int_Tables_number   1
_chemical_formula_structural   CoH14C24NO4
_chemical_formula_sum   'Co12 H168 C288 N12 O48'
_cell_volume   25510.99257096
_cell_formula_units_Z   12
loop_
 _symmetry_equiv_pos_site_id
 _symmetry_equiv_pos_as_xyz
  1  'x, y, z'
loop_
 _atom_site_type_symbol
 _atom_site_label
 _atom_site_symmetry_multiplicity
 _atom_site_fract_x
 _atom_site_fract_y
 _atom_site_fract_z
 _atom_site_occupancy
 _atom_site_charge
Co  Co1  1  0.64780000  0.35220000  0.64780000  1.0 0.9595770796
Co  Co2  1  0.35220000  0.64780000  0.35220000  1.0 0.9595770796
Co  Co3  1  0.64780000  0.64780000  0.35220000  1.0 0.9595770796
Co  Co4  1  0.35220000  0.35220000  0.64780000  1.0 0.9595770796
Co  Co5  1  0.35220000  0.64780000  0.64780000  1.0 0.9595770796
Co  Co6  1  0.64780000  0.35220000  0.35220000  1.0 0.9595770796
Co  Co7  1  0.70840000  0.29160000  0.70840000  1.0 0.9714307149
Co  Co8  1  0.29160000  0.70840000  0.29160000  1.0 0.9714307149
Co  Co9  1  0.70840000  0.70840000  0.29160000  1.0 0.9714307149
Co  Co10  1  0.29160000  0.29160000  0.70840000  1.0 0.9714307149
Co  Co11  1  0.29160000  0.70840000  0.70840000  1.0 0.9714307149
Co  Co12  1  0.70840000  0.29160000  0.29160000  1.0 0.9714307149
H  H1  1  0.54310000  0.45690000  0.72750000  1.0 0.1395443638
H  H2  1  0.45690000  0.54310000  0.27250000  1.0 0.1395443638
H  H3  1  0.72750000  0.27250000  0.54310000  1.0 0.1395443638
H  H4  1  0.27250000  0.72750000  0.45690000  1.0 0.1395443638
H  H5  1  0.72750000  0.54310000  0.45690000  1.0 0.1395443638
H  H6  1  0.27250000  0.45690000  0.54310000  1.0 0.1395443638
H  H7  1  0.54310000  0.72750000  0.27250000  1.0 0.1395443638
H  H8  1  0.45690000  0.27250000  0.72750000  1.0 0.1395443638
H  H9  1  0.45690000  0.72750000  0.54310000  1.0 0.1395443638
H  H10  1  0.54310000  0.27250000  0.45690000  1.0 0.1395443638
H  H11  1  0.27250000  0.54310000  0.72750000  1.0 0.1395443638
H  H12  1  0.72750000  0.45690000  0.27250000  1.0 0.1395443638
H  H13  1  0.45690000  0.54310000  0.72750000  1.0 0.1395443638
H  H14  1  0.54310000  0.45690000  0.27250000  1.0 0.1395443638
H  H15  1  0.27250000  0.72750000  0.54310000  1.0 0.1395443638
H  H16  1  0.72750000  0.27250000  0.45690000  1.0 0.1395443638
H  H17  1  0.27250000  0.45690000  0.72750000  1.0 0.1395443638
H  H18  1  0.72750000  0.54310000  0.27250000  1.0 0.1395443638
H  H19  1  0.45690000  0.27250000  0.54310000  1.0 0.1395443638
H  H20  1  0.54310000  0.72750000  0.45690000  1.0 0.1395443638
H  H21  1  0.54310000  0.27250000  0.72750000  1.0 0.1395443638
H  H22  1  0.45690000  0.72750000  0.27250000  1.0 0.1395443638
H  H23  1  0.72750000  0.45690000  0.54310000  1.0 0.1395443638
H  H24  1  0.27250000  0.54310000  0.45690000  1.0 0.1395443638
H  H25  1  0.58170000  0.41830000  0.86410000  1.0 0.1243523468
H  H26  1  0.41830000  0.58170000  0.13590000  1.0 0.1243523468
H  H27  1  0.86410000  0.13590000  0.58170000  1.0 0.1243523468
H  H28  1  0.13590000  0.86410000  0.41830000  1.0 0.1243523468
H  H29  1  0.86410000  0.58170000  0.41830000  1.0 0.1243523468
H  H30  1  0.13590000  0.41830000  0.58170000  1.0 0.1243523468
H  H31  1  0.58170000  0.86410000  0.13590000  1.0 0.1243523468
H  H32  1  0.41830000  0.13590000  0.86410000  1.0 0.1243523468
H  H33  1  0.41830000  0.86410000  0.58170000  1.0 0.1243523468
H  H34  1  0.58170000  0.13590000  0.41830000  1.0 0.1243523468
H  H35  1  0.13590000  0.58170000  0.86410000  1.0 0.1243523468
H  H36  1  0.86410000  0.41830000  0.13590000  1.0 0.1243523468
H  H37  1  0.41830000  0.58170000  0.86410000  1.0 0.1243523468
H  H38  1  0.58170000  0.41830000  0.13590000  1.0 0.1243523468
H  H39  1  0.13590000  0.86410000  0.58170000  1.0 0.1243523468
H  H40  1  0.86410000  0.13590000  0.41830000  1.0 0.1243523468
H  H41  1  0.13590000  0.41830000  0.86410000  1.0 0.1243523468
H  H42  1  0.86410000  0.58170000  0.13590000  1.0 0.1243523468
H  H43  1  0.41830000  0.13590000  0.58170000  1.0 0.1243523468
H  H44  1  0.58170000  0.86410000  0.41830000  1.0 0.1243523468
H  H45  1  0.58170000  0.13590000  0.86410000  1.0 0.1243523468
H  H46  1  0.41830000  0.86410000  0.13590000  1.0 0.1243523468
H  H47  1  0.86410000  0.41830000  0.58170000  1.0 0.1243523468
H  H48  1  0.13590000  0.58170000  0.41830000  1.0 0.1243523468
H  H49  1  0.62970000  0.37030000  0.81350000  1.0 0.1282124088
H  H50  1  0.37030000  0.62970000  0.18650000  1.0 0.1282124088
H  H51  1  0.81350000  0.18650000  0.62970000  1.0 0.1282124088
H  H52  1  0.18650000  0.81350000  0.37030000  1.0 0.1282124088
H  H53  1  0.81350000  0.62970000  0.37030000  1.0 0.1282124088
H  H54  1  0.18650000  0.37030000  0.62970000  1.0 0.1282124088
H  H55  1  0.62970000  0.81350000  0.18650000  1.0 0.1282124088
H  H56  1  0.37030000  0.18650000  0.81350000  1.0 0.1282124088
H  H57  1  0.37030000  0.81350000  0.62970000  1.0 0.1282124088
H  H58  1  0.62970000  0.18650000  0.37030000  1.0 0.1282124088
H  H59  1  0.18650000  0.62970000  0.81350000  1.0 0.1282124088
H  H60  1  0.81350000  0.37030000  0.18650000  1.0 0.1282124088
H  H61  1  0.37030000  0.62970000  0.81350000  1.0 0.1282124088
H  H62  1  0.62970000  0.37030000  0.18650000  1.0 0.1282124088
H  H63  1  0.18650000  0.81350000  0.62970000  1.0 0.1282124088
H  H64  1  0.81350000  0.18650000  0.37030000  1.0 0.1282124088
H  H65  1  0.18650000  0.37030000  0.81350000  1.0 0.1282124088
H  H66  1  0.81350000  0.62970000  0.18650000  1.0 0.1282124088
H  H67  1  0.37030000  0.18650000  0.62970000  1.0 0.1282124088
H  H68  1  0.62970000  0.81350000  0.37030000  1.0 0.1282124088
H  H69  1  0.62970000  0.18650000  0.81350000  1.0 0.1282124088
H  H70  1  0.37030000  0.81350000  0.18650000  1.0 0.1282124088
H  H71  1  0.81350000  0.37030000  0.62970000  1.0 0.1282124088
H  H72  1  0.18650000  0.62970000  0.37030000  1.0 0.1282124088
H  H73  1  0.56610000  0.50350000  0.86390000  1.0 0.105153348
H  H74  1  0.50350000  0.56610000  0.06650000  1.0 0.1048308049
H  H75  1  0.86390000  0.06650000  0.56610000  1.0 0.105153348
H  H76  1  0.06650000  0.86390000  0.50350000  1.0 0.1048308049
H  H77  1  0.86390000  0.56610000  0.50350000  1.0 0.105153348
H  H78  1  0.06650000  0.50350000  0.56610000  1.0 0.1048308049
H  H79  1  0.56610000  0.86390000  0.06650000  1.0 0.1048308049
H  H80  1  0.50350000  0.06650000  0.86390000  1.0 0.105153348
H  H81  1  0.50350000  0.86390000  0.56610000  1.0 0.105153348
H  H82  1  0.56610000  0.06650000  0.50350000  1.0 0.1048308049
H  H83  1  0.06650000  0.56610000  0.86390000  1.0 0.105153348
H  H84  1  0.86390000  0.50350000  0.06650000  1.0 0.1048308049
H  H85  1  0.43390000  0.49650000  0.93350000  1.0 0.105153348
H  H86  1  0.49650000  0.43390000  0.13610000  1.0 0.1048308049
H  H87  1  0.13610000  0.93350000  0.49650000  1.0 0.1048308049
H  H88  1  0.93350000  0.13610000  0.43390000  1.0 0.105153348
H  H89  1  0.13610000  0.43390000  0.93350000  1.0 0.105153348
H  H90  1  0.93350000  0.49650000  0.13610000  1.0 0.1048308049
H  H91  1  0.43390000  0.13610000  0.49650000  1.0 0.1048308049
H  H92  1  0.49650000  0.93350000  0.43390000  1.0 0.105153348
H  H93  1  0.49650000  0.13610000  0.93350000  1.0 0.105153348
H  H94  1  0.43390000  0.93350000  0.13610000  1.0 0.1048308049
H  H95  1  0.93350000  0.43390000  0.49650000  1.0 0.105153348
H  H96  1  0.13610000  0.49650000  0.43390000  1.0 0.1048308049
H  H97  1  0.43390000  0.49650000  0.13610000  1.0 0.1048308049
H  H98  1  0.49650000  0.43390000  0.93350000  1.0 0.105153348
H  H99  1  0.13610000  0.93350000  0.43390000  1.0 0.1048308049
H  H100  1  0.93350000  0.13610000  0.49650000  1.0 0.105153348
H  H101  1  0.13610000  0.43390000  0.49650000  1.0 0.1048308049
H  H102  1  0.93350000  0.49650000  0.43390000  1.0 0.105153348
H  H103  1  0.43390000  0.13610000  0.93350000  1.0 0.105153348
H  H104  1  0.49650000  0.93350000  0.13610000  1.0 0.1048308049
H  H105  1  0.49650000  0.13610000  0.43390000  1.0 0.1048308049
H  H106  1  0.43390000  0.93350000  0.49650000  1.0 0.105153348
H  H107  1  0.93350000  0.43390000  0.13610000  1.0 0.1048308049
H  H108  1  0.13610000  0.49650000  0.93350000  1.0 0.105153348
H  H109  1  0.56610000  0.50350000  0.06650000  1.0 0.1048308049
H  H110  1  0.50350000  0.56610000  0.86390000  1.0 0.105153348
H  H111  1  0.86390000  0.06650000  0.50350000  1.0 0.105153348
H  H112  1  0.06650000  0.86390000  0.56610000  1.0 0.1048308049
H  H113  1  0.86390000  0.56610000  0.06650000  1.0 0.1048308049
H  H114  1  0.06650000  0.50350000  0.86390000  1.0 0.105153348
H  H115  1  0.56610000  0.86390000  0.50350000  1.0 0.105153348
H  H116  1  0.50350000  0.06650000  0.56610000  1.0 0.1048308049
H  H117  1  0.50350000  0.86390000  0.06650000  1.0 0.1048308049
H  H118  1  0.56610000  0.06650000  0.86390000  1.0 0.105153348
H  H119  1  0.06650000  0.56610000  0.50350000  1.0 0.1048308049
H  H120  1  0.86390000  0.50350000  0.56610000  1.0 0.105153348
H  H121  1  0.56650000  0.50550000  0.93390000  1.0 0.0905676965
H  H122  1  0.50550000  0.56650000  0.99410000  1.0 0.0905676965
H  H123  1  0.93390000  0.99410000  0.56650000  1.0 0.0905676965
H  H124  1  0.99410000  0.93390000  0.50550000  1.0 0.0905676965
H  H125  1  0.93390000  0.56650000  0.50550000  1.0 0.0905676965
H  H126  1  0.99410000  0.50550000  0.56650000  1.0 0.0905676965
H  H127  1  0.56650000  0.93390000  0.99410000  1.0 0.0905676965
H  H128  1  0.50550000  0.99410000  0.93390000  1.0 0.0905676965
H  H129  1  0.50550000  0.93390000  0.56650000  1.0 0.0905676965
H  H130  1  0.56650000  0.99410000  0.50550000  1.0 0.0905676965
H  H131  1  0.99410000  0.56650000  0.93390000  1.0 0.0905676965
H  H132  1  0.93390000  0.50550000  0.99410000  1.0 0.0905676965
H  H133  1  0.43350000  0.49450000  0.00590000  1.0 0.0905676965
H  H134  1  0.49450000  0.43350000  0.06610000  1.0 0.0905676965
H  H135  1  0.06610000  0.00590000  0.49450000  1.0 0.0905676965
H  H136  1  0.00590000  0.06610000  0.43350000  1.0 0.0905676965
H  H137  1  0.06610000  0.43350000  0.00590000  1.0 0.0905676965
H  H138  1  0.00590000  0.49450000  0.06610000  1.0 0.0905676965
H  H139  1  0.43350000  0.06610000  0.49450000  1.0 0.0905676965
H  H140  1  0.49450000  0.00590000  0.43350000  1.0 0.0905676965
H  H141  1  0.49450000  0.06610000  0.00590000  1.0 0.0905676965
H  H142  1  0.43350000  0.00590000  0.06610000  1.0 0.0905676965
H  H143  1  0.00590000  0.43350000  0.49450000  1.0 0.0905676965
H  H144  1  0.06610000  0.49450000  0.43350000  1.0 0.0905676965
H  H145  1  0.43350000  0.49450000  0.06610000  1.0 0.0905676965
H  H146  1  0.49450000  0.43350000  0.00590000  1.0 0.0905676965
H  H147  1  0.06610000  0.00590000  0.43350000  1.0 0.0905676965
H  H148  1  0.00590000  0.06610000  0.49450000  1.0 0.0905676965
H  H149  1  0.06610000  0.43350000  0.49450000  1.0 0.0905676965
H  H150  1  0.00590000  0.49450000  0.43350000  1.0 0.0905676965
H  H151  1  0.43350000  0.06610000  0.00590000  1.0 0.0905676965
H  H152  1  0.49450000  0.00590000  0.06610000  1.0 0.0905676965
H  H153  1  0.49450000  0.06610000  0.43350000  1.0 0.0905676965
H  H154  1  0.43350000  0.00590000  0.49450000  1.0 0.0905676965
H  H155  1  0.00590000  0.43350000  0.06610000  1.0 0.0905676965
H  H156  1  0.06610000  0.49450000  0.00590000  1.0 0.0905676965
H  H157  1  0.56650000  0.50550000  0.99410000  1.0 0.0905676965
H  H158  1  0.50550000  0.56650000  0.93390000  1.0 0.0905676965
H  H159  1  0.93390000  0.99410000  0.50550000  1.0 0.0905676965
H  H160  1  0.99410000  0.93390000  0.56650000  1.0 0.0905676965
H  H161  1  0.93390000  0.56650000  0.99410000  1.0 0.0905676965
H  H162  1  0.99410000  0.50550000  0.93390000  1.0 0.0905676965
H  H163  1  0.56650000  0.93390000  0.50550000  1.0 0.0905676965
H  H164  1  0.50550000  0.99410000  0.56650000  1.0 0.0905676965
H  H165  1  0.50550000  0.93390000  0.99410000  1.0 0.0905676965
H  H166  1  0.56650000  0.99410000  0.93390000  1.0 0.0905676965
H  H167  1  0.99410000  0.56650000  0.50550000  1.0 0.0905676965
H  H168  1  0.93390000  0.50550000  0.56650000  1.0 0.0905676965
C  C1  1  0.62390000  0.37610000  0.73170000  1.0 0.5846312602
C  C2  1  0.37610000  0.62390000  0.26830000  1.0 0.5846312602
C  C3  1  0.73170000  0.26830000  0.62390000  1.0 0.5846312602
C  C4  1  0.26830000  0.73170000  0.37610000  1.0 0.5846312602
C  C5  1  0.73170000  0.62390000  0.37610000  1.0 0.5846312602
C  C6  1  0.26830000  0.37610000  0.62390000  1.0 0.5846312602
C  C7  1  0.62390000  0.73170000  0.26830000  1.0 0.5846312602
C  C8  1  0.37610000  0.26830000  0.73170000  1.0 0.5846312602
C  C9  1  0.37610000  0.73170000  0.62390000  1.0 0.5846312602
C  C10  1  0.62390000  0.26830000  0.37610000  1.0 0.5846312602
C  C11  1  0.26830000  0.62390000  0.73170000  1.0 0.5846312602
C  C12  1  0.73170000  0.37610000  0.26830000  1.0 0.5846312602
C  C13  1  0.37610000  0.62390000  0.73170000  1.0 0.5851611455
C  C14  1  0.62390000  0.37610000  0.26830000  1.0 0.5846312602
C  C15  1  0.26830000  0.73170000  0.62390000  1.0 0.5846312602
C  C16  1  0.73170000  0.26830000  0.37610000  1.0 0.5846312602
C  C17  1  0.26830000  0.37610000  0.73170000  1.0 0.5846312602
C  C18  1  0.73170000  0.62390000  0.26830000  1.0 0.5846312602
C  C19  1  0.37610000  0.26830000  0.62390000  1.0 0.5846312602
C  C20  1  0.62390000  0.73170000  0.37610000  1.0 0.5846312602
C  C21  1  0.62390000  0.26830000  0.73170000  1.0 0.5846312602
C  C22  1  0.37610000  0.73170000  0.26830000  1.0 0.5846312602
C  C23  1  0.73170000  0.37610000  0.62390000  1.0 0.5846312602
C  C24  1  0.26830000  0.62390000  0.37610000  1.0 0.5846312602
C  C25  1  0.59120000  0.40880000  0.76460000  1.0 -0.0149023797
C  C26  1  0.40880000  0.59120000  0.23540000  1.0 -0.0153621503
C  C27  1  0.76460000  0.23540000  0.59120000  1.0 -0.0149023797
C  C28  1  0.23540000  0.76460000  0.40880000  1.0 -0.0153621503
C  C29  1  0.76460000  0.59120000  0.40880000  1.0 -0.0153621503
C  C30  1  0.23540000  0.40880000  0.59120000  1.0 -0.0153621503
C  C31  1  0.59120000  0.76460000  0.23540000  1.0 -0.0153621503
C  C32  1  0.40880000  0.23540000  0.76460000  1.0 -0.0149023797
C  C33  1  0.40880000  0.76460000  0.59120000  1.0 -0.0153621503
C  C34  1  0.59120000  0.23540000  0.40880000  1.0 -0.0153621503
C  C35  1  0.23540000  0.59120000  0.76460000  1.0 -0.0153621503
C  C36  1  0.76460000  0.40880000  0.23540000  1.0 -0.0153621503
C  C37  1  0.40880000  0.59120000  0.76460000  1.0 -0.0153621503
C  C38  1  0.59120000  0.40880000  0.23540000  1.0 -0.0153621503
C  C39  1  0.23540000  0.76460000  0.59120000  1.0 -0.0153621503
C  C40  1  0.76460000  0.23540000  0.40880000  1.0 -0.0153621503
C  C41  1  0.23540000  0.40880000  0.76460000  1.0 -0.0153621503
C  C42  1  0.76460000  0.59120000  0.23540000  1.0 -0.0153621503
C  C43  1  0.40880000  0.23540000  0.59120000  1.0 -0.0153621503
C  C44  1  0.59120000  0.76460000  0.40880000  1.0 -0.0153621503
C  C45  1  0.59120000  0.23540000  0.76460000  1.0 -0.0149023797
C  C46  1  0.40880000  0.76460000  0.23540000  1.0 -0.0153621503
C  C47  1  0.76460000  0.40880000  0.59120000  1.0 -0.0149023797
C  C48  1  0.23540000  0.59120000  0.40880000  1.0 -0.0153621503
C  C49  1  0.55100000  0.44900000  0.75460000  1.0 -0.1300742418
C  C50  1  0.44900000  0.55100000  0.24540000  1.0 -0.1300742418
C  C51  1  0.75460000  0.24540000  0.55100000  1.0 -0.1300742418
C  C52  1  0.24540000  0.75460000  0.44900000  1.0 -0.1300742418
C  C53  1  0.75460000  0.55100000  0.44900000  1.0 -0.1300742418
C  C54  1  0.24540000  0.44900000  0.55100000  1.0 -0.1300742418
C  C55  1  0.55100000  0.75460000  0.24540000  1.0 -0.1300742418
C  C56  1  0.44900000  0.24540000  0.75460000  1.0 -0.1300742418
C  C57  1  0.44900000  0.75460000  0.55100000  1.0 -0.1300742418
C  C58  1  0.55100000  0.24540000  0.44900000  1.0 -0.1300742418
C  C59  1  0.24540000  0.55100000  0.75460000  1.0 -0.1300742418
C  C60  1  0.75460000  0.44900000  0.24540000  1.0 -0.1300742418
C  C61  1  0.44900000  0.55100000  0.75460000  1.0 -0.1300742418
C  C62  1  0.55100000  0.44900000  0.24540000  1.0 -0.1300742418
C  C63  1  0.24540000  0.75460000  0.55100000  1.0 -0.1300742418
C  C64  1  0.75460000  0.24540000  0.44900000  1.0 -0.1300742418
C  C65  1  0.24540000  0.44900000  0.75460000  1.0 -0.1300742418
C  C66  1  0.75460000  0.55100000  0.24540000  1.0 -0.1300742418
C  C67  1  0.44900000  0.24540000  0.55100000  1.0 -0.1300742418
C  C68  1  0.55100000  0.75460000  0.44900000  1.0 -0.1300742418
C  C69  1  0.55100000  0.24540000  0.75460000  1.0 -0.1300742418
C  C70  1  0.44900000  0.75460000  0.24540000  1.0 -0.1300742418
C  C71  1  0.75460000  0.44900000  0.55100000  1.0 -0.1300742418
C  C72  1  0.24540000  0.55100000  0.44900000  1.0 -0.1300742418
C  C73  1  0.52200000  0.47800000  0.78480000  1.0 -0.0278699409
C  C74  1  0.47800000  0.52200000  0.21520000  1.0 -0.0278699409
C  C75  1  0.78480000  0.21520000  0.52200000  1.0 -0.0278699409
C  C76  1  0.21520000  0.78480000  0.47800000  1.0 -0.0278699409
C  C77  1  0.78480000  0.52200000  0.47800000  1.0 -0.0278699409
C  C78  1  0.21520000  0.47800000  0.52200000  1.0 -0.0278699409
C  C79  1  0.52200000  0.78480000  0.21520000  1.0 -0.0278699409
C  C80  1  0.47800000  0.21520000  0.78480000  1.0 -0.0278699409
C  C81  1  0.47800000  0.78480000  0.52200000  1.0 -0.0278699409
C  C82  1  0.52200000  0.21520000  0.47800000  1.0 -0.0278699409
C  C83  1  0.21520000  0.52200000  0.78480000  1.0 -0.0278699409
C  C84  1  0.78480000  0.47800000  0.21520000  1.0 -0.0278699409
C  C85  1  0.47800000  0.52200000  0.78480000  1.0 -0.0278699409
C  C86  1  0.52200000  0.47800000  0.21520000  1.0 -0.0278699409
C  C87  1  0.21520000  0.78480000  0.52200000  1.0 -0.0278699409
C  C88  1  0.78480000  0.21520000  0.47800000  1.0 -0.0278699409
C  C89  1  0.21520000  0.47800000  0.78480000  1.0 -0.0278699409
C  C90  1  0.78480000  0.52200000  0.21520000  1.0 -0.0278699409
C  C91  1  0.47800000  0.21520000  0.52200000  1.0 -0.0278699409
C  C92  1  0.52200000  0.78480000  0.47800000  1.0 -0.0278699409
C  C93  1  0.52200000  0.21520000  0.78480000  1.0 -0.0278699409
C  C94  1  0.47800000  0.78480000  0.21520000  1.0 -0.0278699409
C  C95  1  0.78480000  0.47800000  0.52200000  1.0 -0.0278699409
C  C96  1  0.21520000  0.52200000  0.47800000  1.0 -0.0278699409
C  C97  1  0.53460000  0.46540000  0.82580000  1.0 0.1282124088
C  C98  1  0.46540000  0.53460000  0.17420000  1.0 0.1282124088
C  C99  1  0.82580000  0.17420000  0.53460000  1.0 0.1282124088
C  C100  1  0.17420000  0.82580000  0.46540000  1.0 0.1282124088
C  C101  1  0.82580000  0.53460000  0.46540000  1.0 0.1282124088
C  C102  1  0.17420000  0.46540000  0.53460000  1.0 0.1282124088
C  C103  1  0.53460000  0.82580000  0.17420000  1.0 0.1282124088
C  C104  1  0.46540000  0.17420000  0.82580000  1.0 0.1282124088
C  C105  1  0.46540000  0.82580000  0.53460000  1.0 0.1282124088
C  C106  1  0.53460000  0.17420000  0.46540000  1.0 0.1282124088
C  C107  1  0.17420000  0.53460000  0.82580000  1.0 0.1282124088
C  C108  1  0.82580000  0.46540000  0.17420000  1.0 0.1282124088
C  C109  1  0.46540000  0.53460000  0.82580000  1.0 0.1282124088
C  C110  1  0.53460000  0.46540000  0.17420000  1.0 0.1282124088
C  C111  1  0.17420000  0.82580000  0.53460000  1.0 0.1282124088
C  C112  1  0.82580000  0.17420000  0.46540000  1.0 0.1282124088
C  C113  1  0.17420000  0.46540000  0.82580000  1.0 0.1282124088
C  C114  1  0.82580000  0.53460000  0.17420000  1.0 0.1282124088
C  C115  1  0.46540000  0.17420000  0.53460000  1.0 0.1282124088
C  C116  1  0.53460000  0.82580000  0.46540000  1.0 0.1282124088
C  C117  1  0.53460000  0.17420000  0.82580000  1.0 0.1282124088
C  C118  1  0.46540000  0.82580000  0.17420000  1.0 0.1282124088
C  C119  1  0.82580000  0.46540000  0.53460000  1.0 0.1282124088
C  C120  1  0.17420000  0.53460000  0.46540000  1.0 0.1282124088
C  C121  1  0.57420000  0.42580000  0.83700000  1.0 -0.2016663567
C  C122  1  0.42580000  0.57420000  0.16300000  1.0 -0.2016663567
C  C123  1  0.83700000  0.16300000  0.57420000  1.0 -0.2016663567
C  C124  1  0.16300000  0.83700000  0.42580000  1.0 -0.2016663567
C  C125  1  0.83700000  0.57420000  0.42580000  1.0 -0.2016663567
C  C126  1  0.16300000  0.42580000  0.57420000  1.0 -0.2016663567
C  C127  1  0.57420000  0.83700000  0.16300000  1.0 -0.2016663567
C  C128  1  0.42580000  0.16300000  0.83700000  1.0 -0.2016663567
C  C129  1  0.42580000  0.83700000  0.57420000  1.0 -0.2016663567
C  C130  1  0.57420000  0.16300000  0.42580000  1.0 -0.2016663567
C  C131  1  0.16300000  0.57420000  0.83700000  1.0 -0.2016663567
C  C132  1  0.83700000  0.42580000  0.16300000  1.0 -0.2016663567
C  C133  1  0.42580000  0.57420000  0.83700000  1.0 -0.2016663567
C  C134  1  0.57420000  0.42580000  0.16300000  1.0 -0.2016663567
C  C135  1  0.16300000  0.83700000  0.57420000  1.0 -0.2016663567
C  C136  1  0.83700000  0.16300000  0.42580000  1.0 -0.2016663567
C  C137  1  0.16300000  0.42580000  0.83700000  1.0 -0.2016663567
C  C138  1  0.83700000  0.57420000  0.16300000  1.0 -0.2016663567
C  C139  1  0.42580000  0.16300000  0.57420000  1.0 -0.2016663567
C  C140  1  0.57420000  0.83700000  0.42580000  1.0 -0.2016663567
C  C141  1  0.57420000  0.16300000  0.83700000  1.0 -0.2016663567
C  C142  1  0.42580000  0.83700000  0.16300000  1.0 -0.2016663567
C  C143  1  0.83700000  0.42580000  0.57420000  1.0 -0.2016663567
C  C144  1  0.16300000  0.57420000  0.42580000  1.0 -0.2016663567
C  C145  1  0.60240000  0.39760000  0.80680000  1.0 -0.0824179251
C  C146  1  0.39760000  0.60240000  0.19320000  1.0 -0.0824179251
C  C147  1  0.80680000  0.19320000  0.60240000  1.0 -0.0824179251
C  C148  1  0.19320000  0.80680000  0.39760000  1.0 -0.0824179251
C  C149  1  0.80680000  0.60240000  0.39760000  1.0 -0.0824179251
C  C150  1  0.19320000  0.39760000  0.60240000  1.0 -0.0824179251
C  C151  1  0.60240000  0.80680000  0.19320000  1.0 -0.0824179251
C  C152  1  0.39760000  0.19320000  0.80680000  1.0 -0.0824179251
C  C153  1  0.39760000  0.80680000  0.60240000  1.0 -0.0824179251
C  C154  1  0.60240000  0.19320000  0.39760000  1.0 -0.0824179251
C  C155  1  0.19320000  0.60240000  0.80680000  1.0 -0.0824179251
C  C156  1  0.80680000  0.39760000  0.19320000  1.0 -0.0824179251
C  C157  1  0.39760000  0.60240000  0.80680000  1.0 -0.0824179251
C  C158  1  0.60240000  0.39760000  0.19320000  1.0 -0.0824179251
C  C159  1  0.19320000  0.80680000  0.60240000  1.0 -0.0824179251
C  C160  1  0.80680000  0.19320000  0.39760000  1.0 -0.0824179251
C  C161  1  0.19320000  0.39760000  0.80680000  1.0 -0.0824179251
C  C162  1  0.80680000  0.60240000  0.19320000  1.0 -0.0824179251
C  C163  1  0.39760000  0.19320000  0.60240000  1.0 -0.0824179251
C  C164  1  0.60240000  0.80680000  0.39760000  1.0 -0.0824179251
C  C165  1  0.60240000  0.19320000  0.80680000  1.0 -0.0824179251
C  C166  1  0.39760000  0.80680000  0.19320000  1.0 -0.0824179251
C  C167  1  0.80680000  0.39760000  0.60240000  1.0 -0.0824179251
C  C168  1  0.19320000  0.60240000  0.39760000  1.0 -0.0824179251
C  C169  1  0.50000000  0.50000000  0.89380000  1.0 0.0545428099
C  C170  1  0.50000000  0.50000000  0.10620000  1.0 0.0545428099
C  C171  1  0.89380000  0.10620000  0.50000000  1.0 0.0545428099
C  C172  1  0.10620000  0.89380000  0.50000000  1.0 0.0554914024
C  C173  1  0.89380000  0.50000000  0.50000000  1.0 0.0545428099
C  C174  1  0.10620000  0.50000000  0.50000000  1.0 0.0545428099
C  C175  1  0.50000000  0.89380000  0.10620000  1.0 0.0554914024
C  C176  1  0.50000000  0.10620000  0.89380000  1.0 0.0545428099
C  C177  1  0.50000000  0.89380000  0.50000000  1.0 0.0554914024
C  C178  1  0.50000000  0.10620000  0.50000000  1.0 0.0545428099
C  C179  1  0.10620000  0.50000000  0.89380000  1.0 0.0554914024
C  C180  1  0.89380000  0.50000000  0.10620000  1.0 0.0545428099
C  C181  1  0.53850000  0.50230000  0.89270000  1.0 -0.0883036073
C  C182  1  0.50230000  0.53850000  0.06650000  1.0 -0.0883036073
C  C183  1  0.89270000  0.06650000  0.53850000  1.0 -0.0883036073
C  C184  1  0.06650000  0.89270000  0.50230000  1.0 -0.0883036073
C  C185  1  0.89270000  0.53850000  0.50230000  1.0 -0.0883036073
C  C186  1  0.06650000  0.50230000  0.53850000  1.0 -0.0883036073
C  C187  1  0.53850000  0.89270000  0.06650000  1.0 -0.0883036073
C  C188  1  0.50230000  0.06650000  0.89270000  1.0 -0.0883036073
C  C189  1  0.50230000  0.89270000  0.53850000  1.0 -0.0883036073
C  C190  1  0.53850000  0.06650000  0.50230000  1.0 -0.0883036073
C  C191  1  0.06650000  0.53850000  0.89270000  1.0 -0.0883036073
C  C192  1  0.89270000  0.50230000  0.06650000  1.0 -0.0883036073
C  C193  1  0.46150000  0.49770000  0.93350000  1.0 -0.0883036073
C  C194  1  0.49770000  0.46150000  0.10730000  1.0 -0.0883036073
C  C195  1  0.10730000  0.93350000  0.49770000  1.0 -0.0883036073
C  C196  1  0.93350000  0.10730000  0.46150000  1.0 -0.0883036073
C  C197  1  0.10730000  0.46150000  0.93350000  1.0 -0.0883036073
C  C198  1  0.93350000  0.49770000  0.10730000  1.0 -0.0883036073
C  C199  1  0.46150000  0.10730000  0.49770000  1.0 -0.0883036073
C  C200  1  0.49770000  0.93350000  0.46150000  1.0 -0.0883036073
C  C201  1  0.49770000  0.10730000  0.93350000  1.0 -0.0883036073
C  C202  1  0.46150000  0.93350000  0.10730000  1.0 -0.0883036073
C  C203  1  0.93350000  0.46150000  0.49770000  1.0 -0.0883036073
C  C204  1  0.10730000  0.49770000  0.46150000  1.0 -0.0883036073
C  C205  1  0.46150000  0.49770000  0.10730000  1.0 -0.0883036073
C  C206  1  0.49770000  0.46150000  0.93350000  1.0 -0.0883036073
C  C207  1  0.10730000  0.93350000  0.46150000  1.0 -0.0883036073
C  C208  1  0.93350000  0.10730000  0.49770000  1.0 -0.0883036073
C  C209  1  0.10730000  0.46150000  0.49770000  1.0 -0.0883036073
C  C210  1  0.93350000  0.49770000  0.46150000  1.0 -0.0883036073
C  C211  1  0.46150000  0.10730000  0.93350000  1.0 -0.0883036073
C  C212  1  0.49770000  0.93350000  0.10730000  1.0 -0.0883036073
C  C213  1  0.49770000  0.10730000  0.46150000  1.0 -0.0883036073
C  C214  1  0.46150000  0.93350000  0.49770000  1.0 -0.0883036073
C  C215  1  0.93350000  0.46150000  0.10730000  1.0 -0.0883036073
C  C216  1  0.10730000  0.49770000  0.93350000  1.0 -0.0883036073
C  C217  1  0.53850000  0.50230000  0.06650000  1.0 -0.0883036073
C  C218  1  0.50230000  0.53850000  0.89270000  1.0 -0.0883036073
C  C219  1  0.89270000  0.06650000  0.50230000  1.0 -0.0883036073
C  C220  1  0.06650000  0.89270000  0.53850000  1.0 -0.0883036073
C  C221  1  0.89270000  0.53850000  0.06650000  1.0 -0.0883036073
C  C222  1  0.06650000  0.50230000  0.89270000  1.0 -0.0883036073
C  C223  1  0.53850000  0.89270000  0.50230000  1.0 -0.0883036073
C  C224  1  0.50230000  0.06650000  0.53850000  1.0 -0.0883036073
C  C225  1  0.50230000  0.89270000  0.06650000  1.0 -0.0883036073
C  C226  1  0.53850000  0.06650000  0.89270000  1.0 -0.0883036073
C  C227  1  0.06650000  0.53850000  0.50230000  1.0 -0.0883036073
C  C228  1  0.89270000  0.50230000  0.53850000  1.0 -0.0883036073
C  C229  1  0.53903000  0.50299000  0.93541000  1.0 -0.0824179251
C  C230  1  0.50299000  0.53903000  0.02257000  1.0 -0.0824179251
C  C231  1  0.93541000  0.02257000  0.53903000  1.0 -0.0824179251
C  C232  1  0.02257000  0.93541000  0.50299000  1.0 -0.0824179251
C  C233  1  0.93541000  0.53903000  0.50299000  1.0 -0.0824179251
C  C234  1  0.02257000  0.50299000  0.53903000  1.0 -0.0824179251
C  C235  1  0.53903000  0.93541000  0.02257000  1.0 -0.0824179251
C  C236  1  0.50299000  0.02257000  0.93541000  1.0 -0.0824179251
C  C237  1  0.50299000  0.93541000  0.53903000  1.0 -0.0824179251
C  C238  1  0.53903000  0.02257000  0.50299000  1.0 -0.0824179251
C  C239  1  0.02257000  0.53903000  0.93541000  1.0 -0.0824179251
C  C240  1  0.93541000  0.50299000  0.02257000  1.0 -0.0824179251
C  C241  1  0.46097000  0.49701000  0.97743000  1.0 -0.0824179251
C  C242  1  0.49701000  0.46097000  0.06459000  1.0 -0.0824179251
C  C243  1  0.06459000  0.97743000  0.49701000  1.0 -0.0824179251
C  C244  1  0.97743000  0.06459000  0.46097000  1.0 -0.0824179251
C  C245  1  0.06459000  0.46097000  0.97743000  1.0 -0.0824179251
C  C246  1  0.97743000  0.49701000  0.06459000  1.0 -0.0824179251
C  C247  1  0.46097000  0.06459000  0.49701000  1.0 -0.0824179251
C  C248  1  0.49701000  0.97743000  0.46097000  1.0 -0.0824179251
C  C249  1  0.49701000  0.06459000  0.97743000  1.0 -0.0824179251
C  C250  1  0.46097000  0.97743000  0.06459000  1.0 -0.0824179251
C  C251  1  0.97743000  0.46097000  0.49701000  1.0 -0.0824179251
C  C252  1  0.06459000  0.49701000  0.46097000  1.0 -0.0824179251
C  C253  1  0.46097000  0.49701000  0.06459000  1.0 -0.0824179251
C  C254  1  0.49701000  0.46097000  0.97743000  1.0 -0.0824179251
C  C255  1  0.06459000  0.97743000  0.46097000  1.0 -0.0824179251
C  C256  1  0.97743000  0.06459000  0.49701000  1.0 -0.0824179251
C  C257  1  0.06459000  0.46097000  0.49701000  1.0 -0.0824179251
C  C258  1  0.97743000  0.49701000  0.46097000  1.0 -0.0824179251
C  C259  1  0.46097000  0.06459000  0.97743000  1.0 -0.0824179251
C  C260  1  0.49701000  0.97743000  0.06459000  1.0 -0.0824179251
C  C261  1  0.49701000  0.06459000  0.46097000  1.0 -0.0824179251
C  C262  1  0.46097000  0.97743000  0.49701000  1.0 -0.0824179251
C  C263  1  0.97743000  0.46097000  0.06459000  1.0 -0.0824179251
C  C264  1  0.06459000  0.49701000  0.97743000  1.0 -0.0824179251
C  C265  1  0.53903000  0.50299000  0.02257000  1.0 -0.0824179251
C  C266  1  0.50299000  0.53903000  0.93541000  1.0 -0.0824179251
C  C267  1  0.93541000  0.02257000  0.50299000  1.0 -0.0824179251
C  C268  1  0.02257000  0.93541000  0.53903000  1.0 -0.0824179251
C  C269  1  0.93541000  0.53903000  0.02257000  1.0 -0.0824179251
C  C270  1  0.02257000  0.50299000  0.93541000  1.0 -0.0824179251
C  C271  1  0.53903000  0.93541000  0.50299000  1.0 -0.0824179251
C  C272  1  0.50299000  0.02257000  0.53903000  1.0 -0.0824179251
C  C273  1  0.50299000  0.93541000  0.02257000  1.0 -0.0824179251
C  C274  1  0.53903000  0.02257000  0.93541000  1.0 -0.0824179251
C  C275  1  0.02257000  0.53903000  0.50299000  1.0 -0.0824179251
C  C276  1  0.93541000  0.50299000  0.53903000  1.0 -0.0824179251
C  C277  1  0.50000000  0.50000000  0.97780000  1.0 0.0004958004
C  C278  1  0.50000000  0.50000000  0.02220000  1.0 -0.0005008279
C  C279  1  0.97780000  0.02220000  0.50000000  1.0 -0.0005008279
C  C280  1  0.02220000  0.97780000  0.50000000  1.0 0.0004958004
C  C281  1  0.97780000  0.50000000  0.50000000  1.0 -0.0005008279
C  C282  1  0.02220000  0.50000000  0.50000000  1.0 0.0004958004
C  C283  1  0.50000000  0.97780000  0.02220000  1.0 -0.0005008279
C  C284  1  0.50000000  0.02220000  0.97780000  1.0 0.0004958004
C  C285  1  0.50000000  0.97780000  0.50000000  1.0 0.0004958004
C  C286  1  0.50000000  0.02220000  0.50000000  1.0 -0.0005008279
C  C287  1  0.02220000  0.50000000  0.97780000  1.0 0.0004958004
C  C288  1  0.97780000  0.50000000  0.02220000  1.0 -0.0005008279
N  N1  1  0.50000000  0.50000000  0.84980000  1.0 -0.1914103208
N  N2  1  0.50000000  0.50000000  0.15020000  1.0 -0.1914103208
N  N3  1  0.84980000  0.15020000  0.50000000  1.0 -0.1914103208
N  N4  1  0.15020000  0.84980000  0.50000000  1.0 -0.1914103208
N  N5  1  0.84980000  0.50000000  0.50000000  1.0 -0.1914103208
N  N6  1  0.15020000  0.50000000  0.50000000  1.0 -0.1914103208
N  N7  1  0.50000000  0.84980000  0.15020000  1.0 -0.1914103208
N  N8  1  0.50000000  0.15020000  0.84980000  1.0 -0.1914103208
N  N9  1  0.50000000  0.84980000  0.50000000  1.0 -0.1914103208
N  N10  1  0.50000000  0.15020000  0.50000000  1.0 -0.1914103208
N  N11  1  0.15020000  0.50000000  0.84980000  1.0 -0.1914103208
N  N12  1  0.84980000  0.50000000  0.15020000  1.0 -0.1914103208
O  O1  1  0.61050000  0.38950000  0.69630000  1.0 -0.5542721789
O  O2  1  0.38950000  0.61050000  0.30370000  1.0 -0.5542721789
O  O3  1  0.69630000  0.30370000  0.61050000  1.0 -0.5542721789
O  O4  1  0.30370000  0.69630000  0.38950000  1.0 -0.5542721789
O  O5  1  0.69630000  0.61050000  0.38950000  1.0 -0.5542721789
O  O6  1  0.30370000  0.38950000  0.61050000  1.0 -0.5542721789
O  O7  1  0.61050000  0.69630000  0.30370000  1.0 -0.5542721789
O  O8  1  0.38950000  0.30370000  0.69630000  1.0 -0.5542721789
O  O9  1  0.38950000  0.69630000  0.61050000  1.0 -0.5542721789
O  O10  1  0.61050000  0.30370000  0.38950000  1.0 -0.5542721789
O  O11  1  0.30370000  0.61050000  0.69630000  1.0 -0.5542721789
O  O12  1  0.69630000  0.38950000  0.30370000  1.0 -0.5542721789
O  O13  1  0.38950000  0.61050000  0.69630000  1.0 -0.5542721789
O  O14  1  0.61050000  0.38950000  0.30370000  1.0 -0.5542721789
O  O15  1  0.30370000  0.69630000  0.61050000  1.0 -0.5542721789
O  O16  1  0.69630000  0.30370000  0.38950000  1.0 -0.5542721789
O  O17  1  0.30370000  0.38950000  0.69630000  1.0 -0.5542721789
O  O18  1  0.69630000  0.61050000  0.30370000  1.0 -0.5542721789
O  O19  1  0.38950000  0.30370000  0.61050000  1.0 -0.5542721789
O  O20  1  0.61050000  0.69630000  0.38950000  1.0 -0.5542721789
O  O21  1  0.61050000  0.30370000  0.69630000  1.0 -0.5542721789
O  O22  1  0.38950000  0.69630000  0.30370000  1.0 -0.5542721789
O  O23  1  0.69630000  0.38950000  0.61050000  1.0 -0.5542721789
O  O24  1  0.30370000  0.61050000  0.38950000  1.0 -0.5542721789
O  O25  1  0.65950000  0.34050000  0.74450000  1.0 -0.557559375
O  O26  1  0.34050000  0.65950000  0.25550000  1.0 -0.557559375
O  O27  1  0.74450000  0.25550000  0.65950000  1.0 -0.557559375
O  O28  1  0.25550000  0.74450000  0.34050000  1.0 -0.557559375
O  O29  1  0.74450000  0.65950000  0.34050000  1.0 -0.557559375
O  O30  1  0.25550000  0.34050000  0.65950000  1.0 -0.557559375
O  O31  1  0.65950000  0.74450000  0.25550000  1.0 -0.557559375
O  O32  1  0.34050000  0.25550000  0.74450000  1.0 -0.557559375
O  O33  1  0.34050000  0.74450000  0.65950000  1.0 -0.557559375
O  O34  1  0.65950000  0.25550000  0.34050000  1.0 -0.557559375
O  O35  1  0.25550000  0.65950000  0.74450000  1.0 -0.557559375
O  O36  1  0.74450000  0.34050000  0.25550000  1.0 -0.557559375
O  O37  1  0.34050000  0.65950000  0.74450000  1.0 -0.557559375
O  O38  1  0.65950000  0.34050000  0.25550000  1.0 -0.557559375
O  O39  1  0.25550000  0.74450000  0.65950000  1.0 -0.557559375
O  O40  1  0.74450000  0.25550000  0.34050000  1.0 -0.557559375
O  O41  1  0.25550000  0.34050000  0.74450000  1.0 -0.557559375
O  O42  1  0.74450000  0.65950000  0.25550000  1.0 -0.557559375
O  O43  1  0.34050000  0.25550000  0.65950000  1.0 -0.557559375
O  O44  1  0.65950000  0.74450000  0.34050000  1.0 -0.557559375
O  O45  1  0.65950000  0.25550000  0.74450000  1.0 -0.557559375
O  O46  1  0.34050000  0.74450000  0.25550000  1.0 -0.557559375
O  O47  1  0.74450000  0.34050000  0.65950000  1.0 -0.557559375
O  O48  1  0.25550000  0.65950000  0.34050000  1.0 -0.557559375
