# DDEC6 charges by PACMAN v1.1 (https://github.com/mtap-research/PACMAN-charge/)
data_ACOLEL_FSR_pacman
_symmetry_space_group_name_H-M   'P 1'
_cell_length_a   19.40840000
_cell_length_b   19.40840000
_cell_length_c   20.50400000
_cell_angle_alpha   73.73890000
_cell_angle_beta   106.26100000
_cell_angle_gamma   125.88900000
_symmetry_Int_Tables_number   1
_chemical_formula_structural   MnH19C26N5O4
_chemical_formula_sum   'Mn10 H190 C260 N50 O40'
_cell_volume   5939.93248986
_cell_formula_units_Z   10
loop_
 _symmetry_equiv_pos_site_id
 _symmetry_equiv_pos_as_xyz
  1  'x, y, z'
loop_
 _atom_site_type_symbol
 _atom_site_label
 _atom_site_symmetry_multiplicity
 _atom_site_fract_x
 _atom_site_fract_y
 _atom_site_fract_z
 _atom_site_occupancy
 _atom_site_charge
Mn  Mn1  1  0.16363000  0.65271000  0.19396000  1.0 0.7835274614
Mn  Mn2  1  0.34729000  0.83637000  0.69396000  1.0 0.7835274614
Mn  Mn3  1  0.80476000  0.99034000  0.64789000  1.0 0.7989620842
Mn  Mn4  1  0.00966000  0.19524000  0.14789000  1.0 0.7989620842
Mn  Mn5  1  0.51326000  0.28168000  0.75022000  1.0 0.7887871938
Mn  Mn6  1  0.71832000  0.48674000  0.25022000  1.0 0.7887871938
Mn  Mn7  1  0.18508000  0.01670000  0.92295000  1.0 0.7887871938
Mn  Mn8  1  0.98330000  0.81492000  0.42295000  1.0 0.7887871938
Mn  Mn9  1  0.33863000  0.45333000  0.97626000  1.0 0.7887871938
Mn  Mn10  1  0.54667000  0.66137000  0.47626000  1.0 0.7887871938
H  H1  1  0.29950000  0.66110000  0.03220000  1.0 0.1358594335
H  H2  1  0.33890000  0.70050000  0.53220000  1.0 0.1358594335
H  H3  1  0.20200000  0.80500000  0.97380000  1.0 0.129195359
H  H4  1  0.19500000  0.79800000  0.47380000  1.0 0.129195359
H  H5  1  0.21550000  0.82170000  0.86040000  1.0 0.129195359
H  H6  1  0.17830000  0.78450000  0.36040000  1.0 0.129195359
H  H7  1  0.05970000  0.72850000  0.07240000  1.0 0.120371656
H  H8  1  0.27150000  0.94030000  0.57240000  1.0 0.120371656
H  H9  1  0.95310000  0.50430000  0.20250000  1.0 0.1119597968
H  H10  1  0.49570000  0.04690000  0.70250000  1.0 0.1119597968
H  H11  1  0.83260000  0.51500000  0.12110000  1.0 0.129195359
H  H12  1  0.48500000  0.16740000  0.62110000  1.0 0.129195359
H  H13  1  0.77850000  0.55550000  0.00590000  1.0 0.120371656
H  H14  1  0.44450000  0.22150000  0.50590000  1.0 0.120371656
H  H15  1  0.70610000  0.61190000  0.93380000  1.0 0.1119597968
H  H16  1  0.38810000  0.29390000  0.43380000  1.0 0.1119597968
H  H17  1  0.89660000  0.85160000  0.97570000  1.0 0.120371656
H  H18  1  0.14840000  0.10340000  0.47570000  1.0 0.120371656
H  H19  1  0.97420000  0.79480000  0.04480000  1.0 0.120371656
H  H20  1  0.20520000  0.02580000  0.54480000  1.0 0.120371656
H  H21  1  0.63050000  0.65530000  0.88620000  1.0 0.1119597968
H  H22  1  0.34470000  0.36950000  0.38620000  1.0 0.1119597968
H  H23  1  0.54790000  0.70750000  0.81730000  1.0 0.1119597968
H  H24  1  0.29250000  0.45210000  0.31730000  1.0 0.1119597968
H  H25  1  0.75240000  0.94900000  0.82820000  1.0 0.1119597968
H  H26  1  0.05100000  0.24760000  0.32820000  1.0 0.1119597968
H  H27  1  0.83450000  0.89810000  0.89780000  1.0 0.1119597968
H  H28  1  0.10190000  0.16550000  0.39780000  1.0 0.1119597968
H  H29  1  0.46560000  0.76340000  0.78480000  1.0 0.120371656
H  H30  1  0.23660000  0.53440000  0.28480000  1.0 0.120371656
H  H31  1  0.68490000  0.99050000  0.73490000  1.0 0.129195359
H  H32  1  0.00950000  0.31510000  0.23490000  1.0 0.129195359
H  H33  1  0.55810000  0.99630000  0.66080000  1.0 0.1119597968
H  H34  1  0.00370000  0.44190000  0.16080000  1.0 0.1119597968
H  H35  1  0.33900000  0.63200000  0.95650000  1.0 0.308951322
H  H36  1  0.36800000  0.66100000  0.45650000  1.0 0.308951322
H  H37  1  0.33670000  0.66730000  0.88200000  1.0 0.308951322
H  H38  1  0.33270000  0.66330000  0.38200000  1.0 0.308951322
H  H39  1  0.93260000  0.01400000  0.47900000  1.0 0.1358594335
H  H40  1  0.98600000  0.06740000  0.97900000  1.0 0.129195359
H  H41  1  0.83250000  0.15570000  0.41110000  1.0 0.120371656
H  H42  1  0.84430000  0.16750000  0.91110000  1.0 0.120371656
H  H43  1  0.86290000  0.18290000  0.30170000  1.0 0.120371656
H  H44  1  0.81710000  0.13710000  0.80170000  1.0 0.120371656
H  H45  1  0.69210000  0.08590000  0.57860000  1.0 0.129195359
H  H46  1  0.91410000  0.30790000  0.07860000  1.0 0.129195359
H  H47  1  0.61790000  0.84510000  0.56890000  1.0 0.129195359
H  H48  1  0.15490000  0.38210000  0.06890000  1.0 0.129195359
H  H49  1  0.50150000  0.86810000  0.50010000  1.0 0.129195359
H  H50  1  0.13190000  0.49850000  0.00010000  1.0 0.129195359
H  H51  1  0.41770000  0.91470000  0.46580000  1.0 0.120371656
H  H52  1  0.08530000  0.58230000  0.96580000  1.0 0.120371656
H  H53  1  0.33840000  0.97200000  0.40630000  1.0 0.120371656
H  H54  1  0.02800000  0.66160000  0.90630000  1.0 0.120371656
H  H55  1  0.54550000  0.20990000  0.43080000  1.0 0.1119597968
H  H56  1  0.79010000  0.45450000  0.93080000  1.0 0.1119597968
H  H57  1  0.62570000  0.15230000  0.49000000  1.0 0.1119597968
H  H58  1  0.84770000  0.37430000  0.99000000  1.0 0.1119597968
H  H59  1  0.25930000  0.02630000  0.38460000  1.0 0.129195359
H  H60  1  0.97370000  0.74070000  0.88460000  1.0 0.129195359
H  H61  1  0.18600000  0.08920000  0.31960000  1.0 0.129195359
H  H62  1  0.91080000  0.81400000  0.81960000  1.0 0.129195359
H  H63  1  0.40720000  0.31140000  0.28150000  1.0 0.129195359
H  H64  1  0.68860000  0.59280000  0.78150000  1.0 0.129195359
H  H65  1  0.48230000  0.25010000  0.34330000  1.0 0.120371656
H  H66  1  0.74990000  0.51770000  0.84330000  1.0 0.120371656
H  H67  1  0.12450000  0.14370000  0.23670000  1.0 0.120371656
H  H68  1  0.85630000  0.87550000  0.73670000  1.0 0.120371656
H  H69  1  0.33750000  0.38410000  0.25590000  1.0 0.1119597968
H  H70  1  0.61590000  0.66250000  0.75590000  1.0 0.1119597968
H  H71  1  0.21600000  0.39700000  0.18200000  1.0 0.1119597968
H  H72  1  0.60300000  0.78400000  0.68200000  1.0 0.1119597968
H  H73  1  0.99160000  0.03620000  0.32930000  1.0 0.3035952525
H  H74  1  0.96380000  0.00840000  0.82930000  1.0 0.3035952525
H  H75  1  0.98550000  0.99350000  0.40210000  1.0 0.308951322
H  H76  1  0.00650000  0.01450000  0.90210000  1.0 0.308951322
H  H77  1  0.65660000  0.30280000  0.58700000  1.0 0.129195359
H  H78  1  0.69720000  0.34340000  0.08700000  1.0 0.129195359
H  H79  1  0.54930000  0.43870000  0.52270000  1.0 0.129195359
H  H80  1  0.56130000  0.45070000  0.02270000  1.0 0.129195359
H  H81  1  0.58080000  0.47060000  0.41290000  1.0 0.129195359
H  H82  1  0.52940000  0.41920000  0.91290000  1.0 0.129195359
H  H83  1  0.40030000  0.35430000  0.61910000  1.0 0.129195359
H  H84  1  0.64570000  0.59970000  0.11910000  1.0 0.129195359
H  H85  1  0.30230000  0.15150000  0.77090000  1.0 0.120371656
H  H86  1  0.84850000  0.69770000  0.27090000  1.0 0.120371656
H  H87  1  0.18730000  0.17350000  0.71120000  1.0 0.129195359
H  H88  1  0.82650000  0.81270000  0.21120000  1.0 0.129195359
H  H89  1  0.33050000  0.42350000  0.56110000  1.0 0.129195359
H  H90  1  0.57650000  0.66950000  0.06110000  1.0 0.129195359
H  H91  1  0.25490000  0.48070000  0.48790000  1.0 0.120371656
H  H92  1  0.51930000  0.74510000  0.98790000  1.0 0.120371656
H  H93  1  0.03500000  0.27380000  0.55170000  1.0 0.120371656
H  H94  1  0.72620000  0.96500000  0.05170000  1.0 0.120371656
H  H95  1  0.11060000  0.21660000  0.62490000  1.0 0.129195359
H  H96  1  0.78340000  0.88940000  0.12490000  1.0 0.129195359
H  H97  1  0.17540000  0.52880000  0.48250000  1.0 0.1119597968
H  H98  1  0.47120000  0.82460000  0.98250000  1.0 0.1119597968
H  H99  1  0.11580000  0.59940000  0.40360000  1.0 0.1119597968
H  H100  1  0.40060000  0.88420000  0.90360000  1.0 0.1119597968
H  H101  1  0.89840000  0.36900000  0.37450000  1.0 0.129195359
H  H102  1  0.63100000  0.10160000  0.87450000  1.0 0.129195359
H  H103  1  0.96230000  0.29890000  0.44530000  1.0 0.120371656
H  H104  1  0.70110000  0.03770000  0.94530000  1.0 0.120371656
H  H105  1  0.83300000  0.43760000  0.33130000  1.0 0.120371656
H  H106  1  0.56240000  0.16700000  0.83130000  1.0 0.120371656
H  H107  1  0.05550000  0.66590000  0.30190000  1.0 0.129195359
H  H108  1  0.33410000  0.94450000  0.80190000  1.0 0.129195359
H  H109  1  0.93750000  0.68310000  0.23720000  1.0 0.120371656
H  H110  1  0.31690000  0.06250000  0.73720000  1.0 0.120371656
H  H111  1  0.71400000  0.32240000  0.44440000  1.0 0.308951322
H  H112  1  0.67760000  0.28600000  0.94440000  1.0 0.308951322
H  H113  1  0.71040000  0.28260000  0.52060000  1.0 0.2925559558
H  H114  1  0.71740000  0.28960000  0.02060000  1.0 0.2925559558
H  H115  1  0.17490000  0.89590000  0.75390000  1.0 0.129195359
H  H116  1  0.10410000  0.82510000  0.25390000  1.0 0.129195359
H  H117  1  0.02660000  0.99060000  0.68850000  1.0 0.129195359
H  H118  1  0.00940000  0.97340000  0.18850000  1.0 0.129195359
H  H119  1  0.00120000  0.96140000  0.57860000  1.0 0.120371656
H  H120  1  0.03860000  0.99880000  0.07860000  1.0 0.120371656
H  H121  1  0.09710000  0.12750000  0.82900000  1.0 0.1119597968
H  H122  1  0.87250000  0.90290000  0.32900000  1.0 0.1119597968
H  H123  1  0.34570000  0.22690000  0.92170000  1.0 0.120371656
H  H124  1  0.77310000  0.65430000  0.42170000  1.0 0.120371656
H  H125  1  0.32530000  0.34850000  0.86540000  1.0 0.129195359
H  H126  1  0.65150000  0.67470000  0.36540000  1.0 0.129195359
H  H127  1  0.25302000  0.41362000  0.81680000  1.0 0.129195359
H  H128  1  0.58638000  0.74698000  0.31680000  1.0 0.129195359
H  H129  1  0.18460000  0.47900000  0.77610000  1.0 0.1119597968
H  H130  1  0.52100000  0.81540000  0.27610000  1.0 0.1119597968
H  H131  1  0.97030000  0.26570000  0.70990000  1.0 0.129195359
H  H132  1  0.73430000  0.02970000  0.20990000  1.0 0.129195359
H  H133  1  0.03750000  0.19550000  0.75890000  1.0 0.129195359
H  H134  1  0.80450000  0.96250000  0.25890000  1.0 0.129195359
H  H135  1  0.16750000  0.55310000  0.69190000  1.0 0.120371656
H  H136  1  0.44690000  0.83250000  0.19190000  1.0 0.120371656
H  H137  1  0.12900000  0.63720000  0.60740000  1.0 0.120371656
H  H138  1  0.36280000  0.87100000  0.10740000  1.0 0.120371656
H  H139  1  0.88460000  0.43720000  0.58600000  1.0 0.120371656
H  H140  1  0.56280000  0.11540000  0.08600000  1.0 0.120371656
H  H141  1  0.92080000  0.35140000  0.67110000  1.0 0.1119597968
H  H142  1  0.64860000  0.07920000  0.17110000  1.0 0.1119597968
H  H143  1  0.07310000  0.70950000  0.53430000  1.0 0.120371656
H  H144  1  0.29050000  0.92690000  0.03430000  1.0 0.120371656
H  H145  1  0.84770000  0.49390000  0.48200000  1.0 0.129195359
H  H146  1  0.50610000  0.15230000  0.98200000  1.0 0.129195359
H  H147  1  0.85320000  0.61900000  0.39720000  1.0 0.120371656
H  H148  1  0.38100000  0.14680000  0.89720000  1.0 0.120371656
H  H149  1  0.18610000  0.83210000  0.68290000  1.0 0.3035952525
H  H150  1  0.16790000  0.81390000  0.18290000  1.0 0.3035952525
H  H151  1  0.15150000  0.83430000  0.60820000  1.0 0.2925559558
H  H152  1  0.16570000  0.84850000  0.10820000  1.0 0.2925559558
H  H153  1  0.48580000  0.48360000  0.80960000  1.0 0.129195359
H  H154  1  0.51640000  0.51420000  0.30960000  1.0 0.129195359
H  H155  1  0.38620000  0.63040000  0.74940000  1.0 0.129195359
H  H156  1  0.36960000  0.61380000  0.24940000  1.0 0.129195359
H  H157  1  0.41100000  0.65300000  0.63960000  1.0 0.129195359
H  H158  1  0.34700000  0.58900000  0.13960000  1.0 0.129195359
H  H159  1  0.22380000  0.53580000  0.88280000  1.0 0.1119597968
H  H160  1  0.46420000  0.77620000  0.38280000  1.0 0.1119597968
H  H161  1  0.16060000  0.29280000  0.90230000  1.0 0.1119597968
H  H162  1  0.70720000  0.83940000  0.40230000  1.0 0.1119597968
H  H163  1  0.02800000  0.28860000  0.85430000  1.0 0.120371656
H  H164  1  0.71140000  0.97200000  0.35430000  1.0 0.120371656
H  H165  1  0.93770000  0.33610000  0.81340000  1.0 0.129195359
H  H166  1  0.66390000  0.06230000  0.31340000  1.0 0.129195359
H  H167  1  0.85710000  0.39070000  0.74660000  1.0 0.120371656
H  H168  1  0.60930000  0.14290000  0.24660000  1.0 0.120371656
H  H169  1  0.06820000  0.63140000  0.75300000  1.0 0.1119597968
H  H170  1  0.36860000  0.93180000  0.25300000  1.0 0.1119597968
H  H171  1  0.14900000  0.57640000  0.81790000  1.0 0.120371656
H  H172  1  0.42360000  0.85100000  0.31790000  1.0 0.120371656
H  H173  1  0.77890000  0.45290000  0.72220000  1.0 0.129195359
H  H174  1  0.54710000  0.22110000  0.22220000  1.0 0.129195359
H  H175  1  0.71090000  0.51870000  0.64790000  1.0 0.120371656
H  H176  1  0.48130000  0.28910000  0.14790000  1.0 0.120371656
H  H177  1  0.94090000  0.73370000  0.61020000  1.0 0.129195359
H  H178  1  0.26630000  0.05910000  0.11020000  1.0 0.129195359
H  H179  1  0.00280000  0.66080000  0.66760000  1.0 0.1119597968
H  H180  1  0.33920000  0.99720000  0.16760000  1.0 0.1119597968
H  H181  1  0.65190000  0.56570000  0.54920000  1.0 0.120371656
H  H182  1  0.43430000  0.34810000  0.04920000  1.0 0.120371656
H  H183  1  0.86260000  0.79980000  0.57210000  1.0 0.1358594335
H  H184  1  0.20020000  0.13740000  0.07210000  1.0 0.1358594335
H  H185  1  0.75040000  0.81960000  0.50890000  1.0 0.129195359
H  H186  1  0.18040000  0.24960000  0.00890000  1.0 0.129195359
H  H187  1  0.53640000  0.46600000  0.73540000  1.0 0.3035952525
H  H188  1  0.53400000  0.46360000  0.23540000  1.0 0.3035952525
H  H189  1  0.53300000  0.50060000  0.66070000  1.0 0.308951322
H  H190  1  0.49940000  0.46700000  0.16070000  1.0 0.308951322
C  C1  1  0.26943000  0.75477000  0.87970000  1.0 -0.1292655397
C  C2  1  0.24523000  0.73057000  0.37970000  1.0 -0.1292655397
C  C3  1  0.29581000  0.70519000  0.93100000  1.0 0.2538877032
C  C4  1  0.29481000  0.70419000  0.43100000  1.0 0.2538877032
C  C5  1  0.28382000  0.69418000  0.99730000  1.0 -0.2513439082
C  C6  1  0.30582000  0.71618000  0.49730000  1.0 -0.2513439082
C  C7  1  0.24896000  0.73144000  0.01240000  1.0 -0.0104801915
C  C8  1  0.26856000  0.75104000  0.51240000  1.0 -0.0104801915
C  C9  1  0.22464000  0.77956000  0.96260000  1.0 -0.1535998978
C  C10  1  0.22044000  0.77536000  0.46260000  1.0 -0.1535998978
C  C11  1  0.23360000  0.79040000  0.89500000  1.0 -0.103095945
C  C12  1  0.20960000  0.76640000  0.39500000  1.0 -0.103095945
C  C13  1  0.28550000  0.76930000  0.80780000  1.0 0.5330260075
C  C14  1  0.23070000  0.71450000  0.30780000  1.0 0.5330260075
C  C15  1  0.23415000  0.71645000  0.08350000  1.0 0.5198168285
C  C16  1  0.28355000  0.76585000  0.58350000  1.0 0.5198168285
C  C17  1  0.01928000  0.67632000  0.09502000  1.0 0.0377712199
C  C18  1  0.32368000  0.98072000  0.59502000  1.0 0.0377712199
C  C19  1  0.95967000  0.54973000  0.16790000  1.0 -0.0195035574
C  C20  1  0.45027000  0.04033000  0.66790000  1.0 -0.0195035574
C  C21  1  0.89126000  0.55614000  0.12210000  1.0 -0.0801021405
C  C22  1  0.44386000  0.10874000  0.62210000  1.0 -0.0801021405
C  C23  1  0.88401000  0.67099000  0.03540000  1.0 0.1670653335
C  C24  1  0.32901000  0.11599000  0.53540000  1.0 0.1670653335
C  C25  1  0.80185000  0.61415000  0.99980000  1.0 -0.1624281759
C  C26  1  0.38585000  0.19815000  0.49980000  1.0 -0.1624281759
C  C27  1  0.75970000  0.64830000  0.95750000  1.0 -0.1122697838
C  C28  1  0.35170000  0.24030000  0.45750000  1.0 -0.1122697838
C  C29  1  0.79245000  0.73755000  0.94660000  1.0 0.0688124475
C  C30  1  0.26245000  0.20755000  0.44660000  1.0 0.0688124475
C  C31  1  0.87363000  0.79311000  0.98110000  1.0 -0.1198434437
C  C32  1  0.20689000  0.12637000  0.48110000  1.0 -0.1198434437
C  C33  1  0.91880000  0.75820000  0.02360000  1.0 -0.1792041257
C  C34  1  0.24180000  0.08120000  0.52360000  1.0 -0.1792041257
C  C35  1  0.74103000  0.77137000  0.89957000  1.0 0.058872778
C  C36  1  0.22863000  0.25897000  0.39957000  1.0 0.058872778
C  C37  1  0.65492000  0.71428000  0.87490000  1.0 -0.1198434437
C  C38  1  0.28572000  0.34508000  0.37490000  1.0 -0.1198434437
C  C39  1  0.60545000  0.74555000  0.83330000  1.0 -0.1993005298
C  C40  1  0.25445000  0.39455000  0.33333333  1.0 -0.1993005298
C  C41  1  0.64234000  0.83366000  0.81570000  1.0 0.1670653335
C  C42  1  0.16634000  0.35766000  0.31570000  1.0 0.1670653335
C  C43  1  0.72774000  0.89006000  0.84000000  1.0 -0.1624281759
C  C44  1  0.10994000  0.27226000  0.34000000  1.0 -0.1624281759
C  C45  1  0.77706000  0.85954000  0.88170000  1.0 -0.1198434437
C  C46  1  0.14046000  0.22294000  0.38170000  1.0 -0.1198434437
C  C47  1  0.50286000  0.81874000  0.76400000  1.0 0.009389151
C  C48  1  0.18126000  0.49714000  0.26400000  1.0 0.009389151
C  C49  1  0.62699000  0.94701000  0.73500000  1.0 -0.0912448085
C  C50  1  0.05299000  0.37301000  0.23500000  1.0 -0.0912448085
C  C51  1  0.55507000  0.95113000  0.69400000  1.0 -0.0104801915
C  C52  1  0.04887000  0.44493000  0.19400000  1.0 -0.0104801915
C  C53  1  0.91542000  0.11238000  0.32270000  1.0 -0.1792041257
C  C54  1  0.88762000  0.08458000  0.82270000  1.0 -0.1792041257
C  C55  1  0.93365000  0.06035000  0.37506000  1.0 0.2538877032
C  C56  1  0.93965000  0.06635000  0.87506000  1.0 0.2538877032
C  C57  1  0.91739000  0.04681000  0.44340000  1.0 -0.2205099859
C  C58  1  0.95319000  0.08261000  0.94340000  1.0 -0.2205099859
C  C59  1  0.87973000  0.08247000  0.45570000  1.0 -0.0013570008
C  C60  1  0.91753000  0.12027000  0.95570000  1.0 -0.0013570008
C  C61  1  0.85888000  0.13232000  0.40269000  1.0 -0.1624281759
C  C62  1  0.86768000  0.14112000  0.90269000  1.0 -0.1624281759
C  C63  1  0.87663000  0.14837000  0.33660000  1.0 -0.0912448085
C  C64  1  0.85163000  0.12337000  0.83660000  1.0 -0.0912448085
C  C65  1  0.93560000  0.12980000  0.25660000  1.0 0.503473518
C  C66  1  0.87020000  0.06440000  0.75660000  1.0 0.503473518
C  C67  1  0.86399000  0.06761000  0.52683000  1.0 0.5330260075
C  C68  1  0.93239000  0.13601000  0.02683000  1.0 0.5330260075
C  C69  1  0.66008000  0.03072000  0.56730000  1.0 0.058872778
C  C70  1  0.96928000  0.33992000  0.06730000  1.0 0.058872778
C  C71  1  0.61881000  0.89499000  0.56230000  1.0 -0.0013570008
C  C72  1  0.10501000  0.38119000  0.06230000  1.0 -0.0013570008
C  C73  1  0.55310000  0.90810000  0.52350000  1.0 -0.0912448085
C  C74  1  0.09190000  0.44690000  0.02350000  1.0 -0.0912448085
C  C75  1  0.53024000  0.02796000  0.48380000  1.0 0.1621944658
C  C76  1  0.97204000  0.46976000  0.98380000  1.0 0.1621944658
C  C77  1  0.44349000  0.97391000  0.45860000  1.0 -0.1792041257
C  C78  1  0.02609000  0.55651000  0.95860000  1.0 -0.1792041257
C  C79  1  0.39608000  0.00832000  0.42320000  1.0 -0.1198434437
C  C80  1  0.99168000  0.60392000  0.92320000  1.0 -0.1198434437
C  C81  1  0.43345000  0.09675000  0.41230000  1.0 0.058872778
C  C82  1  0.90325000  0.56655000  0.91230000  1.0 0.058872778
C  C83  1  0.51993000  0.15067000  0.43770000  1.0 -0.1292655397
C  C84  1  0.84933000  0.48007000  0.93770000  1.0 -0.1292655397
C  C85  1  0.56794000  0.11606000  0.47320000  1.0 -0.191165827
C  C86  1  0.88394000  0.43206000  0.97320000  1.0 -0.191165827
C  C87  1  0.38041000  0.13259000  0.37270000  1.0 0.0688124475
C  C88  1  0.86741000  0.61959000  0.87270000  1.0 0.0688124475
C  C89  1  0.28948000  0.08352000  0.36440000  1.0 -0.1198434437
C  C90  1  0.91648000  0.71052000  0.86440000  1.0 -0.1198434437
C  C91  1  0.24587000  0.12173000  0.32580000  1.0 -0.1624281759
C  C92  1  0.87827000  0.75413000  0.82580000  1.0 -0.1624281759
C  C93  1  0.28892000  0.20588000  0.29690000  1.0 0.1504790065
C  C94  1  0.79412000  0.71108000  0.79690000  1.0 0.1504790065
C  C95  1  0.37797000  0.25443000  0.30270000  1.0 -0.1688945316
C  C96  1  0.74557000  0.62203000  0.80270000  1.0 -0.1688945316
C  C97  1  0.42276000  0.21764000  0.33990000  1.0 -0.1198434437
C  C98  1  0.78236000  0.57724000  0.83990000  1.0 -0.1198434437
C  C99  1  0.16111000  0.20329000  0.23220000  1.0 0.0260365285
C  C100  1  0.79671000  0.83889000  0.73220000  1.0 0.0260365285
C  C101  1  0.28162000  0.33918000  0.24308000  1.0 -0.0801021405
C  C102  1  0.66082000  0.71838000  0.74308000  1.0 -0.0801021405
C  C103  1  0.21254000  0.34586000  0.20150000  1.0 -0.0195035574
C  C104  1  0.65414000  0.78746000  0.70150000  1.0 -0.0195035574
C  C105  1  0.63553000  0.40127000  0.43400000  1.0 -0.1386033319
C  C106  1  0.59873000  0.36447000  0.93400000  1.0 -0.1386033319
C  C107  1  0.65699000  0.35181000  0.48483000  1.0 0.2604366916
C  C108  1  0.64819000  0.34301000  0.98483000  1.0 0.2604366916
C  C109  1  0.64210000  0.33690000  0.55240000  1.0 -0.2852671765
C  C110  1  0.66310000  0.35790000  0.05240000  1.0 -0.2852671765
C  C111  1  0.60599000  0.37301000  0.56650000  1.0 0.009389151
C  C112  1  0.62699000  0.39401000  0.06650000  1.0 0.009389151
C  C113  1  0.57891000  0.41929000  0.51350000  1.0 -0.1688945316
C  C114  1  0.58071000  0.42109000  0.01350000  1.0 -0.1688945316
C  C115  1  0.59559000  0.43661000  0.44750000  1.0 -0.103095945
C  C116  1  0.56339000  0.40441000  0.94750000  1.0 -0.103095945
C  C117  1  0.65996000  0.42604000  0.36310000  1.0 0.5423013247
C  C118  1  0.57396000  0.34004000  0.86310000  1.0 0.5423013247
C  C119  1  0.58330000  0.35390000  0.63640000  1.0 0.5198168285
C  C120  1  0.64610000  0.41670000  0.13640000  1.0 0.5198168285
C  C121  1  0.36363000  0.30857000  0.64880000  1.0 0.0884400211
C  C122  1  0.69143000  0.63637000  0.14880000  1.0 0.0884400211
C  C123  1  0.30737000  0.19443000  0.73420000  1.0 -0.0275505576
C  C124  1  0.80557000  0.69263000  0.23420000  1.0 -0.0275505576
C  C125  1  0.24290000  0.20570000  0.70070000  1.0 -0.0801021405
C  C126  1  0.79430000  0.75710000  0.20070000  1.0 -0.0801021405
C  C127  1  0.22806000  0.31434000  0.60030000  1.0 0.1670653335
C  C128  1  0.68566000  0.77194000  0.10030000  1.0 0.1670653335
C  C129  1  0.27131000  0.39349000  0.55920000  1.0 -0.1792041257
C  C130  1  0.60651000  0.72869000  0.05920000  1.0 -0.1792041257
C  C131  1  0.22603000  0.42777000  0.51530000  1.0 -0.1292655397
C  C132  1  0.57223000  0.77397000  0.01530000  1.0 -0.1292655397
C  C133  1  0.13749000  0.38291000  0.51250000  1.0 0.0688124475
C  C134  1  0.61709000  0.86251000  0.01250000  1.0 0.0688124475
C  C135  1  0.09423000  0.30377000  0.55360000  1.0 -0.1198434437
C  C136  1  0.69623000  0.90577000  0.05360000  1.0 -0.1198434437
C  C137  1  0.13952000  0.26948000  0.59740000  1.0 -0.1792041257
C  C138  1  0.73052000  0.86048000  0.09740000  1.0 -0.1792041257
C  C139  1  0.07954000  0.41006000  0.46970000  1.0 0.0688124475
C  C140  1  0.58994000  0.92046000  0.96970000  1.0 0.0688124475
C  C141  1  0.12053000  0.49647000  0.45860000  1.0 -0.1198434437
C  C142  1  0.50353000  0.87947000  0.95860000  1.0 -0.1198434437
C  C143  1  0.08483000  0.53977000  0.41310000  1.0 -0.1792041257
C  C144  1  0.46023000  0.91517000  0.91310000  1.0 -0.1792041257
C  C145  1  0.99941000  0.48819000  0.38260000  1.0 0.1670653335
C  C146  1  0.51181000  0.00059000  0.88260000  1.0 0.1670653335
C  C147  1  0.95522000  0.40098000  0.39520000  1.0 -0.191165827
C  C148  1  0.59902000  0.04478000  0.89520000  1.0 -0.191165827
C  C149  1  0.99254000  0.35866000  0.43770000  1.0 -0.1198434437
C  C150  1  0.64134000  0.00746000  0.93770000  1.0 -0.1198434437
C  C151  1  0.87287000  0.49513000  0.31650000  1.0 -0.0013570008
C  C152  1  0.50487000  0.12713000  0.81650000  1.0 0.0035586905
C  C153  1  0.99726000  0.62294000  0.30040000  1.0 -0.0912448085
C  C154  1  0.37706000  0.00274000  0.80040000  1.0 -0.0912448085
C  C155  1  0.93091000  0.63249000  0.26328000  1.0 -0.0104801915
C  C156  1  0.36751000  0.06909000  0.76328000  1.0 -0.0104801915
C  C157  1  0.07157000  0.90963000  0.60020000  1.0 -0.1792041257
C  C158  1  0.09037000  0.92843000  0.10020000  1.0 -0.1792041257
C  C159  1  0.12583000  0.89137000  0.65410000  1.0 0.2604366916
C  C160  1  0.10863000  0.87417000  0.15410000  1.0 0.2604366916
C  C161  1  0.14011000  0.90909000  0.71880000  1.0 -0.2205099859
C  C162  1  0.09091000  0.85989000  0.21880000  1.0 -0.2205099859
C  C163  1  0.10383000  0.94617000  0.73303000  1.0 -0.0104801915
C  C164  1  0.05383000  0.89617000  0.23303000  1.0 -0.0104801915
C  C165  1  0.05126000  0.96554000  0.67974000  1.0 -0.1624281759
C  C166  1  0.03446000  0.94874000  0.17974000  1.0 -0.1624281759
C  C167  1  0.03561000  0.94779000  0.61361000  1.0 -0.0912448085
C  C168  1  0.05221000  0.96439000  0.11361000  1.0 -0.0912448085
C  C169  1  0.04777000  0.88523000  0.53350000  1.0 0.5117892303
C  C170  1  0.11477000  0.95223000  0.03350000  1.0 0.5117892303
C  C171  1  0.11774000  0.96366000  0.80310000  1.0 0.5117892303
C  C172  1  0.03634000  0.88226000  0.30310000  1.0 0.5117892303
C  C173  1  0.15500000  0.16600000  0.84380000  1.0 -0.0195035574
C  C174  1  0.83400000  0.84500000  0.34380000  1.0 -0.0195035574
C  C175  1  0.29532000  0.22148000  0.89630000  1.0 -0.0195035574
C  C176  1  0.77852000  0.70468000  0.39630000  1.0 -0.0195035574
C  C177  1  0.28308000  0.29032000  0.86478000  1.0 -0.0680731446
C  C178  1  0.70968000  0.71692000  0.36478000  1.0 -0.0680731446
C  C179  1  0.15466000  0.29674000  0.79250000  1.0 0.1504790065
C  C180  1  0.70326000  0.84534000  0.29250000  1.0 0.1504790065
C  C181  1  0.19620000  0.38320000  0.79570000  1.0 -0.1624281759
C  C182  1  0.61680000  0.80380000  0.29570000  1.0 -0.1624281759
C  C183  1  0.15592000  0.42228000  0.76910000  1.0 -0.1198434437
C  C184  1  0.57772000  0.84408000  0.26910000  1.0 -0.1198434437
C  C185  1  0.07208000  0.38552000  0.73040000  1.0 0.0377712199
C  C186  1  0.61448000  0.92792000  0.23040000  1.0 0.0377712199
C  C187  1  0.02741000  0.29599000  0.73030000  1.0 -0.1198434437
C  C188  1  0.70401000  0.97259000  0.23030000  1.0 -0.1198434437
C  C189  1  0.06787000  0.25413000  0.76000000  1.0 -0.1792041257
C  C190  1  0.74587000  0.93213000  0.26000000  1.0 -0.1792041257
C  C191  1  0.04746000  0.44314000  0.68900000  1.0 0.0506248414
C  C192  1  0.55686000  0.95254000  0.18900000  1.0 0.0506248414
C  C193  1  0.11073000  0.52967000  0.67050000  1.0 -0.103095945
C  C194  1  0.47033000  0.88927000  0.17050000  1.0 -0.103095945
C  C195  1  0.08745000  0.57955000  0.61990000  1.0 -0.1792041257
C  C196  1  0.42045000  0.91255000  0.11990000  1.0 -0.1792041257
C  C197  1  0.00357000  0.54543000  0.58760000  1.0 0.1621944658
C  C198  1  0.45457000  0.99643000  0.08760000  1.0 0.1621944658
C  C199  1  0.94129000  0.46011000  0.60710000  1.0 -0.191165827
C  C200  1  0.53989000  0.05871000  0.10710000  1.0 -0.191165827
C  C201  1  0.96279000  0.40861000  0.65800000  1.0 -0.1122697838
C  C202  1  0.59139000  0.03721000  0.15800000  1.0 -0.1122697838
C  C203  1  0.01932000  0.67268000  0.51110000  1.0 0.0506248414
C  C204  1  0.32732000  0.98068000  0.01110000  1.0 0.0506248414
C  C205  1  0.89306000  0.55114000  0.48177000  1.0 -0.0801021405
C  C206  1  0.44886000  0.10694000  0.98177000  1.0 -0.0801021405
C  C207  1  0.89498000  0.62162000  0.43430000  1.0 -0.0378203387
C  C208  1  0.37838000  0.10502000  0.93430000  1.0 -0.0378203387
C  C209  1  0.46050000  0.58330000  0.65768000  1.0 -0.1198434437
C  C210  1  0.41670000  0.53950000  0.15768000  1.0 -0.1198434437
C  C211  1  0.48315000  0.53105000  0.70880000  1.0 0.2604366916
C  C212  1  0.46895000  0.51685000  0.20880000  1.0 0.2604366916
C  C213  1  0.46972000  0.51688000  0.77540000  1.0 -0.2759530865
C  C214  1  0.48312000  0.53028000  0.27540000  1.0 -0.2759530865
C  C215  1  0.43187000  0.55233000  0.79210000  1.0 -0.0195035574
C  C216  1  0.44767000  0.56813000  0.29210000  1.0 -0.0195035574
C  C217  1  0.41007000  0.60533000  0.73960000  1.0 -0.1624281759
C  C218  1  0.39467000  0.58993000  0.23960000  1.0 -0.1624281759
C  C219  1  0.42530000  0.61850000  0.67410000  1.0 -0.0912448085
C  C220  1  0.38150000  0.57470000  0.17410000  1.0 -0.0912448085
C  C221  1  0.48528000  0.60892000  0.58700000  1.0 0.5511496939
C  C222  1  0.39108000  0.51472000  0.08700000  1.0 0.5511496939
C  C223  1  0.40834000  0.52806000  0.86162000  1.0 0.5117892303
C  C224  1  0.47194000  0.59166000  0.36162000  1.0 0.5117892303
C  C225  1  0.19305000  0.47695000  0.88250000  1.0 0.058872778
C  C226  1  0.52305000  0.80695000  0.38250000  1.0 0.058872778
C  C227  1  0.15612000  0.33988000  0.89330000  1.0 -0.0518974312
C  C228  1  0.66012000  0.84388000  0.39330000  1.0 -0.0518974312
C  C229  1  0.08203000  0.33677000  0.86560000  1.0 -0.0680731446
C  C230  1  0.66323000  0.91797000  0.36560000  1.0 -0.0680731446
C  C231  1  0.05104000  0.45056000  0.82300000  1.0 0.1670653335
C  C232  1  0.54944000  0.94896000  0.32300000  1.0 0.1670653335
C  C233  1  0.96374000  0.39526000  0.80120000  1.0 -0.1993005298
C  C234  1  0.60474000  0.03626000  0.30120000  1.0 -0.1993005298
C  C235  1  0.91535000  0.42785000  0.76140000  1.0 -0.1198434437
C  C236  1  0.57215000  0.08465000  0.26140000  1.0 -0.1198434437
C  C237  1  0.95436000  0.51644000  0.74380000  1.0 0.058872778
C  C238  1  0.48356000  0.04564000  0.24380000  1.0 0.058872778
C  C239  1  0.04215000  0.57225000  0.76500000  1.0 -0.103095945
C  C240  1  0.42775000  0.95785000  0.26500000  1.0 -0.103095945
C  C241  1  0.09045000  0.53935000  0.80420000  1.0 -0.1993005298
C  C242  1  0.46065000  0.90955000  0.30420000  1.0 -0.1993005298
C  C243  1  0.90095000  0.55025000  0.70510000  1.0 0.0688124475
C  C244  1  0.44975000  0.09905000  0.20510000  1.0 0.0688124475
C  C245  1  0.81119000  0.50761000  0.69790000  1.0 -0.1198434437
C  C246  1  0.49239000  0.18881000  0.19790000  1.0 -0.1198434437
C  C247  1  0.77050000  0.54730000  0.65410000  1.0 -0.1792041257
C  C248  1  0.45270000  0.22950000  0.15410000  1.0 -0.1792041257
C  C249  1  0.81991000  0.62989000  0.62000000  1.0 0.1504790065
C  C250  1  0.37011000  0.18009000  0.12000000  1.0 0.1504790065
C  C251  1  0.90806000  0.67614000  0.62900000  1.0 -0.1688945316
C  C252  1  0.32386000  0.09194000  0.12900000  1.0 -0.1688945316
C  C253  1  0.94410000  0.63330000  0.66666667  1.0 -0.1292655397
C  C254  1  0.36670000  0.05590000  0.16667000  1.0 -0.1292655397
C  C255  1  0.68984000  0.62516000  0.54580000  1.0 0.0688124475
C  C256  1  0.37484000  0.31016000  0.04580000  1.0 0.0688124475
C  C257  1  0.80636000  0.75564000  0.55930000  1.0 -0.103095945
C  C258  1  0.24436000  0.19364000  0.05930000  1.0 -0.103095945
C  C259  1  0.74490000  0.76690000  0.52310000  1.0 -0.0378203387
C  C260  1  0.23310000  0.25510000  0.02310000  1.0 -0.0378203387
N  N1  1  0.32773000  0.66307000  0.92210000  1.0 -0.5636485242
N  N2  1  0.33693000  0.67227000  0.42210000  1.0 -0.5636485242
N  N3  1  0.03782000  0.62478000  0.15041000  1.0 -0.3381305558
N  N4  1  0.37522000  0.96218000  0.65041000  1.0 -0.3381305558
N  N5  1  0.92973000  0.63587000  0.07953000  1.0 0.0035586905
N  N6  1  0.36413000  0.07027000  0.57953000  1.0 0.0035586905
N  N7  1  0.59268000  0.86452000  0.77530000  1.0 0.009389151
N  N8  1  0.13548000  0.40732000  0.27530000  1.0 0.009389151
N  N9  1  0.47847000  0.87213000  0.71460000  1.0 -0.3381305558
N  N10  1  0.12787000  0.52153000  0.21460000  1.0 -0.3381305558
N  N11  1  0.97547000  0.02567000  0.36793000  1.0 -0.5636485242
N  N12  1  0.97433000  0.02453000  0.86793000  1.0 -0.5636485242
N  N13  1  0.68511000  0.97149000  0.58875000  1.0 -0.3181470954
N  N14  1  0.02851000  0.31489000  0.08875000  1.0 -0.3181470954
N  N15  1  0.57977000  0.99323000  0.52663000  1.0 -0.0013570008
N  N16  1  0.00677000  0.42023000  0.02663000  1.0 -0.0013570008
N  N17  1  0.24738000  0.25042000  0.26046000  1.0 -0.0013570008
N  N18  1  0.74958000  0.75262000  0.76046000  1.0 -0.0013570008
N  N19  1  0.13958000  0.26378000  0.19513000  1.0 -0.3381305558
N  N20  1  0.73622000  0.86042000  0.69513000  1.0 -0.3381305558
N  N21  1  0.69813000  0.31467000  0.48438000  1.0 -0.5937708937
N  N22  1  0.68533000  0.30187000  0.98438000  1.0 -0.5937708937
N  N23  1  0.38633000  0.26007000  0.70421000  1.0 -0.3381305558
N  N24  1  0.73993000  0.61367000  0.20421000  1.0 -0.3381305558
N  N25  1  0.27610000  0.27640000  0.64576000  1.0 -0.0195035574
N  N26  1  0.72360000  0.72390000  0.14576000  1.0 -0.0195035574
N  N27  1  0.96348000  0.53892000  0.33508000  1.0 0.0035586905
N  N28  1  0.46108000  0.03652000  0.83508000  1.0 0.0035586905
N  N29  1  0.85302000  0.55378000  0.27155000  1.0 -0.3276566141
N  N30  1  0.44622000  0.14698000  0.77155000  1.0 -0.3276566141
N  N31  1  0.15865000  0.84701000  0.64757000  1.0 -0.5760124646
N  N32  1  0.15299000  0.84135000  0.14757000  1.0 -0.5760124646
N  N33  1  0.21639000  0.14401000  0.88135000  1.0 -0.3478837632
N  N34  1  0.85599000  0.78361000  0.38135000  1.0 -0.3478837632
N  N35  1  0.19918000  0.25662000  0.83360000  1.0 0.0151717491
N  N36  1  0.74338000  0.80082000  0.33360000  1.0 0.0151717491
N  N37  1  0.96905000  0.58095000  0.52755000  1.0 -0.0013570008
N  N38  1  0.41905000  0.03095000  0.02755000  1.0 -0.0013570008
N  N39  1  0.97498000  0.69782000  0.45539000  1.0 -0.3085507922
N  N40  1  0.30218000  0.02502000  0.95539000  1.0 -0.3085507922
N  N41  1  0.52234000  0.49466000  0.70060000  1.0 -0.5740354978
N  N42  1  0.50534000  0.47766000  0.20060000  1.0 -0.5740354978
N  N43  1  0.22684000  0.42516000  0.90690000  1.0 -0.3381305558
N  N44  1  0.57484000  0.77316000  0.40690000  1.0 -0.3381305558
N  N45  1  0.10457000  0.42403000  0.85750000  1.0 -0.0275505576
N  N46  1  0.57597000  0.89543000  0.35750000  1.0 -0.0275505576
N  N47  1  0.77470000  0.66690000  0.57590000  1.0 -0.0013570008
N  N48  1  0.33310000  0.22530000  0.07590000  1.0 -0.0013570008
N  N49  1  0.66821000  0.68499000  0.50920000  1.0 -0.3381305558
N  N50  1  0.31501000  0.33179000  0.00920000  1.0 -0.3381305558
O  O1  1  0.27303000  0.82013000  0.76486000  1.0 -0.4885118214
O  O2  1  0.17987000  0.72697000  0.26486000  1.0 -0.4885118214
O  O3  1  0.30636000  0.72752000  0.79036000  1.0 -0.5006005116
O  O4  1  0.27248000  0.69364000  0.29036000  1.0 -0.5006005116
O  O5  1  0.24311000  0.65893000  0.12419000  1.0 -0.4885118214
O  O6  1  0.34107000  0.75689000  0.62419000  1.0 -0.4885118214
O  O7  1  0.21280000  0.75160000  0.10751000  1.0 -0.4885118214
O  O8  1  0.24840000  0.78720000  0.60751000  1.0 -0.4885118214
O  O9  1  0.92666000  0.18502000  0.21065000  1.0 -0.5006005116
O  O10  1  0.81498000  0.07334000  0.71065000  1.0 -0.5006005116
O  O11  1  0.96368000  0.09626000  0.23835000  1.0 -0.4725539558
O  O12  1  0.90374000  0.03632000  0.73835000  1.0 -0.4725539558
O  O13  1  0.86722000  0.00712000  0.56647000  1.0 -0.5214464985
O  O14  1  0.99288000  0.13278000  0.06647000  1.0 -0.5214464985
O  O15  1  0.84817000  0.10851000  0.54928000  1.0 -0.5068753384
O  O16  1  0.89149000  0.15183000  0.04928000  1.0 -0.5068753384
O  O17  1  0.65580000  0.48488000  0.31942000  1.0 -0.5214464985
O  O18  1  0.51512000  0.34420000  0.81942000  1.0 -0.5214464985
O  O19  1  0.68056000  0.38430000  0.34906000  1.0 -0.4885118214
O  O20  1  0.61570000  0.31944000  0.84906000  1.0 -0.4885118214
O  O21  1  0.59065000  0.29663000  0.67642000  1.0 -0.4885118214
O  O22  1  0.70337000  0.40935000  0.17642000  1.0 -0.4885118214
O  O23  1  0.55609000  0.38489000  0.66039000  1.0 -0.5006005116
O  O24  1  0.61511000  0.44391000  0.16039000  1.0 -0.5006005116
O  O25  1  0.99461000  0.89547000  0.48913000  1.0 -0.4885118214
O  O26  1  0.10453000  0.00539000  0.98913000  1.0 -0.4885118214
O  O27  1  0.08119000  0.85633000  0.51711000  1.0 -0.4725539558
O  O28  1  0.14367000  0.91881000  0.01711000  1.0 -0.4725539558
O  O29  1  0.17680000  0.95946000  0.84252000  1.0 -0.478831812
O  O30  1  0.04054000  0.82320000  0.34252000  1.0 -0.478831812
O  O31  1  0.07534000  0.97648000  0.82602000  1.0 -0.4885118214
O  O32  1  0.02352000  0.92466000  0.32602000  1.0 -0.478831812
O  O33  1  0.48936000  0.67260000  0.54865000  1.0 -0.5406392538
O  O34  1  0.32740000  0.51064000  0.04865000  1.0 -0.5406392538
O  O35  1  0.49983000  0.56015000  0.57318000  1.0 -0.5214464985
O  O36  1  0.43985000  0.50017000  0.07318000  1.0 -0.5214464985
O  O37  1  0.41324000  0.47106000  0.90223000  1.0 -0.478831812
O  O38  1  0.52894000  0.58676000  0.40223000  1.0 -0.478831812
O  O39  1  0.38152000  0.56308000  0.88105000  1.0 -0.5006005116
O  O40  1  0.43692000  0.61848000  0.38105000  1.0 -0.5006005116
