# DDEC6 charges by PACMAN v1.1 (https://github.com/mtap-research/PACMAN-charge/)
data_ACOLIP_ASR_pacman
_symmetry_space_group_name_H-M   'P 1'
_cell_length_a   11.83930000
_cell_length_b   11.83930000
_cell_length_c   14.22700000
_cell_angle_alpha   67.50250000
_cell_angle_beta   112.49800000
_cell_angle_gamma   121.51600000
_symmetry_Int_Tables_number   1
_chemical_formula_structural   ZnH19C22N5O4
_chemical_formula_sum   'Zn2 H38 C44 N10 O8'
_cell_volume   1527.84446099
_cell_formula_units_Z   2
loop_
 _symmetry_equiv_pos_site_id
 _symmetry_equiv_pos_as_xyz
  1  'x, y, z'
loop_
 _atom_site_type_symbol
 _atom_site_label
 _atom_site_symmetry_multiplicity
 _atom_site_fract_x
 _atom_site_fract_y
 _atom_site_fract_z
 _atom_site_occupancy
 _atom_site_charge
Zn  Zn1  1  0.37112000  0.65486000  0.75624000  1.0 0.7555828804
Zn  Zn2  1  0.34514000  0.62888000  0.25624000  1.0 0.7555828804
H  H1  1  0.89100000  0.46920000  0.14610000  1.0 0.1205605249
H  H2  1  0.53080000  0.10900000  0.64610000  1.0 0.1205605249
H  H3  1  0.02560000  0.83920000  0.96830000  1.0 0.1205605249
H  H4  1  0.16080000  0.97440000  0.46830000  1.0 0.1205605249
H  H5  1  0.81710000  0.81030000  0.87010000  1.0 0.1205605249
H  H6  1  0.18970000  0.18290000  0.37010000  1.0 0.1205605249
H  H7  1  0.13530000  0.58150000  0.54770000  1.0 0.1293992029
H  H8  1  0.41850000  0.86470000  0.04770000  1.0 0.1293992029
H  H9  1  0.42380000  0.45000000  0.70830000  1.0 0.1205605249
H  H10  1  0.55000000  0.57620000  0.20830000  1.0 0.1205605249
H  H11  1  0.28490000  0.34330000  0.55350000  1.0 0.1293992029
H  H12  1  0.65670000  0.71510000  0.05350000  1.0 0.1293992029
H  H13  1  0.08970000  0.38650000  0.38150000  1.0 0.1364694649
H  H14  1  0.61350000  0.91030000  0.88150000  1.0 0.1364694649
H  H15  1  0.02050000  0.46310000  0.39080000  1.0 0.1293992029
H  H16  1  0.53690000  0.97950000  0.89080000  1.0 0.1293992029
H  H17  1  0.86270000  0.33410000  0.51930000  1.0 0.11132155
H  H18  1  0.66590000  0.13730000  0.01930000  1.0 0.11132155
H  H19  1  0.70140000  0.12120000  0.58380000  1.0 0.1205605249
H  H20  1  0.87880000  0.29860000  0.08380000  1.0 0.1205605249
H  H21  1  0.84930000  0.94410000  0.50120000  1.0 0.1205605249
H  H22  1  0.05590000  0.15070000  0.00120000  1.0 0.1205605249
H  H23  1  0.01060000  0.15700000  0.43670000  1.0 0.1205605249
H  H24  1  0.84300000  0.98940000  0.93670000  1.0 0.1205605249
H  H25  1  0.62710000  0.86410000  0.64660000  1.0 0.1293992029
H  H26  1  0.13590000  0.37290000  0.14660000  1.0 0.1293992029
H  H27  1  0.70110000  0.80450000  0.62040000  1.0 0.1293992029
H  H28  1  0.19550000  0.29890000  0.12040000  1.0 0.1293992029
H  H29  1  0.57080000  0.68500000  0.46220000  1.0 0.1205605249
H  H30  1  0.31500000  0.42920000  0.96220000  1.0 0.1205605249
H  H31  1  0.28180000  0.82520000  0.31780000  1.0 0.1293992029
H  H32  1  0.17480000  0.71820000  0.81780000  1.0 0.1293992029
H  H33  1  0.42620000  0.92880000  0.47360000  1.0 0.1205605249
H  H34  1  0.07120000  0.57380000  0.97360000  1.0 0.1205605249
H  H35  1  0.56970000  0.36030000  0.99600000  1.0 0.3077775949
H  H36  1  0.63970000  0.43030000  0.49600000  1.0 0.3077775949
H  H37  1  0.66390000  0.32130000  0.09230000  1.0 0.2899477595
H  H38  1  0.67870000  0.33610000  0.59230000  1.0 0.2899477595
C  C1  1  0.57930000  0.59590000  0.88200000  1.0 0.5486688429
C  C2  1  0.40410000  0.42070000  0.38200000  1.0 0.5486688429
C  C3  1  0.72040000  0.61040000  0.94600000  1.0 -0.1714006289
C  C4  1  0.38960000  0.27960000  0.44600000  1.0 -0.1714006289
C  C5  1  0.73660000  0.50380000  0.02790000  1.0 0.2899477595
C  C6  1  0.49620000  0.26340000  0.52790000  1.0 0.2899477595
C  C7  1  0.87470000  0.53570000  0.08910000  1.0 -0.275787521
C  C8  1  0.46430000  0.12530000  0.58910000  1.0 -0.275787521
C  C9  1  0.98320000  0.66020000  0.06700000  1.0 -0.0075489
C  C10  1  0.33980000  0.01680000  0.56700000  1.0 -0.0075489
C  C11  1  0.95290000  0.75510000  0.98420000  1.0 -0.1491661048
C  C12  1  0.24490000  0.04710000  0.48420000  1.0 -0.1491661048
C  C13  1  0.83010000  0.73970000  0.92400000  1.0 -0.1189990229
C  C14  1  0.26030000  0.16990000  0.42400000  1.0 -0.1189990229
C  C15  1  0.12670000  0.69510000  0.12980000  1.0 0.5419092291
C  C16  1  0.30490000  0.87330000  0.62980000  1.0 0.5419092291
C  C17  1  0.19120000  0.53960000  0.56630000  1.0 0.0698325747
C  C18  1  0.46040000  0.80880000  0.06630000  1.0 0.0698325747
C  C19  1  0.35240000  0.46520000  0.65710000  1.0 -0.0290325935
C  C20  1  0.53480000  0.64760000  0.15710000  1.0 -0.0290325935
C  C21  1  0.27410000  0.40530000  0.57020000  1.0 -0.1065352222
C  C22  1  0.59470000  0.72590000  0.07020000  1.0 -0.1065352222
C  C23  1  0.05910000  0.39890000  0.42960000  1.0 -0.1825147754
C  C24  1  0.60110000  0.94090000  0.92960000  1.0 -0.1825147754
C  C25  1  0.95260000  0.26660000  0.47160000  1.0 0.0902637971
C  C26  1  0.73340000  0.04740000  0.97160000  1.0 0.0902637971
C  C27  1  0.85990000  0.25590000  0.51560000  1.0 -0.1579719706
C  C28  1  0.74410000  0.14010000  0.01560000  1.0 -0.1579719706
C  C29  1  0.76330000  0.12830000  0.55430000  1.0 -0.1579719706
C  C30  1  0.87170000  0.23670000  0.05430000  1.0 -0.1579719706
C  C31  1  0.75930000  0.01150000  0.54890000  1.0 0.0902637971
C  C32  1  0.98850000  0.24070000  0.04890000  1.0 0.0902637971
C  C33  1  0.85200000  0.02220000  0.50480000  1.0 -0.1491661048
C  C34  1  0.97780000  0.14800000  0.00480000  1.0 -0.1491661048
C  C35  1  0.94860000  0.14980000  0.46620000  1.0 -0.1491661048
C  C36  1  0.85020000  0.05140000  0.96620000  1.0 -0.1447647101
C  C37  1  0.65960000  0.86640000  0.59250000  1.0 -0.1714006289
C  C38  1  0.13360000  0.34040000  0.09250000  1.0 -0.1714006289
C  C39  1  0.52190000  0.73450000  0.44340000  1.0 0.0595068262
C  C40  1  0.26550000  0.47810000  0.94340000  1.0 0.0595068262
C  C41  1  0.35750000  0.81310000  0.36390000  1.0 -0.0075489
C  C42  1  0.18690000  0.64250000  0.86390000  1.0 -0.0075489
C  C43  1  0.43960000  0.87360000  0.45110000  1.0 -0.0621070768
C  C44  1  0.12640000  0.56040000  0.95110000  1.0 -0.0621070768
N  N1  1  0.30160000  0.55180000  0.65120000  1.0 -0.3121029025
N  N2  1  0.44820000  0.69840000  0.15120000  1.0 -0.3121029025
N  N3  1  0.17780000  0.45580000  0.51400000  1.0 0.0595068262
N  N4  1  0.54420000  0.82220000  0.01400000  1.0 0.0595068262
N  N5  1  0.40950000  0.72990000  0.35790000  1.0 -0.34883349
N  N6  1  0.27010000  0.59050000  0.85790000  1.0 -0.34883349
N  N7  1  0.54710000  0.83250000  0.49740000  1.0 0.0303744936
N  N8  1  0.16750000  0.45290000  0.99740000  1.0 0.0303744936
N  N9  1  0.64740000  0.38240000  0.04000000  1.0 -0.4696438199
N  N10  1  0.61760000  0.35260000  0.54000000  1.0 -0.4696438199
O  O1  1  0.48600000  0.47460000  0.89610000  1.0 -0.5642034894
O  O2  1  0.52540000  0.51400000  0.39610000  1.0 -0.5642034894
O  O3  1  0.56420000  0.69800000  0.82200000  1.0 -0.5302544719
O  O4  1  0.30200000  0.43580000  0.32200000  1.0 -0.5302544719
O  O5  1  0.14130000  0.59330000  0.19070000  1.0 -0.5302544719
O  O6  1  0.40670000  0.85870000  0.69070000  1.0 -0.5302544719
O  O7  1  0.22960000  0.81200000  0.12060000  1.0 -0.5934038645
O  O8  1  0.18800000  0.77040000  0.62060000  1.0 -0.5934038645
