# DDEC6 charges by PACMAN v1.1 (https://github.com/mtap-research/PACMAN-charge/)
data_ACUFEK_ASR_pacman
_symmetry_space_group_name_H-M   'P 1'
_cell_length_a   32.97570000
_cell_length_b   32.97570000
_cell_length_c   32.97570000
_cell_angle_alpha   59.98460000
_cell_angle_beta   59.98460000
_cell_angle_gamma   59.98460000
_symmetry_Int_Tables_number   1
_chemical_formula_structural   CuH8C16(NO2)2
_chemical_formula_sum   'Cu24 H192 C384 N48 O96'
_cell_volume   25346.34806929
_cell_formula_units_Z   24
loop_
 _symmetry_equiv_pos_site_id
 _symmetry_equiv_pos_as_xyz
  1  'x, y, z'
loop_
 _atom_site_type_symbol
 _atom_site_label
 _atom_site_symmetry_multiplicity
 _atom_site_fract_x
 _atom_site_fract_y
 _atom_site_fract_z
 _atom_site_occupancy
 _atom_site_charge
Cu  Cu1  1  0.55694000  0.09639000  0.09639000  1.0 0.854118624
Cu  Cu2  1  0.09639000  0.55694000  0.09639000  1.0 0.8558241871
Cu  Cu3  1  0.09639000  0.09639000  0.55694000  1.0 0.854118624
Cu  Cu4  1  0.63698000  0.09673000  0.09673000  1.0 0.839146579
Cu  Cu5  1  0.09673000  0.63698000  0.09673000  1.0 0.839146579
Cu  Cu6  1  0.09673000  0.09673000  0.63698000  1.0 0.839146579
Cu  Cu7  1  0.55629000  0.63660000  0.09722000  1.0 0.839146579
Cu  Cu8  1  0.09722000  0.55629000  0.63660000  1.0 0.839146579
Cu  Cu9  1  0.63660000  0.09722000  0.55629000  1.0 0.839146579
Cu  Cu10  1  0.55629000  0.09722000  0.63660000  1.0 0.839146579
Cu  Cu11  1  0.09722000  0.63660000  0.55629000  1.0 0.839146579
Cu  Cu12  1  0.63660000  0.55629000  0.09722000  1.0 0.839146579
Cu  Cu13  1  0.44306000  0.90361000  0.90361000  1.0 0.854118624
Cu  Cu14  1  0.90361000  0.90361000  0.44306000  1.0 0.854118624
Cu  Cu15  1  0.90361000  0.44306000  0.90361000  1.0 0.854118624
Cu  Cu16  1  0.36302000  0.90327000  0.90327000  1.0 0.839146579
Cu  Cu17  1  0.90327000  0.90327000  0.36302000  1.0 0.839146579
Cu  Cu18  1  0.90327000  0.36302000  0.90327000  1.0 0.839146579
Cu  Cu19  1  0.44371000  0.90278000  0.36340000  1.0 0.839146579
Cu  Cu20  1  0.90278000  0.36340000  0.44371000  1.0 0.839146579
Cu  Cu21  1  0.36340000  0.44371000  0.90278000  1.0 0.839146579
Cu  Cu22  1  0.44371000  0.36340000  0.90278000  1.0 0.839146579
Cu  Cu23  1  0.90278000  0.44371000  0.36340000  1.0 0.839146579
Cu  Cu24  1  0.36340000  0.90278000  0.44371000  1.0 0.839146579
H  H1  1  0.71890000  0.94010000  0.12620000  1.0 0.1293608478
H  H2  1  0.12620000  0.71890000  0.94010000  1.0 0.1293608478
H  H3  1  0.94010000  0.12620000  0.71890000  1.0 0.1293608478
H  H4  1  0.71890000  0.12620000  0.94010000  1.0 0.1293608478
H  H5  1  0.12620000  0.94010000  0.71890000  1.0 0.1293608478
H  H6  1  0.94010000  0.71890000  0.12620000  1.0 0.1293608478
H  H7  1  0.75850000  0.85700000  0.13340000  1.0 0.1226356685
H  H8  1  0.13340000  0.75850000  0.85700000  1.0 0.1226356685
H  H9  1  0.85700000  0.13340000  0.75850000  1.0 0.1226356685
H  H10  1  0.75850000  0.13340000  0.85700000  1.0 0.1226356685
H  H11  1  0.13340000  0.85700000  0.75850000  1.0 0.1226356685
H  H12  1  0.85700000  0.75850000  0.13340000  1.0 0.1226356685
H  H13  1  0.64310000  0.85740000  0.12510000  1.0 0.1226356685
H  H14  1  0.12510000  0.64310000  0.85740000  1.0 0.1226356685
H  H15  1  0.85740000  0.12510000  0.64310000  1.0 0.1226356685
H  H16  1  0.64310000  0.12510000  0.85740000  1.0 0.1226356685
H  H17  1  0.12510000  0.85740000  0.64310000  1.0 0.1226356685
H  H18  1  0.85740000  0.64310000  0.12510000  1.0 0.1226356685
H  H19  1  0.60380000  0.93980000  0.11770000  1.0 0.1293608478
H  H20  1  0.11770000  0.60380000  0.93980000  1.0 0.1293608478
H  H21  1  0.93980000  0.11770000  0.60380000  1.0 0.1293608478
H  H22  1  0.60380000  0.11770000  0.93980000  1.0 0.1293608478
H  H23  1  0.11770000  0.93980000  0.60380000  1.0 0.1293608478
H  H24  1  0.93980000  0.60380000  0.11770000  1.0 0.1293608478
H  H25  1  0.76090000  0.63430000  0.13230000  1.0 0.1226356685
H  H26  1  0.13230000  0.76090000  0.63430000  1.0 0.1226356685
H  H27  1  0.63430000  0.13230000  0.76090000  1.0 0.1226356685
H  H28  1  0.76090000  0.13230000  0.63430000  1.0 0.1226356685
H  H29  1  0.13230000  0.63430000  0.76090000  1.0 0.1226356685
H  H30  1  0.63430000  0.76090000  0.13230000  1.0 0.1226356685
H  H31  1  0.72180000  0.60160000  0.12010000  1.0 0.1293608478
H  H32  1  0.12010000  0.72180000  0.60160000  1.0 0.1293608478
H  H33  1  0.60160000  0.12010000  0.72180000  1.0 0.1293608478
H  H34  1  0.72180000  0.12010000  0.60160000  1.0 0.1293608478
H  H35  1  0.12010000  0.60160000  0.72180000  1.0 0.1293608478
H  H36  1  0.60160000  0.72180000  0.12010000  1.0 0.1293608478
H  H37  1  0.60380000  0.72500000  0.94370000  1.0 0.1226356685
H  H38  1  0.94370000  0.60380000  0.72500000  1.0 0.1226356685
H  H39  1  0.72500000  0.94370000  0.60380000  1.0 0.1226356685
H  H40  1  0.60380000  0.94370000  0.72500000  1.0 0.1226356685
H  H41  1  0.94370000  0.72500000  0.60380000  1.0 0.1226356685
H  H42  1  0.72500000  0.60380000  0.94370000  1.0 0.1226356685
H  H43  1  0.64330000  0.76380000  0.86270000  1.0 0.1226356685
H  H44  1  0.86270000  0.64330000  0.76380000  1.0 0.1226356685
H  H45  1  0.76380000  0.86270000  0.64330000  1.0 0.1226356685
H  H46  1  0.64330000  0.86270000  0.76380000  1.0 0.1226356685
H  H47  1  0.86270000  0.76380000  0.64330000  1.0 0.1226356685
H  H48  1  0.76380000  0.64330000  0.86270000  1.0 0.1226356685
H  H49  1  0.58800000  0.24900000  0.07930000  1.0 0.1293608478
H  H50  1  0.07930000  0.58800000  0.24900000  1.0 0.1293608478
H  H51  1  0.24900000  0.07930000  0.58800000  1.0 0.1293608478
H  H52  1  0.58800000  0.07930000  0.24900000  1.0 0.1293608478
H  H53  1  0.07930000  0.24900000  0.58800000  1.0 0.1293608478
H  H54  1  0.24900000  0.58800000  0.07930000  1.0 0.1293608478
H  H55  1  0.55340000  0.33050000  0.07020000  1.0 0.1293608478
H  H56  1  0.07020000  0.55340000  0.33050000  1.0 0.1293608478
H  H57  1  0.33050000  0.07020000  0.55340000  1.0 0.1293608478
H  H58  1  0.55340000  0.07020000  0.33050000  1.0 0.1293608478
H  H59  1  0.07020000  0.33050000  0.55340000  1.0 0.1293608478
H  H60  1  0.33050000  0.55340000  0.07020000  1.0 0.1293608478
H  H61  1  0.43590000  0.33570000  0.06010000  1.0 0.1226356685
H  H62  1  0.06010000  0.43590000  0.33570000  1.0 0.1226356685
H  H63  1  0.33570000  0.06010000  0.43590000  1.0 0.1226356685
H  H64  1  0.43590000  0.06010000  0.33570000  1.0 0.1226356685
H  H65  1  0.06010000  0.33570000  0.43590000  1.0 0.1226356685
H  H66  1  0.33570000  0.43590000  0.06010000  1.0 0.1226356685
H  H67  1  0.47100000  0.25360000  0.07050000  1.0 0.1226356685
H  H68  1  0.07050000  0.47100000  0.25360000  1.0 0.1226356685
H  H69  1  0.25360000  0.07050000  0.47100000  1.0 0.1226356685
H  H70  1  0.47100000  0.07050000  0.25360000  1.0 0.1226356685
H  H71  1  0.07050000  0.25360000  0.47100000  1.0 0.1226356685
H  H72  1  0.25360000  0.47100000  0.07050000  1.0 0.1226356685
H  H73  1  0.43470000  0.54990000  0.06640000  1.0 0.1226356685
H  H74  1  0.06640000  0.43470000  0.54990000  1.0 0.1226356685
H  H75  1  0.54990000  0.06640000  0.43470000  1.0 0.1226356685
H  H76  1  0.43470000  0.06640000  0.54990000  1.0 0.1226356685
H  H77  1  0.06640000  0.54990000  0.43470000  1.0 0.1226356685
H  H78  1  0.54990000  0.43470000  0.06640000  1.0 0.1226356685
H  H79  1  0.47120000  0.59180000  0.07050000  1.0 0.1293608478
H  H80  1  0.07050000  0.47120000  0.59180000  1.0 0.1293608478
H  H81  1  0.59180000  0.07050000  0.47120000  1.0 0.1293608478
H  H82  1  0.47120000  0.07050000  0.59180000  1.0 0.1293608478
H  H83  1  0.07050000  0.59180000  0.47120000  1.0 0.1293608478
H  H84  1  0.59180000  0.47120000  0.07050000  1.0 0.1293608478
H  H85  1  0.46990000  0.59080000  0.25500000  1.0 0.1293608478
H  H86  1  0.25500000  0.46990000  0.59080000  1.0 0.1293608478
H  H87  1  0.59080000  0.25500000  0.46990000  1.0 0.1293608478
H  H88  1  0.46990000  0.25500000  0.59080000  1.0 0.1293608478
H  H89  1  0.25500000  0.59080000  0.46990000  1.0 0.1293608478
H  H90  1  0.59080000  0.46990000  0.25500000  1.0 0.1293608478
H  H91  1  0.43190000  0.55300000  0.33410000  1.0 0.1226356685
H  H92  1  0.33410000  0.43190000  0.55300000  1.0 0.1226356685
H  H93  1  0.55300000  0.33410000  0.43190000  1.0 0.1226356685
H  H94  1  0.43190000  0.33410000  0.55300000  1.0 0.1226356685
H  H95  1  0.33410000  0.55300000  0.43190000  1.0 0.1226356685
H  H96  1  0.55300000  0.43190000  0.33410000  1.0 0.1226356685
H  H97  1  0.28110000  0.87380000  0.05990000  1.0 0.1293608478
H  H98  1  0.87380000  0.05990000  0.28110000  1.0 0.1293608478
H  H99  1  0.05990000  0.28110000  0.87380000  1.0 0.1293608478
H  H100  1  0.28110000  0.05990000  0.87380000  1.0 0.1293608478
H  H101  1  0.87380000  0.28110000  0.05990000  1.0 0.1293608478
H  H102  1  0.05990000  0.87380000  0.28110000  1.0 0.1293608478
H  H103  1  0.24150000  0.86660000  0.14300000  1.0 0.1226356685
H  H104  1  0.86660000  0.14300000  0.24150000  1.0 0.1226356685
H  H105  1  0.14300000  0.24150000  0.86660000  1.0 0.1226356685
H  H106  1  0.24150000  0.14300000  0.86660000  1.0 0.1226356685
H  H107  1  0.86660000  0.24150000  0.14300000  1.0 0.1226356685
H  H108  1  0.14300000  0.86660000  0.24150000  1.0 0.1226356685
H  H109  1  0.35690000  0.87490000  0.14260000  1.0 0.1226356685
H  H110  1  0.87490000  0.14260000  0.35690000  1.0 0.1226356685
H  H111  1  0.14260000  0.35690000  0.87490000  1.0 0.1226356685
H  H112  1  0.35690000  0.14260000  0.87490000  1.0 0.1226356685
H  H113  1  0.87490000  0.35690000  0.14260000  1.0 0.1226356685
H  H114  1  0.14260000  0.87490000  0.35690000  1.0 0.1226356685
H  H115  1  0.39620000  0.88230000  0.06020000  1.0 0.1293608478
H  H116  1  0.88230000  0.06020000  0.39620000  1.0 0.1293608478
H  H117  1  0.06020000  0.39620000  0.88230000  1.0 0.1293608478
H  H118  1  0.39620000  0.06020000  0.88230000  1.0 0.1293608478
H  H119  1  0.88230000  0.39620000  0.06020000  1.0 0.1293608478
H  H120  1  0.06020000  0.88230000  0.39620000  1.0 0.1293608478
H  H121  1  0.23910000  0.86770000  0.36570000  1.0 0.1226356685
H  H122  1  0.86770000  0.36570000  0.23910000  1.0 0.1226356685
H  H123  1  0.36570000  0.23910000  0.86770000  1.0 0.1226356685
H  H124  1  0.23910000  0.36570000  0.86770000  1.0 0.1226356685
H  H125  1  0.86770000  0.23910000  0.36570000  1.0 0.1226356685
H  H126  1  0.36570000  0.86770000  0.23910000  1.0 0.1226356685
H  H127  1  0.27820000  0.87990000  0.39840000  1.0 0.1293608478
H  H128  1  0.87990000  0.39840000  0.27820000  1.0 0.1293608478
H  H129  1  0.39840000  0.27820000  0.87990000  1.0 0.1293608478
H  H130  1  0.27820000  0.39840000  0.87990000  1.0 0.1293608478
H  H131  1  0.87990000  0.27820000  0.39840000  1.0 0.1293608478
H  H132  1  0.39840000  0.87990000  0.27820000  1.0 0.1293608478
H  H133  1  0.39620000  0.05630000  0.27500000  1.0 0.1226356685
H  H134  1  0.05630000  0.27500000  0.39620000  1.0 0.1226356685
H  H135  1  0.27500000  0.39620000  0.05630000  1.0 0.1226356685
H  H136  1  0.39620000  0.27500000  0.05630000  1.0 0.1226356685
H  H137  1  0.05630000  0.39620000  0.27500000  1.0 0.1226356685
H  H138  1  0.27500000  0.05630000  0.39620000  1.0 0.1226356685
H  H139  1  0.35670000  0.13730000  0.23620000  1.0 0.1226356685
H  H140  1  0.13730000  0.23620000  0.35670000  1.0 0.1226356685
H  H141  1  0.23620000  0.35670000  0.13730000  1.0 0.1226356685
H  H142  1  0.35670000  0.23620000  0.13730000  1.0 0.1226356685
H  H143  1  0.13730000  0.35670000  0.23620000  1.0 0.1226356685
H  H144  1  0.23620000  0.13730000  0.35670000  1.0 0.1226356685
H  H145  1  0.41200000  0.92070000  0.75100000  1.0 0.1293608478
H  H146  1  0.92070000  0.75100000  0.41200000  1.0 0.1293608478
H  H147  1  0.75100000  0.41200000  0.92070000  1.0 0.1293608478
H  H148  1  0.41200000  0.75100000  0.92070000  1.0 0.1293608478
H  H149  1  0.92070000  0.41200000  0.75100000  1.0 0.1293608478
H  H150  1  0.75100000  0.92070000  0.41200000  1.0 0.1293608478
H  H151  1  0.44660000  0.92980000  0.66950000  1.0 0.1293608478
H  H152  1  0.92980000  0.66950000  0.44660000  1.0 0.1293608478
H  H153  1  0.66950000  0.44660000  0.92980000  1.0 0.1293608478
H  H154  1  0.44660000  0.66950000  0.92980000  1.0 0.1293608478
H  H155  1  0.92980000  0.44660000  0.66950000  1.0 0.1293608478
H  H156  1  0.66950000  0.92980000  0.44660000  1.0 0.1293608478
H  H157  1  0.56410000  0.93990000  0.66430000  1.0 0.1226356685
H  H158  1  0.93990000  0.66430000  0.56410000  1.0 0.1226356685
H  H159  1  0.66430000  0.56410000  0.93990000  1.0 0.1226356685
H  H160  1  0.56410000  0.66430000  0.93990000  1.0 0.1226356685
H  H161  1  0.93990000  0.56410000  0.66430000  1.0 0.1226356685
H  H162  1  0.66430000  0.93990000  0.56410000  1.0 0.1226356685
H  H163  1  0.52900000  0.92950000  0.74640000  1.0 0.1226356685
H  H164  1  0.92950000  0.74640000  0.52900000  1.0 0.1226356685
H  H165  1  0.74640000  0.52900000  0.92950000  1.0 0.1226356685
H  H166  1  0.52900000  0.74640000  0.92950000  1.0 0.1226356685
H  H167  1  0.92950000  0.52900000  0.74640000  1.0 0.1226356685
H  H168  1  0.74640000  0.92950000  0.52900000  1.0 0.1226356685
H  H169  1  0.56530000  0.93360000  0.45010000  1.0 0.1226356685
H  H170  1  0.93360000  0.45010000  0.56530000  1.0 0.1226356685
H  H171  1  0.45010000  0.56530000  0.93360000  1.0 0.1226356685
H  H172  1  0.56530000  0.45010000  0.93360000  1.0 0.1226356685
H  H173  1  0.93360000  0.56530000  0.45010000  1.0 0.1226356685
H  H174  1  0.45010000  0.93360000  0.56530000  1.0 0.1226356685
H  H175  1  0.52880000  0.92950000  0.40820000  1.0 0.1293608478
H  H176  1  0.92950000  0.40820000  0.52880000  1.0 0.1293608478
H  H177  1  0.40820000  0.52880000  0.92950000  1.0 0.1293608478
H  H178  1  0.52880000  0.40820000  0.92950000  1.0 0.1293608478
H  H179  1  0.92950000  0.52880000  0.40820000  1.0 0.1293608478
H  H180  1  0.40820000  0.92950000  0.52880000  1.0 0.1293608478
H  H181  1  0.53010000  0.74500000  0.40920000  1.0 0.1293608478
H  H182  1  0.74500000  0.40920000  0.53010000  1.0 0.1293608478
H  H183  1  0.40920000  0.53010000  0.74500000  1.0 0.1293608478
H  H184  1  0.53010000  0.40920000  0.74500000  1.0 0.1293608478
H  H185  1  0.74500000  0.53010000  0.40920000  1.0 0.1293608478
H  H186  1  0.40920000  0.74500000  0.53010000  1.0 0.1293608478
H  H187  1  0.56810000  0.66590000  0.44700000  1.0 0.1226356685
H  H188  1  0.66590000  0.44700000  0.56810000  1.0 0.1226356685
H  H189  1  0.44700000  0.56810000  0.66590000  1.0 0.1226356685
H  H190  1  0.56810000  0.44700000  0.66590000  1.0 0.1226356685
H  H191  1  0.66590000  0.56810000  0.44700000  1.0 0.1226356685
H  H192  1  0.44700000  0.66590000  0.56810000  1.0 0.1226356685
C  C1  1  0.63563000  0.00473000  0.11163000  1.0 0.5714335621
C  C2  1  0.11163000  0.63563000  0.00473000  1.0 0.5714335621
C  C3  1  0.00473000  0.11163000  0.63563000  1.0 0.5714335621
C  C4  1  0.63563000  0.11163000  0.00473000  1.0 0.5714335621
C  C5  1  0.11163000  0.00473000  0.63563000  1.0 0.5714335621
C  C6  1  0.00473000  0.63563000  0.11163000  1.0 0.5714335621
C  C7  1  0.65807000  0.95057000  0.11947000  1.0 -0.0489472753
C  C8  1  0.11947000  0.65807000  0.95057000  1.0 -0.0489472753
C  C9  1  0.95057000  0.11947000  0.65807000  1.0 -0.0489472753
C  C10  1  0.65807000  0.11947000  0.95057000  1.0 -0.0489472753
C  C11  1  0.11947000  0.95057000  0.65807000  1.0 -0.0489472753
C  C12  1  0.95057000  0.65807000  0.11947000  1.0 -0.0489472753
C  C13  1  0.70305000  0.92405000  0.12525000  1.0 -0.0880735358
C  C14  1  0.12525000  0.70305000  0.92405000  1.0 -0.0880735358
C  C15  1  0.92405000  0.12525000  0.70305000  1.0 -0.0880735358
C  C16  1  0.70305000  0.12525000  0.92405000  1.0 -0.0880735358
C  C17  1  0.12525000  0.92405000  0.70305000  1.0 -0.0880735358
C  C18  1  0.92405000  0.70305000  0.12525000  1.0 -0.0880735358
C  C19  1  0.72723000  0.87353000  0.12993000  1.0 -0.1193304559
C  C20  1  0.12993000  0.72723000  0.87353000  1.0 -0.1080853707
C  C21  1  0.87353000  0.12993000  0.72723000  1.0 -0.1193304559
C  C22  1  0.72723000  0.12993000  0.87353000  1.0 -0.1193304559
C  C23  1  0.12993000  0.87353000  0.72723000  1.0 -0.1193304559
C  C24  1  0.87353000  0.72723000  0.12993000  1.0 -0.1193304559
C  C25  1  0.70431000  0.84941000  0.12951000  1.0 0.029142391
C  C26  1  0.12951000  0.70431000  0.84941000  1.0 0.029142391
C  C27  1  0.84941000  0.12951000  0.70431000  1.0 0.029142391
C  C28  1  0.70431000  0.12951000  0.84941000  1.0 0.029142391
C  C29  1  0.12951000  0.84941000  0.70431000  1.0 0.029142391
C  C30  1  0.84941000  0.70431000  0.12951000  1.0 0.029142391
C  C31  1  0.65891000  0.87411000  0.12501000  1.0 -0.1193304559
C  C32  1  0.12501000  0.65891000  0.87411000  1.0 -0.1193304559
C  C33  1  0.87411000  0.12501000  0.65891000  1.0 -0.1193304559
C  C34  1  0.65891000  0.12501000  0.87411000  1.0 -0.1193304559
C  C35  1  0.12501000  0.87411000  0.65891000  1.0 -0.1193304559
C  C36  1  0.87411000  0.65891000  0.12501000  1.0 -0.1193304559
C  C37  1  0.63533000  0.92373000  0.12033000  1.0 -0.0880735358
C  C38  1  0.12033000  0.63533000  0.92373000  1.0 -0.0836719725
C  C39  1  0.92373000  0.12033000  0.63533000  1.0 -0.0880735358
C  C40  1  0.63533000  0.12033000  0.92373000  1.0 -0.0836719725
C  C41  1  0.12033000  0.92373000  0.63533000  1.0 -0.0880735358
C  C42  1  0.92373000  0.63533000  0.12033000  1.0 -0.0836719725
C  C43  1  0.72799000  0.79749000  0.13129000  1.0 0.3677386948
C  C44  1  0.13129000  0.72799000  0.79749000  1.0 0.3677386948
C  C45  1  0.79749000  0.13129000  0.72799000  1.0 0.3677386948
C  C46  1  0.72799000  0.13129000  0.79749000  1.0 0.3677386948
C  C47  1  0.13129000  0.79749000  0.72799000  1.0 0.3677386948
C  C48  1  0.79749000  0.72799000  0.13129000  1.0 0.3677386948
C  C49  1  0.72965000  0.72965000  0.13330000  1.0 0.3297762023
C  C50  1  0.13330000  0.72965000  0.72965000  1.0 0.3297762023
C  C51  1  0.72965000  0.13330000  0.72965000  1.0 0.3297762023
C  C52  1  0.70176000  0.70176000  0.13331000  1.0 0.0770986063
C  C53  1  0.13331000  0.70176000  0.70176000  1.0 0.0770986063
C  C54  1  0.70176000  0.13331000  0.70176000  1.0 0.0770986063
C  C55  1  0.72926000  0.65216000  0.12976000  1.0 -0.1454549435
C  C56  1  0.12976000  0.72926000  0.65216000  1.0 -0.144341928
C  C57  1  0.65216000  0.12976000  0.72926000  1.0 -0.1454549435
C  C58  1  0.72926000  0.12976000  0.65216000  1.0 -0.144341928
C  C59  1  0.12976000  0.65216000  0.72926000  1.0 -0.1454549435
C  C60  1  0.65216000  0.72926000  0.12976000  1.0 -0.1454549435
C  C61  1  0.70585000  0.63335000  0.12245000  1.0 -0.0880735358
C  C62  1  0.12245000  0.70585000  0.63335000  1.0 -0.0836719725
C  C63  1  0.63335000  0.12245000  0.70585000  1.0 -0.0836719725
C  C64  1  0.70585000  0.12245000  0.63335000  1.0 -0.0836719725
C  C65  1  0.12245000  0.63335000  0.70585000  1.0 -0.0880735358
C  C66  1  0.63335000  0.70585000  0.12245000  1.0 -0.0880735358
C  C67  1  0.65984000  0.65984000  0.11839000  1.0 -0.0219185564
C  C68  1  0.11839000  0.65984000  0.65984000  1.0 -0.0219185564
C  C69  1  0.65984000  0.11839000  0.65984000  1.0 -0.0219185564
C  C70  1  0.63515000  0.63515000  0.11260000  1.0 0.5761372295
C  C71  1  0.11260000  0.63515000  0.63515000  1.0 0.5761372295
C  C72  1  0.63515000  0.11260000  0.63515000  1.0 0.5761372295
C  C73  1  0.63658000  0.63658000  0.00558000  1.0 0.5761372295
C  C74  1  0.00558000  0.63658000  0.63658000  1.0 0.5761372295
C  C75  1  0.63658000  0.00558000  0.63658000  1.0 0.5761372295
C  C76  1  0.66112000  0.66112000  0.95167000  1.0 -0.0287253332
C  C77  1  0.95167000  0.66112000  0.66112000  1.0 -0.0287253332
C  C78  1  0.66112000  0.95167000  0.66112000  1.0 -0.0287253332
C  C79  1  0.63615000  0.70855000  0.92735000  1.0 -0.0984786257
C  C80  1  0.92735000  0.63615000  0.70855000  1.0 -0.0984786257
C  C81  1  0.70855000  0.92735000  0.63615000  1.0 -0.0984786257
C  C82  1  0.63615000  0.92735000  0.70855000  1.0 -0.0984786257
C  C83  1  0.92735000  0.70855000  0.63615000  1.0 -0.0984786257
C  C84  1  0.70855000  0.63615000  0.92735000  1.0 -0.0984786257
C  C85  1  0.65966000  0.73126000  0.87876000  1.0 -0.1193304559
C  C86  1  0.87876000  0.65966000  0.73126000  1.0 -0.1193304559
C  C87  1  0.73126000  0.87876000  0.65966000  1.0 -0.1193304559
C  C88  1  0.65966000  0.87876000  0.73126000  1.0 -0.1193304559
C  C89  1  0.87876000  0.73126000  0.65966000  1.0 -0.1193304559
C  C90  1  0.73126000  0.65966000  0.87876000  1.0 -0.1193304559
C  C91  1  0.70710000  0.70710000  0.85305000  1.0 0.029142391
C  C92  1  0.85305000  0.70710000  0.70710000  1.0 0.029142391
C  C93  1  0.70710000  0.85305000  0.70710000  1.0 0.029142391
C  C94  1  0.73258000  0.73258000  0.80008000  1.0 0.3608217109
C  C95  1  0.80008000  0.73258000  0.73258000  1.0 0.3608217109
C  C96  1  0.73258000  0.80008000  0.73258000  1.0 0.3608217109
C  C97  1  0.55906000  0.18796000  0.08246000  1.0 0.5761372295
C  C98  1  0.08246000  0.55906000  0.18796000  1.0 0.5761372295
C  C99  1  0.18796000  0.08246000  0.55906000  1.0 0.5761372295
C  C100  1  0.55906000  0.08246000  0.18796000  1.0 0.5761372295
C  C101  1  0.08246000  0.18796000  0.55906000  1.0 0.5761372295
C  C102  1  0.18796000  0.55906000  0.08246000  1.0 0.5761372295
C  C103  1  0.53486000  0.24246000  0.07496000  1.0 -0.0219185564
C  C104  1  0.07496000  0.53486000  0.24246000  1.0 -0.0219185564
C  C105  1  0.24246000  0.07496000  0.53486000  1.0 -0.0219185564
C  C106  1  0.53486000  0.07496000  0.24246000  1.0 -0.0219185564
C  C107  1  0.07496000  0.24246000  0.53486000  1.0 -0.0219185564
C  C108  1  0.24246000  0.53486000  0.07496000  1.0 -0.0219185564
C  C109  1  0.55706000  0.26646000  0.07526000  1.0 -0.0880735358
C  C110  1  0.07526000  0.55706000  0.26646000  1.0 -0.0880735358
C  C111  1  0.26646000  0.07526000  0.55706000  1.0 -0.0880735358
C  C112  1  0.55706000  0.07526000  0.26646000  1.0 -0.0880735358
C  C113  1  0.07526000  0.26646000  0.55706000  1.0 -0.0880735358
C  C114  1  0.26646000  0.55706000  0.07526000  1.0 -0.0880735358
C  C115  1  0.53634000  0.31524000  0.06994000  1.0 -0.1193304559
C  C116  1  0.06994000  0.53634000  0.31524000  1.0 -0.1193304559
C  C117  1  0.31524000  0.06994000  0.53634000  1.0 -0.1193304559
C  C118  1  0.53634000  0.06994000  0.31524000  1.0 -0.1193304559
C  C119  1  0.06994000  0.31524000  0.53634000  1.0 -0.1193304559
C  C120  1  0.31524000  0.53634000  0.06994000  1.0 -0.1193304559
C  C121  1  0.49113000  0.34263000  0.06403000  1.0 0.0379236391
C  C122  1  0.06403000  0.49113000  0.34263000  1.0 0.0379236391
C  C123  1  0.34263000  0.06403000  0.49113000  1.0 0.0379236391
C  C124  1  0.49113000  0.06403000  0.34263000  1.0 0.0379236391
C  C125  1  0.06403000  0.34263000  0.49113000  1.0 0.0379236391
C  C126  1  0.34263000  0.49113000  0.06403000  1.0 0.0379236391
C  C127  1  0.46692000  0.31842000  0.06412000  1.0 -0.1193304559
C  C128  1  0.06412000  0.46692000  0.31842000  1.0 -0.1193304559
C  C129  1  0.31842000  0.06412000  0.46692000  1.0 -0.1193304559
C  C130  1  0.46692000  0.06412000  0.31842000  1.0 -0.1193304559
C  C131  1  0.06412000  0.31842000  0.46692000  1.0 -0.1193304559
C  C132  1  0.31842000  0.46692000  0.06412000  1.0 -0.1193304559
C  C133  1  0.48813000  0.26953000  0.06993000  1.0 -0.0984786257
C  C134  1  0.06993000  0.48813000  0.26953000  1.0 -0.0984786257
C  C135  1  0.26953000  0.06993000  0.48813000  1.0 -0.0984786257
C  C136  1  0.48813000  0.06993000  0.26953000  1.0 -0.0984786257
C  C137  1  0.06993000  0.26953000  0.48813000  1.0 -0.0984786257
C  C138  1  0.26953000  0.48813000  0.06993000  1.0 -0.0984786257
C  C139  1  0.46226000  0.39646000  0.06256000  1.0 0.3608217109
C  C140  1  0.06256000  0.46226000  0.39646000  1.0 0.3608217109
C  C141  1  0.39646000  0.06256000  0.46226000  1.0 0.3608217109
C  C142  1  0.46226000  0.06256000  0.39646000  1.0 0.3535297063
C  C143  1  0.06256000  0.39646000  0.46226000  1.0 0.3535297063
C  C144  1  0.39646000  0.46226000  0.06256000  1.0 0.3535297063
C  C145  1  0.46282000  0.46282000  0.06542000  1.0 0.3835016486
C  C146  1  0.06542000  0.46282000  0.46282000  1.0 0.3835016486
C  C147  1  0.46282000  0.06542000  0.46282000  1.0 0.3835016486
C  C148  1  0.48891000  0.48891000  0.06571000  1.0 0.029142391
C  C149  1  0.06571000  0.48891000  0.48891000  1.0 0.029142391
C  C150  1  0.48891000  0.06571000  0.48891000  1.0 0.029142391
C  C151  1  0.46699000  0.53359000  0.06719000  1.0 -0.1258335514
C  C152  1  0.06719000  0.46699000  0.53359000  1.0 -0.1258335514
C  C153  1  0.53359000  0.06719000  0.46699000  1.0 -0.1258335514
C  C154  1  0.46699000  0.06719000  0.53359000  1.0 -0.1258335514
C  C155  1  0.06719000  0.53359000  0.46699000  1.0 -0.1258335514
C  C156  1  0.53359000  0.46699000  0.06719000  1.0 -0.1258335514
C  C157  1  0.48856000  0.55946000  0.07006000  1.0 -0.0984786257
C  C158  1  0.07006000  0.48856000  0.55946000  1.0 -0.0984786257
C  C159  1  0.55946000  0.07006000  0.48856000  1.0 -0.0984786257
C  C160  1  0.48856000  0.07006000  0.55946000  1.0 -0.0984786257
C  C161  1  0.07006000  0.55946000  0.48856000  1.0 -0.0984786257
C  C162  1  0.55946000  0.48856000  0.07006000  1.0 -0.0984786257
C  C163  1  0.53551000  0.53551000  0.07211000  1.0 -0.0022026427
C  C164  1  0.07211000  0.53551000  0.53551000  1.0 -0.0022026427
C  C165  1  0.53551000  0.07211000  0.53551000  1.0 -0.0022026427
C  C166  1  0.55904000  0.55904000  0.08094000  1.0 0.5714335621
C  C167  1  0.08094000  0.55904000  0.55904000  1.0 0.5714335621
C  C168  1  0.55904000  0.08094000  0.55904000  1.0 0.5714335621
C  C169  1  0.55851000  0.55851000  0.18656000  1.0 0.5630230454
C  C170  1  0.18656000  0.55851000  0.55851000  1.0 0.5630230454
C  C171  1  0.55851000  0.18656000  0.55851000  1.0 0.5630230454
C  C172  1  0.53479000  0.53479000  0.24399000  1.0 -0.0109350132
C  C173  1  0.24399000  0.53479000  0.53479000  1.0 -0.0109350132
C  C174  1  0.53479000  0.24399000  0.53479000  1.0 -0.0109350132
C  C175  1  0.48689000  0.55839000  0.27099000  1.0 -0.0984786257
C  C176  1  0.27099000  0.48689000  0.55839000  1.0 -0.0984786257
C  C177  1  0.55839000  0.27099000  0.48689000  1.0 -0.0984786257
C  C178  1  0.48689000  0.27099000  0.55839000  1.0 -0.0984786257
C  C179  1  0.27099000  0.55839000  0.48689000  1.0 -0.0984786257
C  C180  1  0.55839000  0.48689000  0.27099000  1.0 -0.0984786257
C  C181  1  0.46471000  0.53691000  0.31801000  1.0 -0.1080853707
C  C182  1  0.31801000  0.46471000  0.53691000  1.0 -0.1080853707
C  C183  1  0.53691000  0.31801000  0.46471000  1.0 -0.1080853707
C  C184  1  0.46471000  0.31801000  0.53691000  1.0 -0.1080853707
C  C185  1  0.31801000  0.53691000  0.46471000  1.0 -0.0984786257
C  C186  1  0.53691000  0.46471000  0.31801000  1.0 -0.1080853707
C  C187  1  0.49038000  0.49038000  0.34328000  1.0 0.0180874843
C  C188  1  0.34328000  0.49038000  0.49038000  1.0 0.0180874843
C  C189  1  0.49038000  0.34328000  0.49038000  1.0 0.0180874843
C  C190  1  0.46494000  0.46494000  0.39839000  1.0 0.3608217109
C  C191  1  0.39839000  0.46494000  0.46494000  1.0 0.3608217109
C  C192  1  0.46494000  0.39839000  0.46494000  1.0 0.3608217109
C  C193  1  0.36437000  0.88837000  0.99527000  1.0 0.5714335621
C  C194  1  0.88837000  0.99527000  0.36437000  1.0 0.5714335621
C  C195  1  0.99527000  0.36437000  0.88837000  1.0 0.5714335621
C  C196  1  0.36437000  0.99527000  0.88837000  1.0 0.5714335621
C  C197  1  0.88837000  0.36437000  0.99527000  1.0 0.5714335621
C  C198  1  0.99527000  0.88837000  0.36437000  1.0 0.5714335621
C  C199  1  0.34193000  0.88053000  0.04943000  1.0 -0.0489472753
C  C200  1  0.88053000  0.04943000  0.34193000  1.0 -0.0489472753
C  C201  1  0.04943000  0.34193000  0.88053000  1.0 -0.0489472753
C  C202  1  0.34193000  0.04943000  0.88053000  1.0 -0.0489472753
C  C203  1  0.88053000  0.34193000  0.04943000  1.0 -0.0489472753
C  C204  1  0.04943000  0.88053000  0.34193000  1.0 -0.0489472753
C  C205  1  0.29695000  0.87475000  0.07595000  1.0 -0.0880735358
C  C206  1  0.87475000  0.07595000  0.29695000  1.0 -0.0880735358
C  C207  1  0.07595000  0.29695000  0.87475000  1.0 -0.0880735358
C  C208  1  0.29695000  0.07595000  0.87475000  1.0 -0.0880735358
C  C209  1  0.87475000  0.29695000  0.07595000  1.0 -0.0880735358
C  C210  1  0.07595000  0.87475000  0.29695000  1.0 -0.0880735358
C  C211  1  0.27277000  0.87007000  0.12647000  1.0 -0.1193304559
C  C212  1  0.87007000  0.12647000  0.27277000  1.0 -0.1080853707
C  C213  1  0.12647000  0.27277000  0.87007000  1.0 -0.1080853707
C  C214  1  0.27277000  0.12647000  0.87007000  1.0 -0.1193304559
C  C215  1  0.87007000  0.27277000  0.12647000  1.0 -0.1193304559
C  C216  1  0.12647000  0.87007000  0.27277000  1.0 -0.1193304559
C  C217  1  0.29569000  0.87049000  0.15059000  1.0 0.029142391
C  C218  1  0.87049000  0.15059000  0.29569000  1.0 0.029142391
C  C219  1  0.15059000  0.29569000  0.87049000  1.0 0.029142391
C  C220  1  0.29569000  0.15059000  0.87049000  1.0 0.029142391
C  C221  1  0.87049000  0.29569000  0.15059000  1.0 0.029142391
C  C222  1  0.15059000  0.87049000  0.29569000  1.0 0.029142391
C  C223  1  0.34109000  0.87499000  0.12589000  1.0 -0.1193304559
C  C224  1  0.87499000  0.12589000  0.34109000  1.0 -0.1193304559
C  C225  1  0.12589000  0.34109000  0.87499000  1.0 -0.1193304559
C  C226  1  0.34109000  0.12589000  0.87499000  1.0 -0.1193304559
C  C227  1  0.87499000  0.34109000  0.12589000  1.0 -0.1193304559
C  C228  1  0.12589000  0.87499000  0.34109000  1.0 -0.1193304559
C  C229  1  0.36467000  0.87967000  0.07627000  1.0 -0.0880735358
C  C230  1  0.87967000  0.07627000  0.36467000  1.0 -0.0836719725
C  C231  1  0.07627000  0.36467000  0.87967000  1.0 -0.0836719725
C  C232  1  0.36467000  0.07627000  0.87967000  1.0 -0.0880735358
C  C233  1  0.87967000  0.36467000  0.07627000  1.0 -0.0836719725
C  C234  1  0.07627000  0.87967000  0.36467000  1.0 -0.0880735358
C  C235  1  0.27201000  0.86871000  0.20251000  1.0 0.3677386948
C  C236  1  0.86871000  0.20251000  0.27201000  1.0 0.3677386948
C  C237  1  0.20251000  0.27201000  0.86871000  1.0 0.3677386948
C  C238  1  0.27201000  0.20251000  0.86871000  1.0 0.3677386948
C  C239  1  0.86871000  0.27201000  0.20251000  1.0 0.3677386948
C  C240  1  0.20251000  0.86871000  0.27201000  1.0 0.3677386948
C  C241  1  0.27035000  0.86670000  0.27035000  1.0 0.3297762023
C  C242  1  0.86670000  0.27035000  0.27035000  1.0 0.3297762023
C  C243  1  0.27035000  0.27035000  0.86670000  1.0 0.3297762023
C  C244  1  0.29824000  0.86669000  0.29824000  1.0 0.0745106337
C  C245  1  0.86669000  0.29824000  0.29824000  1.0 0.0770986063
C  C246  1  0.29824000  0.29824000  0.86669000  1.0 0.0770986063
C  C247  1  0.27074000  0.87024000  0.34784000  1.0 -0.144341928
C  C248  1  0.87024000  0.34784000  0.27074000  1.0 -0.144341928
C  C249  1  0.34784000  0.27074000  0.87024000  1.0 -0.1454549435
C  C250  1  0.27074000  0.34784000  0.87024000  1.0 -0.144341928
C  C251  1  0.87024000  0.27074000  0.34784000  1.0 -0.1454549435
C  C252  1  0.34784000  0.87024000  0.27074000  1.0 -0.1454549435
C  C253  1  0.29415000  0.87755000  0.36665000  1.0 -0.0880735358
C  C254  1  0.87755000  0.36665000  0.29415000  1.0 -0.0880735358
C  C255  1  0.36665000  0.29415000  0.87755000  1.0 -0.0836719725
C  C256  1  0.29415000  0.36665000  0.87755000  1.0 -0.0880735358
C  C257  1  0.87755000  0.29415000  0.36665000  1.0 -0.0880735358
C  C258  1  0.36665000  0.87755000  0.29415000  1.0 -0.0880735358
C  C259  1  0.34016000  0.88161000  0.34016000  1.0 -0.0219185564
C  C260  1  0.88161000  0.34016000  0.34016000  1.0 -0.0219185564
C  C261  1  0.34016000  0.34016000  0.88161000  1.0 -0.0219185564
C  C262  1  0.36485000  0.88740000  0.36485000  1.0 0.5761372295
C  C263  1  0.88740000  0.36485000  0.36485000  1.0 0.5761372295
C  C264  1  0.36485000  0.36485000  0.88740000  1.0 0.5761372295
C  C265  1  0.36342000  0.99442000  0.36342000  1.0 0.5761372295
C  C266  1  0.99442000  0.36342000  0.36342000  1.0 0.5761372295
C  C267  1  0.36342000  0.36342000  0.99442000  1.0 0.5761372295
C  C268  1  0.33888000  0.04833000  0.33888000  1.0 -0.0287253332
C  C269  1  0.04833000  0.33888000  0.33888000  1.0 -0.0287253332
C  C270  1  0.33888000  0.33888000  0.04833000  1.0 -0.0287253332
C  C271  1  0.36385000  0.07265000  0.29145000  1.0 -0.0984786257
C  C272  1  0.07265000  0.29145000  0.36385000  1.0 -0.0984786257
C  C273  1  0.29145000  0.36385000  0.07265000  1.0 -0.0984786257
C  C274  1  0.36385000  0.29145000  0.07265000  1.0 -0.0984786257
C  C275  1  0.07265000  0.36385000  0.29145000  1.0 -0.0984786257
C  C276  1  0.29145000  0.07265000  0.36385000  1.0 -0.0984786257
C  C277  1  0.34034000  0.12124000  0.26874000  1.0 -0.1193304559
C  C278  1  0.12124000  0.26874000  0.34034000  1.0 -0.1193304559
C  C279  1  0.26874000  0.34034000  0.12124000  1.0 -0.1193304559
C  C280  1  0.34034000  0.26874000  0.12124000  1.0 -0.1193304559
C  C281  1  0.12124000  0.34034000  0.26874000  1.0 -0.1080853707
C  C282  1  0.26874000  0.12124000  0.34034000  1.0 -0.1193304559
C  C283  1  0.29290000  0.14695000  0.29290000  1.0 0.029142391
C  C284  1  0.14695000  0.29290000  0.29290000  1.0 0.029142391
C  C285  1  0.29290000  0.29290000  0.14695000  1.0 0.029142391
C  C286  1  0.26742000  0.19992000  0.26742000  1.0 0.3608217109
C  C287  1  0.19992000  0.26742000  0.26742000  1.0 0.3677386948
C  C288  1  0.26742000  0.26742000  0.19992000  1.0 0.3608217109
C  C289  1  0.44094000  0.91754000  0.81204000  1.0 0.5761372295
C  C290  1  0.91754000  0.81204000  0.44094000  1.0 0.5761372295
C  C291  1  0.81204000  0.44094000  0.91754000  1.0 0.5761372295
C  C292  1  0.44094000  0.81204000  0.91754000  1.0 0.5761372295
C  C293  1  0.91754000  0.44094000  0.81204000  1.0 0.5761372295
C  C294  1  0.81204000  0.91754000  0.44094000  1.0 0.5761372295
C  C295  1  0.46514000  0.92504000  0.75754000  1.0 -0.0219185564
C  C296  1  0.92504000  0.75754000  0.46514000  1.0 -0.0219185564
C  C297  1  0.75754000  0.46514000  0.92504000  1.0 -0.0219185564
C  C298  1  0.46514000  0.75754000  0.92504000  1.0 -0.0219185564
C  C299  1  0.92504000  0.46514000  0.75754000  1.0 -0.0219185564
C  C300  1  0.75754000  0.92504000  0.46514000  1.0 -0.0219185564
C  C301  1  0.44294000  0.92474000  0.73354000  1.0 -0.0880735358
C  C302  1  0.92474000  0.73354000  0.44294000  1.0 -0.0880735358
C  C303  1  0.73354000  0.44294000  0.92474000  1.0 -0.0880735358
C  C304  1  0.44294000  0.73354000  0.92474000  1.0 -0.0880735358
C  C305  1  0.92474000  0.44294000  0.73354000  1.0 -0.0880735358
C  C306  1  0.73354000  0.92474000  0.44294000  1.0 -0.0984786257
C  C307  1  0.46366000  0.93006000  0.68476000  1.0 -0.1193304559
C  C308  1  0.93006000  0.68476000  0.46366000  1.0 -0.1193304559
C  C309  1  0.68476000  0.46366000  0.93006000  1.0 -0.1193304559
C  C310  1  0.46366000  0.68476000  0.93006000  1.0 -0.1193304559
C  C311  1  0.93006000  0.46366000  0.68476000  1.0 -0.1193304559
C  C312  1  0.68476000  0.93006000  0.46366000  1.0 -0.1193304559
C  C313  1  0.50887000  0.93597000  0.65737000  1.0 0.0379236391
C  C314  1  0.93597000  0.65737000  0.50887000  1.0 0.0379236391
C  C315  1  0.65737000  0.50887000  0.93597000  1.0 0.0379236391
C  C316  1  0.50887000  0.65737000  0.93597000  1.0 0.0379236391
C  C317  1  0.93597000  0.50887000  0.65737000  1.0 0.0379236391
C  C318  1  0.65737000  0.93597000  0.50887000  1.0 0.0379236391
C  C319  1  0.53308000  0.93588000  0.68158000  1.0 -0.1193304559
C  C320  1  0.93588000  0.68158000  0.53308000  1.0 -0.1193304559
C  C321  1  0.68158000  0.53308000  0.93588000  1.0 -0.1193304559
C  C322  1  0.53308000  0.68158000  0.93588000  1.0 -0.1193304559
C  C323  1  0.93588000  0.53308000  0.68158000  1.0 -0.1193304559
C  C324  1  0.68158000  0.93588000  0.53308000  1.0 -0.1193304559
C  C325  1  0.51187000  0.93007000  0.73047000  1.0 -0.0984786257
C  C326  1  0.93007000  0.73047000  0.51187000  1.0 -0.0984786257
C  C327  1  0.73047000  0.51187000  0.93007000  1.0 -0.0984786257
C  C328  1  0.51187000  0.73047000  0.93007000  1.0 -0.0984786257
C  C329  1  0.93007000  0.51187000  0.73047000  1.0 -0.0984786257
C  C330  1  0.73047000  0.93007000  0.51187000  1.0 -0.0984786257
C  C331  1  0.53774000  0.93744000  0.60354000  1.0 0.3535297063
C  C332  1  0.93744000  0.60354000  0.53774000  1.0 0.3535297063
C  C333  1  0.60354000  0.53774000  0.93744000  1.0 0.3535297063
C  C334  1  0.53774000  0.60354000  0.93744000  1.0 0.3535297063
C  C335  1  0.93744000  0.53774000  0.60354000  1.0 0.3535297063
C  C336  1  0.60354000  0.93744000  0.53774000  1.0 0.3535297063
C  C337  1  0.53718000  0.93458000  0.53718000  1.0 0.3835016486
C  C338  1  0.93458000  0.53718000  0.53718000  1.0 0.3835016486
C  C339  1  0.53718000  0.53718000  0.93458000  1.0 0.3835016486
C  C340  1  0.51109000  0.93429000  0.51109000  1.0 0.029142391
C  C341  1  0.93429000  0.51109000  0.51109000  1.0 0.029142391
C  C342  1  0.51109000  0.51109000  0.93429000  1.0 0.029142391
C  C343  1  0.53301000  0.93281000  0.46641000  1.0 -0.1258335514
C  C344  1  0.93281000  0.46641000  0.53301000  1.0 -0.1258335514
C  C345  1  0.46641000  0.53301000  0.93281000  1.0 -0.1258335514
C  C346  1  0.53301000  0.46641000  0.93281000  1.0 -0.1258335514
C  C347  1  0.93281000  0.53301000  0.46641000  1.0 -0.1258335514
C  C348  1  0.46641000  0.93281000  0.53301000  1.0 -0.1258335514
C  C349  1  0.51144000  0.92994000  0.44054000  1.0 -0.0984786257
C  C350  1  0.92994000  0.44054000  0.51144000  1.0 -0.0984786257
C  C351  1  0.44054000  0.51144000  0.92994000  1.0 -0.0984786257
C  C352  1  0.51144000  0.44054000  0.92994000  1.0 -0.0984786257
C  C353  1  0.92994000  0.51144000  0.44054000  1.0 -0.0984786257
C  C354  1  0.44054000  0.92994000  0.51144000  1.0 -0.0984786257
C  C355  1  0.46449000  0.92789000  0.46449000  1.0 -0.0022026427
C  C356  1  0.92789000  0.46449000  0.46449000  1.0 -0.0022026427
C  C357  1  0.46449000  0.46449000  0.92789000  1.0 -0.0022026427
C  C358  1  0.44096000  0.91906000  0.44096000  1.0 0.5714335621
C  C359  1  0.91906000  0.44096000  0.44096000  1.0 0.5714335621
C  C360  1  0.44096000  0.44096000  0.91906000  1.0 0.5714335621
C  C361  1  0.44149000  0.81344000  0.44149000  1.0 0.5630230454
C  C362  1  0.81344000  0.44149000  0.44149000  1.0 0.5630230454
C  C363  1  0.44149000  0.44149000  0.81344000  1.0 0.5630230454
C  C364  1  0.46521000  0.75601000  0.46521000  1.0 -0.0109350132
C  C365  1  0.75601000  0.46521000  0.46521000  1.0 -0.0109350132
C  C366  1  0.46521000  0.46521000  0.75601000  1.0 -0.0109350132
C  C367  1  0.51311000  0.72901000  0.44161000  1.0 -0.0984786257
C  C368  1  0.72901000  0.44161000  0.51311000  1.0 -0.0984786257
C  C369  1  0.44161000  0.51311000  0.72901000  1.0 -0.0984786257
C  C370  1  0.51311000  0.44161000  0.72901000  1.0 -0.0984786257
C  C371  1  0.72901000  0.51311000  0.44161000  1.0 -0.0984786257
C  C372  1  0.44161000  0.72901000  0.51311000  1.0 -0.0984786257
C  C373  1  0.53529000  0.68199000  0.46309000  1.0 -0.1080853707
C  C374  1  0.68199000  0.46309000  0.53529000  1.0 -0.0984786257
C  C375  1  0.46309000  0.53529000  0.68199000  1.0 -0.1080853707
C  C376  1  0.53529000  0.46309000  0.68199000  1.0 -0.1080853707
C  C377  1  0.68199000  0.53529000  0.46309000  1.0 -0.0984786257
C  C378  1  0.46309000  0.68199000  0.53529000  1.0 -0.1080853707
C  C379  1  0.50962000  0.65672000  0.50962000  1.0 0.0180874843
C  C380  1  0.65672000  0.50962000  0.50962000  1.0 0.0180874843
C  C381  1  0.50962000  0.50962000  0.65672000  1.0 0.0180874843
C  C382  1  0.53506000  0.60161000  0.53506000  1.0 0.3608217109
C  C383  1  0.60161000  0.53506000  0.53506000  1.0 0.3608217109
C  C384  1  0.53506000  0.53506000  0.60161000  1.0 0.3608217109
N  N1  1  0.77400000  0.77400000  0.13250000  1.0 -0.4368338737
N  N2  1  0.13250000  0.77400000  0.77400000  1.0 -0.431186993
N  N3  1  0.77400000  0.13250000  0.77400000  1.0 -0.4368338737
N  N4  1  0.70431000  0.77591000  0.13191000  1.0 -0.4184008448
N  N5  1  0.13191000  0.70431000  0.77591000  1.0 -0.4184008448
N  N6  1  0.77591000  0.13191000  0.70431000  1.0 -0.4184008448
N  N7  1  0.70431000  0.13191000  0.77591000  1.0 -0.4184008448
N  N8  1  0.13191000  0.77591000  0.70431000  1.0 -0.4184008448
N  N9  1  0.77591000  0.70431000  0.13191000  1.0 -0.4184008448
N  N10  1  0.70806000  0.77844000  0.77844000  1.0 -0.4137899431
N  N11  1  0.77844000  0.70806000  0.77844000  1.0 -0.4137899431
N  N12  1  0.77844000  0.77844000  0.70806000  1.0 -0.4184008448
N  N13  1  0.41660000  0.41660000  0.06255000  1.0 -0.3935810132
N  N14  1  0.06255000  0.41660000  0.41660000  1.0 -0.3935810132
N  N15  1  0.41660000  0.06255000  0.41660000  1.0 -0.3935810132
N  N16  1  0.48828000  0.41675000  0.06461000  1.0 -0.4184008448
N  N17  1  0.06461000  0.48828000  0.41675000  1.0 -0.4184008448
N  N18  1  0.41675000  0.06461000  0.48828000  1.0 -0.4184008448
N  N19  1  0.48828000  0.06461000  0.41675000  1.0 -0.4184008448
N  N20  1  0.06461000  0.41675000  0.48828000  1.0 -0.4184008448
N  N21  1  0.41675000  0.48828000  0.06461000  1.0 -0.4184008448
N  N22  1  0.48937000  0.41906000  0.41906000  1.0 -0.431186993
N  N23  1  0.41906000  0.48937000  0.41906000  1.0 -0.431186993
N  N24  1  0.41906000  0.41906000  0.48937000  1.0 -0.431186993
N  N25  1  0.22600000  0.86750000  0.22600000  1.0 -0.431186993
N  N26  1  0.86750000  0.22600000  0.22600000  1.0 -0.4368338737
N  N27  1  0.22600000  0.22600000  0.86750000  1.0 -0.4368338737
N  N28  1  0.29569000  0.86809000  0.22409000  1.0 -0.4184008448
N  N29  1  0.86809000  0.22409000  0.29569000  1.0 -0.4184008448
N  N30  1  0.22409000  0.29569000  0.86809000  1.0 -0.4184008448
N  N31  1  0.29569000  0.22409000  0.86809000  1.0 -0.4184008448
N  N32  1  0.86809000  0.29569000  0.22409000  1.0 -0.4184008448
N  N33  1  0.22409000  0.86809000  0.29569000  1.0 -0.4184008448
N  N34  1  0.29194000  0.22156000  0.22156000  1.0 -0.4137899431
N  N35  1  0.22156000  0.22156000  0.29194000  1.0 -0.4184008448
N  N36  1  0.22156000  0.29194000  0.22156000  1.0 -0.4184008448
N  N37  1  0.58340000  0.93745000  0.58340000  1.0 -0.3935810132
N  N38  1  0.93745000  0.58340000  0.58340000  1.0 -0.3935810132
N  N39  1  0.58340000  0.58340000  0.93745000  1.0 -0.3935810132
N  N40  1  0.51172000  0.93539000  0.58325000  1.0 -0.4184008448
N  N41  1  0.93539000  0.58325000  0.51172000  1.0 -0.4184008448
N  N42  1  0.58325000  0.51172000  0.93539000  1.0 -0.4184008448
N  N43  1  0.51172000  0.58325000  0.93539000  1.0 -0.4184008448
N  N44  1  0.93539000  0.51172000  0.58325000  1.0 -0.4184008448
N  N45  1  0.58325000  0.93539000  0.51172000  1.0 -0.4184008448
N  N46  1  0.51063000  0.58094000  0.58094000  1.0 -0.431186993
N  N47  1  0.58094000  0.58094000  0.51063000  1.0 -0.431186993
N  N48  1  0.58094000  0.51063000  0.58094000  1.0 -0.431186993
O  O1  1  0.66078000  0.02472000  0.10900000  1.0 -0.5112705692
O  O2  1  0.10900000  0.66078000  0.02472000  1.0 -0.5112705692
O  O3  1  0.02472000  0.10900000  0.66078000  1.0 -0.5112705692
O  O4  1  0.66078000  0.10900000  0.02472000  1.0 -0.5112705692
O  O5  1  0.10900000  0.02472000  0.66078000  1.0 -0.5112705692
O  O6  1  0.02472000  0.66078000  0.10900000  1.0 -0.5112705692
O  O7  1  0.59332000  0.02515000  0.10811000  1.0 -0.5112705692
O  O8  1  0.10811000  0.59332000  0.02515000  1.0 -0.5112705692
O  O9  1  0.02515000  0.10811000  0.59332000  1.0 -0.5112705692
O  O10  1  0.59332000  0.10811000  0.02515000  1.0 -0.5112705692
O  O11  1  0.10811000  0.02515000  0.59332000  1.0 -0.5112705692
O  O12  1  0.02515000  0.59332000  0.10811000  1.0 -0.5112705692
O  O13  1  0.59211000  0.65957000  0.11076000  1.0 -0.5112705692
O  O14  1  0.11076000  0.59211000  0.65957000  1.0 -0.5155618343
O  O15  1  0.65957000  0.11076000  0.59211000  1.0 -0.5155618343
O  O16  1  0.59211000  0.11076000  0.65957000  1.0 -0.5155618343
O  O17  1  0.11076000  0.65957000  0.59211000  1.0 -0.5112705692
O  O18  1  0.65957000  0.59211000  0.11076000  1.0 -0.5155618343
O  O19  1  0.59299000  0.66109000  0.02640000  1.0 -0.5112705692
O  O20  1  0.02640000  0.59299000  0.66109000  1.0 -0.5112705692
O  O21  1  0.66109000  0.02640000  0.59299000  1.0 -0.5112705692
O  O22  1  0.59299000  0.02640000  0.66109000  1.0 -0.5112705692
O  O23  1  0.02640000  0.66109000  0.59299000  1.0 -0.5112705692
O  O24  1  0.66109000  0.59299000  0.02640000  1.0 -0.5112705692
O  O25  1  0.60123000  0.16789000  0.08451000  1.0 -0.483541325
O  O26  1  0.08451000  0.60123000  0.16789000  1.0 -0.4855215403
O  O27  1  0.16789000  0.08451000  0.60123000  1.0 -0.483541325
O  O28  1  0.60123000  0.08451000  0.16789000  1.0 -0.4855215403
O  O29  1  0.08451000  0.16789000  0.60123000  1.0 -0.4855215403
O  O30  1  0.16789000  0.60123000  0.08451000  1.0 -0.4855215403
O  O31  1  0.53328000  0.16748000  0.08486000  1.0 -0.5337161524
O  O32  1  0.08486000  0.53328000  0.16748000  1.0 -0.5337161524
O  O33  1  0.16748000  0.08486000  0.53328000  1.0 -0.5337161524
O  O34  1  0.53328000  0.08486000  0.16748000  1.0 -0.5337161524
O  O35  1  0.08486000  0.16748000  0.53328000  1.0 -0.5337161524
O  O36  1  0.16748000  0.53328000  0.08486000  1.0 -0.5337161524
O  O37  1  0.53354000  0.60181000  0.08305000  1.0 -0.5032366939
O  O38  1  0.08305000  0.53354000  0.60181000  1.0 -0.5032366939
O  O39  1  0.60181000  0.08305000  0.53354000  1.0 -0.5032366939
O  O40  1  0.53354000  0.08305000  0.60181000  1.0 -0.5032366939
O  O41  1  0.08305000  0.60181000  0.53354000  1.0 -0.5032366939
O  O42  1  0.60181000  0.53354000  0.08305000  1.0 -0.5032366939
O  O43  1  0.53257000  0.60045000  0.16771000  1.0 -0.5112705692
O  O44  1  0.16771000  0.53257000  0.60045000  1.0 -0.5112705692
O  O45  1  0.60045000  0.16771000  0.53257000  1.0 -0.5112705692
O  O46  1  0.53257000  0.16771000  0.60045000  1.0 -0.5112705692
O  O47  1  0.16771000  0.60045000  0.53257000  1.0 -0.5112705692
O  O48  1  0.60045000  0.53257000  0.16771000  1.0 -0.5112705692
O  O49  1  0.33922000  0.89100000  0.97528000  1.0 -0.5112705692
O  O50  1  0.89100000  0.97528000  0.33922000  1.0 -0.5112705692
O  O51  1  0.97528000  0.33922000  0.89100000  1.0 -0.5112705692
O  O52  1  0.33922000  0.97528000  0.89100000  1.0 -0.5112705692
O  O53  1  0.89100000  0.33922000  0.97528000  1.0 -0.5112705692
O  O54  1  0.97528000  0.89100000  0.33922000  1.0 -0.5112705692
O  O55  1  0.40668000  0.89189000  0.97485000  1.0 -0.5112705692
O  O56  1  0.89189000  0.97485000  0.40668000  1.0 -0.5112705692
O  O57  1  0.97485000  0.40668000  0.89189000  1.0 -0.5112705692
O  O58  1  0.40668000  0.97485000  0.89189000  1.0 -0.5112705692
O  O59  1  0.89189000  0.40668000  0.97485000  1.0 -0.5112705692
O  O60  1  0.97485000  0.89189000  0.40668000  1.0 -0.5112705692
O  O61  1  0.40789000  0.88924000  0.34043000  1.0 -0.5112705692
O  O62  1  0.88924000  0.34043000  0.40789000  1.0 -0.5155618343
O  O63  1  0.34043000  0.40789000  0.88924000  1.0 -0.5155618343
O  O64  1  0.40789000  0.34043000  0.88924000  1.0 -0.5155618343
O  O65  1  0.88924000  0.40789000  0.34043000  1.0 -0.5155618343
O  O66  1  0.34043000  0.88924000  0.40789000  1.0 -0.5112705692
O  O67  1  0.40701000  0.97360000  0.33891000  1.0 -0.5112705692
O  O68  1  0.97360000  0.33891000  0.40701000  1.0 -0.5112705692
O  O69  1  0.33891000  0.40701000  0.97360000  1.0 -0.5112705692
O  O70  1  0.40701000  0.33891000  0.97360000  1.0 -0.5112705692
O  O71  1  0.97360000  0.40701000  0.33891000  1.0 -0.5112705692
O  O72  1  0.33891000  0.97360000  0.40701000  1.0 -0.5112705692
O  O73  1  0.39877000  0.91549000  0.83211000  1.0 -0.483541325
O  O74  1  0.91549000  0.83211000  0.39877000  1.0 -0.483541325
O  O75  1  0.83211000  0.39877000  0.91549000  1.0 -0.483541325
O  O76  1  0.39877000  0.83211000  0.91549000  1.0 -0.483541325
O  O77  1  0.91549000  0.39877000  0.83211000  1.0 -0.4855215403
O  O78  1  0.83211000  0.91549000  0.39877000  1.0 -0.483541325
O  O79  1  0.46672000  0.91514000  0.83252000  1.0 -0.5337161524
O  O80  1  0.91514000  0.83252000  0.46672000  1.0 -0.5337161524
O  O81  1  0.83252000  0.46672000  0.91514000  1.0 -0.5337161524
O  O82  1  0.46672000  0.83252000  0.91514000  1.0 -0.5337161524
O  O83  1  0.91514000  0.46672000  0.83252000  1.0 -0.5337161524
O  O84  1  0.83252000  0.91514000  0.46672000  1.0 -0.5337161524
O  O85  1  0.46646000  0.91695000  0.39819000  1.0 -0.5032366939
O  O86  1  0.91695000  0.39819000  0.46646000  1.0 -0.5032366939
O  O87  1  0.39819000  0.46646000  0.91695000  1.0 -0.5032366939
O  O88  1  0.46646000  0.39819000  0.91695000  1.0 -0.5032366939
O  O89  1  0.91695000  0.46646000  0.39819000  1.0 -0.5032366939
O  O90  1  0.39819000  0.91695000  0.46646000  1.0 -0.5032366939
O  O91  1  0.46743000  0.83229000  0.39955000  1.0 -0.5112705692
O  O92  1  0.83229000  0.39955000  0.46743000  1.0 -0.5112705692
O  O93  1  0.39955000  0.46743000  0.83229000  1.0 -0.5112705692
O  O94  1  0.46743000  0.39955000  0.83229000  1.0 -0.5112705692
O  O95  1  0.83229000  0.46743000  0.39955000  1.0 -0.5112705692
O  O96  1  0.39955000  0.83229000  0.46743000  1.0 -0.5112705692
