# DDEC6 charges by PACMAN v1.1 (https://github.com/mtap-research/PACMAN-charge/)
data_ACUJOZ_ASR_pacman
_symmetry_space_group_name_H-M   'P 1'
_cell_length_a   46.58200000
_cell_length_b   46.58200000
_cell_length_c   21.33200000
_cell_angle_alpha   90.00000000
_cell_angle_beta   90.00000000
_cell_angle_gamma   120.00000000
_symmetry_Int_Tables_number   1
_chemical_formula_structural   CrCu3H16(C12O5)3
_chemical_formula_sum   'Cr18 Cu54 H288 C648 O270'
_cell_volume   40086.53042921
_cell_formula_units_Z   18
loop_
 _symmetry_equiv_pos_site_id
 _symmetry_equiv_pos_as_xyz
  1  'x, y, z'
loop_
 _atom_site_type_symbol
 _atom_site_label
 _atom_site_symmetry_multiplicity
 _atom_site_fract_x
 _atom_site_fract_y
 _atom_site_fract_z
 _atom_site_occupancy
 _atom_site_charge
Cr  Cr1  1  0.61015000  0.40996000  0.17957000  1.0 1.1271769328
Cr  Cr2  1  0.59004000  0.20019000  0.17957000  1.0 1.1211142314
Cr  Cr3  1  0.79981000  0.38985000  0.17957000  1.0 1.1083563042
Cr  Cr4  1  0.38985000  0.59004000  0.82043000  1.0 1.1271769328
Cr  Cr5  1  0.40996000  0.79981000  0.82043000  1.0 1.1083563042
Cr  Cr6  1  0.20019000  0.61015000  0.82043000  1.0 1.1271769328
Cr  Cr7  1  0.27682000  0.74329000  0.51290000  1.0 1.1083563042
Cr  Cr8  1  0.25671000  0.53352000  0.51290000  1.0 1.1271769328
Cr  Cr9  1  0.46648000  0.72318000  0.51290000  1.0 1.1271769328
Cr  Cr10  1  0.05652000  0.92337000  0.15376000  1.0 1.1083563042
Cr  Cr11  1  0.07663000  0.13314000  0.15376000  1.0 1.1083563042
Cr  Cr12  1  0.86686000  0.94348000  0.15376000  1.0 1.1083563042
Cr  Cr13  1  0.94348000  0.07663000  0.84624000  1.0 1.1083563042
Cr  Cr14  1  0.92337000  0.86686000  0.84624000  1.0 1.1271769328
Cr  Cr15  1  0.13314000  0.05652000  0.84624000  1.0 1.1211142314
Cr  Cr16  1  0.72318000  0.25671000  0.48710000  1.0 1.1271769328
Cr  Cr17  1  0.74329000  0.46648000  0.48710000  1.0 1.1083563042
Cr  Cr18  1  0.53352000  0.27682000  0.48710000  1.0 1.1271769328
Cu  Cu1  1  0.76497000  0.73586000  0.49598000  1.0 0.9657062364
Cu  Cu2  1  0.26414000  0.02911000  0.49598000  1.0 0.9657062364
Cu  Cu3  1  0.97089000  0.23503000  0.49598000  1.0 0.9657062364
Cu  Cu4  1  0.23503000  0.26414000  0.50402000  1.0 0.9657062364
Cu  Cu5  1  0.73586000  0.97089000  0.50402000  1.0 0.9657062364
Cu  Cu6  1  0.02911000  0.76497000  0.50402000  1.0 0.9657062364
Cu  Cu7  1  0.43164000  0.06919000  0.82931000  1.0 0.9657062364
Cu  Cu8  1  0.93081000  0.36244000  0.82931000  1.0 0.9657062364
Cu  Cu9  1  0.63756000  0.56836000  0.82931000  1.0 0.9657062364
Cu  Cu10  1  0.90170000  0.59747000  0.83735000  1.0 0.9657062364
Cu  Cu11  1  0.40253000  0.30422000  0.83735000  1.0 0.9657062364
Cu  Cu12  1  0.69578000  0.09830000  0.83735000  1.0 0.9657062364
Cu  Cu13  1  0.09830000  0.40253000  0.16265000  1.0 0.9657062364
Cu  Cu14  1  0.59747000  0.69578000  0.16265000  1.0 0.9657062364
Cu  Cu15  1  0.30422000  0.90170000  0.16265000  1.0 0.9657062364
Cu  Cu16  1  0.56836000  0.93081000  0.17069000  1.0 0.9657062364
Cu  Cu17  1  0.06919000  0.63756000  0.17069000  1.0 0.9657062364
Cu  Cu18  1  0.36244000  0.43164000  0.17069000  1.0 0.9657062364
Cu  Cu19  1  0.73078000  0.76781000  0.47030000  1.0 0.804277765
Cu  Cu20  1  0.23219000  0.96297000  0.47030000  1.0 0.8096170115
Cu  Cu21  1  0.03703000  0.26922000  0.47030000  1.0 0.8158424867
Cu  Cu22  1  0.26922000  0.23219000  0.52970000  1.0 0.8096170115
Cu  Cu23  1  0.76781000  0.03703000  0.52970000  1.0 0.8096170115
Cu  Cu24  1  0.96297000  0.73078000  0.52970000  1.0 0.8096170115
Cu  Cu25  1  0.39745000  0.10114000  0.80363000  1.0 0.8096170115
Cu  Cu26  1  0.89886000  0.29630000  0.80363000  1.0 0.804277765
Cu  Cu27  1  0.70370000  0.60255000  0.80363000  1.0 0.804277765
Cu  Cu28  1  0.93589000  0.56552000  0.86303000  1.0 0.804277765
Cu  Cu29  1  0.43448000  0.37036000  0.86303000  1.0 0.804277765
Cu  Cu30  1  0.62964000  0.06411000  0.86303000  1.0 0.8096170115
Cu  Cu31  1  0.06411000  0.43448000  0.13697000  1.0 0.8158424867
Cu  Cu32  1  0.56552000  0.62964000  0.13697000  1.0 0.804277765
Cu  Cu33  1  0.37036000  0.93589000  0.13697000  1.0 0.8096170115
Cu  Cu34  1  0.60255000  0.89886000  0.19637000  1.0 0.8158424867
Cu  Cu35  1  0.10114000  0.70370000  0.19637000  1.0 0.8158424867
Cu  Cu36  1  0.29630000  0.39745000  0.19637000  1.0 0.8158424867
Cu  Cu37  1  0.57730000  0.44447000  0.15459000  1.0 0.8331111841
Cu  Cu38  1  0.55553000  0.13283000  0.15459000  1.0 0.8331111841
Cu  Cu39  1  0.86717000  0.42270000  0.15459000  1.0 0.8331111841
Cu  Cu40  1  0.42270000  0.55553000  0.84541000  1.0 0.8422900279
Cu  Cu41  1  0.44447000  0.86717000  0.84541000  1.0 0.8422900279
Cu  Cu42  1  0.13283000  0.57730000  0.84541000  1.0 0.8422900279
Cu  Cu43  1  0.24397000  0.77780000  0.48792000  1.0 0.8422900279
Cu  Cu44  1  0.22220000  0.46616000  0.48792000  1.0 0.8422900279
Cu  Cu45  1  0.53384000  0.75603000  0.48792000  1.0 0.8422900279
Cu  Cu46  1  0.08937000  0.88886000  0.17874000  1.0 0.8331111841
Cu  Cu47  1  0.11114000  0.20050000  0.17874000  1.0 0.8422900279
Cu  Cu48  1  0.79950000  0.91063000  0.17874000  1.0 0.8422900279
Cu  Cu49  1  0.91063000  0.11114000  0.82126000  1.0 0.8422900279
Cu  Cu50  1  0.88886000  0.79950000  0.82126000  1.0 0.8331111841
Cu  Cu51  1  0.20050000  0.08937000  0.82126000  1.0 0.8331111841
Cu  Cu52  1  0.75603000  0.22220000  0.51208000  1.0 0.8331111841
Cu  Cu53  1  0.77780000  0.53384000  0.51208000  1.0 0.8331111841
Cu  Cu54  1  0.46616000  0.24397000  0.51208000  1.0 0.8331111841
H  H1  1  0.72121000  0.56829000  0.40076000  1.0 0.1112045817
H  H2  1  0.43171000  0.15292000  0.40076000  1.0 0.1112045817
H  H3  1  0.84708000  0.27879000  0.40076000  1.0 0.1112045817
H  H4  1  0.27879000  0.43171000  0.59924000  1.0 0.1112045817
H  H5  1  0.56829000  0.84708000  0.59924000  1.0 0.1112045817
H  H6  1  0.15292000  0.72121000  0.59924000  1.0 0.1112045817
H  H7  1  0.38788000  0.90162000  0.73409000  1.0 0.1112045817
H  H8  1  0.09838000  0.48625000  0.73409000  1.0 0.1112045817
H  H9  1  0.51375000  0.61212000  0.73409000  1.0 0.1112045817
H  H10  1  0.94546000  0.76504000  0.93257000  1.0 0.1112045817
H  H11  1  0.23496000  0.18041000  0.93257000  1.0 0.1112045817
H  H12  1  0.81959000  0.05454000  0.93257000  1.0 0.1112045817
H  H13  1  0.05454000  0.23496000  0.06743000  1.0 0.1112045817
H  H14  1  0.76504000  0.81959000  0.06743000  1.0 0.1112045817
H  H15  1  0.18041000  0.94546000  0.06743000  1.0 0.1112045817
H  H16  1  0.61212000  0.09838000  0.26591000  1.0 0.1112045817
H  H17  1  0.90162000  0.51375000  0.26591000  1.0 0.1112045817
H  H18  1  0.48625000  0.38788000  0.26591000  1.0 0.1112045817
H  H19  1  0.67681000  0.46608000  0.33271000  1.0 0.1112045817
H  H20  1  0.53392000  0.21073000  0.33271000  1.0 0.1112045817
H  H21  1  0.78927000  0.32319000  0.33271000  1.0 0.1112045817
H  H22  1  0.32319000  0.53392000  0.66729000  1.0 0.1112045817
H  H23  1  0.46608000  0.78927000  0.66729000  1.0 0.1112045817
H  H24  1  0.21073000  0.67681000  0.66729000  1.0 0.1112045817
H  H25  1  0.34348000  0.79941000  0.66604000  1.0 0.1112045817
H  H26  1  0.20059000  0.54406000  0.66604000  1.0 0.1112045817
H  H27  1  0.45594000  0.65652000  0.66604000  1.0 0.1112045817
H  H28  1  0.98986000  0.86725000  0.00062000  1.0 0.1112045817
H  H29  1  0.13275000  0.12260000  0.00062000  1.0 0.1112045817
H  H30  1  0.87740000  0.01014000  0.00062000  1.0 0.1112045817
H  H31  1  0.01014000  0.13275000  0.99938000  1.0 0.1112045817
H  H32  1  0.86725000  0.87740000  0.99938000  1.0 0.1112045817
H  H33  1  0.12260000  0.98986000  0.99938000  1.0 0.1112045817
H  H34  1  0.65652000  0.20059000  0.33396000  1.0 0.1112045817
H  H35  1  0.79941000  0.45594000  0.33396000  1.0 0.1112045817
H  H36  1  0.54406000  0.34348000  0.33396000  1.0 0.1112045817
H  H37  1  0.64345000  0.53198000  0.25750000  1.0 0.1112045817
H  H38  1  0.46802000  0.11147000  0.25750000  1.0 0.1112045817
H  H39  1  0.88853000  0.35655000  0.25750000  1.0 0.1112045817
H  H40  1  0.35655000  0.46802000  0.74250000  1.0 0.1112045817
H  H41  1  0.53198000  0.88853000  0.74250000  1.0 0.1112045817
H  H42  1  0.11147000  0.64345000  0.74250000  1.0 0.1112045817
H  H43  1  0.31012000  0.86531000  0.59083000  1.0 0.1112045817
H  H44  1  0.13469000  0.44480000  0.59083000  1.0 0.1112045817
H  H45  1  0.55520000  0.68988000  0.59083000  1.0 0.1112045817
H  H46  1  0.02322000  0.80135000  0.07583000  1.0 0.1112045817
H  H47  1  0.19865000  0.22186000  0.07583000  1.0 0.1112045817
H  H48  1  0.77814000  0.97678000  0.07583000  1.0 0.1112045817
H  H49  1  0.97678000  0.19865000  0.92417000  1.0 0.1112045817
H  H50  1  0.80135000  0.77814000  0.92417000  1.0 0.1112045817
H  H51  1  0.22186000  0.02322000  0.92417000  1.0 0.1112045817
H  H52  1  0.68988000  0.13469000  0.40917000  1.0 0.1112045817
H  H53  1  0.86531000  0.55520000  0.40917000  1.0 0.1112045817
H  H54  1  0.44480000  0.31012000  0.40917000  1.0 0.1112045817
H  H55  1  0.66856000  0.70693000  0.30610000  1.0 0.1278647873
H  H56  1  0.29307000  0.96163000  0.30610000  1.0 0.1278647873
H  H57  1  0.03837000  0.33144000  0.30610000  1.0 0.1278647873
H  H58  1  0.33144000  0.29307000  0.69390000  1.0 0.1278647873
H  H59  1  0.70693000  0.03837000  0.69390000  1.0 0.1278647873
H  H60  1  0.96163000  0.66856000  0.69390000  1.0 0.1278647873
H  H61  1  0.33523000  0.04026000  0.63943000  1.0 0.1278647873
H  H62  1  0.95974000  0.29496000  0.63943000  1.0 0.1278647873
H  H63  1  0.70504000  0.66477000  0.63943000  1.0 0.1278647873
H  H64  1  0.99811000  0.62640000  0.02723000  1.0 0.1278647873
H  H65  1  0.37360000  0.37170000  0.02723000  1.0 0.1278647873
H  H66  1  0.62830000  0.00189000  0.02723000  1.0 0.1278647873
H  H67  1  0.00189000  0.37360000  0.97277000  1.0 0.1278647873
H  H68  1  0.62640000  0.62830000  0.97277000  1.0 0.1278647873
H  H69  1  0.37170000  0.99811000  0.97277000  1.0 0.1278647873
H  H70  1  0.66477000  0.95974000  0.36057000  1.0 0.1278647873
H  H71  1  0.04026000  0.70504000  0.36057000  1.0 0.1278647873
H  H72  1  0.29496000  0.33523000  0.36057000  1.0 0.1278647873
H  H73  1  0.63210000  0.60572000  0.23823000  1.0 0.1112045817
H  H74  1  0.39428000  0.02638000  0.23823000  1.0 0.1112045817
H  H75  1  0.97362000  0.36790000  0.23823000  1.0 0.1112045817
H  H76  1  0.36790000  0.39428000  0.76177000  1.0 0.1112045817
H  H77  1  0.60572000  0.97362000  0.76177000  1.0 0.1112045817
H  H78  1  0.02638000  0.63210000  0.76177000  1.0 0.1112045817
H  H79  1  0.29877000  0.93905000  0.57156000  1.0 0.1112045817
H  H80  1  0.06095000  0.35971000  0.57156000  1.0 0.1112045817
H  H81  1  0.64029000  0.70123000  0.57156000  1.0 0.1112045817
H  H82  1  0.03457000  0.72761000  0.09510000  1.0 0.1112045817
H  H83  1  0.27239000  0.30695000  0.09510000  1.0 0.1112045817
H  H84  1  0.69305000  0.96543000  0.09510000  1.0 0.1112045817
H  H85  1  0.96543000  0.27239000  0.90490000  1.0 0.1112045817
H  H86  1  0.72761000  0.69305000  0.90490000  1.0 0.1112045817
H  H87  1  0.30695000  0.03457000  0.90490000  1.0 0.1112045817
H  H88  1  0.70123000  0.06095000  0.42844000  1.0 0.1112045817
H  H89  1  0.93905000  0.64029000  0.42844000  1.0 0.1112045817
H  H90  1  0.35971000  0.29877000  0.42844000  1.0 0.1112045817
H  H91  1  0.71466000  0.64301000  0.36260000  1.0 0.1010558448
H  H92  1  0.35699000  0.07165000  0.36260000  1.0 0.1010558448
H  H93  1  0.92835000  0.28534000  0.36260000  1.0 0.1010558448
H  H94  1  0.28534000  0.35699000  0.63740000  1.0 0.1010558448
H  H95  1  0.64301000  0.92835000  0.63740000  1.0 0.1010558448
H  H96  1  0.07165000  0.71466000  0.63740000  1.0 0.1010558448
H  H97  1  0.38133000  0.97634000  0.69593000  1.0 0.1010558448
H  H98  1  0.02366000  0.40498000  0.69593000  1.0 0.1010558448
H  H99  1  0.59502000  0.61867000  0.69593000  1.0 0.1010558448
H  H100  1  0.95201000  0.69032000  0.97073000  1.0 0.1010558448
H  H101  1  0.30968000  0.26168000  0.97073000  1.0 0.1010558448
H  H102  1  0.73832000  0.04799000  0.97073000  1.0 0.1010558448
H  H103  1  0.04799000  0.30968000  0.02927000  1.0 0.1010558448
H  H104  1  0.69032000  0.73832000  0.02927000  1.0 0.1010558448
H  H105  1  0.26168000  0.95201000  0.02927000  1.0 0.1010558448
H  H106  1  0.61867000  0.02366000  0.30407000  1.0 0.1010558448
H  H107  1  0.97634000  0.59502000  0.30407000  1.0 0.1010558448
H  H108  1  0.40498000  0.38133000  0.30407000  1.0 0.1010558448
H  H109  1  0.87271000  0.90040000  0.71224000  1.0 0.1112045817
H  H110  1  0.09960000  0.97231000  0.71224000  1.0 0.1112045817
H  H111  1  0.02769000  0.12729000  0.71224000  1.0 0.1112045817
H  H112  1  0.12729000  0.09960000  0.28776000  1.0 0.1112045817
H  H113  1  0.90040000  0.02769000  0.28776000  1.0 0.1112045817
H  H114  1  0.97231000  0.87271000  0.28776000  1.0 0.1112045817
H  H115  1  0.53938000  0.23373000  0.04557000  1.0 0.1112045817
H  H116  1  0.76627000  0.30564000  0.04557000  1.0 0.1112045817
H  H117  1  0.69436000  0.46062000  0.04557000  1.0 0.1112045817
H  H118  1  0.79396000  0.43293000  0.62109000  1.0 0.1112045817
H  H119  1  0.56707000  0.36102000  0.62109000  1.0 0.1112045817
H  H120  1  0.63898000  0.20604000  0.62109000  1.0 0.1112045817
H  H121  1  0.20604000  0.56707000  0.37891000  1.0 0.1112045817
H  H122  1  0.43293000  0.63898000  0.37891000  1.0 0.1112045817
H  H123  1  0.36102000  0.79396000  0.37891000  1.0 0.1112045817
H  H124  1  0.46062000  0.76627000  0.95443000  1.0 0.1112045817
H  H125  1  0.23373000  0.69436000  0.95443000  1.0 0.1112045817
H  H126  1  0.30564000  0.53938000  0.95443000  1.0 0.1112045817
H  H127  1  0.77634000  0.84344000  0.60929000  1.0 0.1112045817
H  H128  1  0.15656000  0.93290000  0.60929000  1.0 0.1112045817
H  H129  1  0.06710000  0.22366000  0.60929000  1.0 0.1112045817
H  H130  1  0.22366000  0.15656000  0.39071000  1.0 0.1112045817
H  H131  1  0.84344000  0.06710000  0.39071000  1.0 0.1112045817
H  H132  1  0.93290000  0.77634000  0.39071000  1.0 0.1112045817
H  H133  1  0.44301000  0.17677000  0.94262000  1.0 0.1112045817
H  H134  1  0.82323000  0.26623000  0.94262000  1.0 0.1112045817
H  H135  1  0.73377000  0.55699000  0.94262000  1.0 0.1112045817
H  H136  1  0.89033000  0.48989000  0.72404000  1.0 0.1112045817
H  H137  1  0.51011000  0.40043000  0.72404000  1.0 0.1112045817
H  H138  1  0.59957000  0.10967000  0.72404000  1.0 0.1112045817
H  H139  1  0.10967000  0.51011000  0.27596000  1.0 0.1112045817
H  H140  1  0.48989000  0.59957000  0.27596000  1.0 0.1112045817
H  H141  1  0.40043000  0.89033000  0.27596000  1.0 0.1112045817
H  H142  1  0.55699000  0.82323000  0.05738000  1.0 0.1112045817
H  H143  1  0.17677000  0.73377000  0.05738000  1.0 0.1112045817
H  H144  1  0.26623000  0.44301000  0.05738000  1.0 0.1112045817
H  H145  1  0.81660000  0.78781000  0.66258000  1.0 0.1278647873
H  H146  1  0.21219000  0.02879000  0.66258000  1.0 0.1278647873
H  H147  1  0.97121000  0.18340000  0.66258000  1.0 0.1278647873
H  H148  1  0.18340000  0.21219000  0.33742000  1.0 0.1278647873
H  H149  1  0.78781000  0.97121000  0.33742000  1.0 0.1278647873
H  H150  1  0.02879000  0.81660000  0.33742000  1.0 0.1278647873
H  H151  1  0.48327000  0.12114000  0.99591000  1.0 0.1278647873
H  H152  1  0.87886000  0.36212000  0.99591000  1.0 0.1278647873
H  H153  1  0.63788000  0.51673000  0.99591000  1.0 0.1278647873
H  H154  1  0.85007000  0.54552000  0.67075000  1.0 0.1278647873
H  H155  1  0.45448000  0.30454000  0.67075000  1.0 0.1278647873
H  H156  1  0.69546000  0.14993000  0.67075000  1.0 0.1278647873
H  H157  1  0.14993000  0.45448000  0.32925000  1.0 0.1278647873
H  H158  1  0.54552000  0.69546000  0.32925000  1.0 0.1278647873
H  H159  1  0.30454000  0.85007000  0.32925000  1.0 0.1278647873
H  H160  1  0.51673000  0.87886000  0.00409000  1.0 0.1278647873
H  H161  1  0.12114000  0.63788000  0.00409000  1.0 0.1278647873
H  H162  1  0.36212000  0.48327000  0.00409000  1.0 0.1278647873
H  H163  1  0.54782000  0.32034000  0.08812000  1.0 0.1112045817
H  H164  1  0.67966000  0.22748000  0.08812000  1.0 0.1112045817
H  H165  1  0.77252000  0.45218000  0.08812000  1.0 0.1112045817
H  H166  1  0.45218000  0.67966000  0.91188000  1.0 0.1112045817
H  H167  1  0.32034000  0.77252000  0.91188000  1.0 0.1112045817
H  H168  1  0.22748000  0.54782000  0.91188000  1.0 0.1112045817
H  H169  1  0.21449000  0.65367000  0.42145000  1.0 0.1112045817
H  H170  1  0.34633000  0.56081000  0.42145000  1.0 0.1112045817
H  H171  1  0.43919000  0.78551000  0.42145000  1.0 0.1112045817
H  H172  1  0.11885000  0.01299000  0.24521000  1.0 0.1112045817
H  H173  1  0.98701000  0.10585000  0.24521000  1.0 0.1112045817
H  H174  1  0.89415000  0.88115000  0.24521000  1.0 0.1112045817
H  H175  1  0.88115000  0.98701000  0.75479000  1.0 0.1112045817
H  H176  1  0.01299000  0.89415000  0.75479000  1.0 0.1112045817
H  H177  1  0.10585000  0.11885000  0.75479000  1.0 0.1112045817
H  H178  1  0.78551000  0.34633000  0.57855000  1.0 0.1112045817
H  H179  1  0.65367000  0.43919000  0.57855000  1.0 0.1112045817
H  H180  1  0.56081000  0.21449000  0.57855000  1.0 0.1112045817
H  H181  1  0.50578000  0.37923000  0.01168000  1.0 0.1112045817
H  H182  1  0.62077000  0.12655000  0.01168000  1.0 0.1112045817
H  H183  1  0.87345000  0.49422000  0.01168000  1.0 0.1112045817
H  H184  1  0.49422000  0.62077000  0.98832000  1.0 0.1112045817
H  H185  1  0.37923000  0.87345000  0.98832000  1.0 0.1112045817
H  H186  1  0.12655000  0.50578000  0.98832000  1.0 0.1112045817
H  H187  1  0.17245000  0.71256000  0.34501000  1.0 0.1112045817
H  H188  1  0.28744000  0.45988000  0.34501000  1.0 0.1112045817
H  H189  1  0.54012000  0.82755000  0.34501000  1.0 0.1112045817
H  H190  1  0.16089000  0.95410000  0.32165000  1.0 0.1112045817
H  H191  1  0.04590000  0.20678000  0.32165000  1.0 0.1112045817
H  H192  1  0.79322000  0.83911000  0.32165000  1.0 0.1112045817
H  H193  1  0.83911000  0.04590000  0.67835000  1.0 0.1112045817
H  H194  1  0.95410000  0.79322000  0.67835000  1.0 0.1112045817
H  H195  1  0.20678000  0.16089000  0.67835000  1.0 0.1112045817
H  H196  1  0.82755000  0.28744000  0.65499000  1.0 0.1112045817
H  H197  1  0.71256000  0.54012000  0.65499000  1.0 0.1112045817
H  H198  1  0.45988000  0.17245000  0.65499000  1.0 0.1112045817
H  H199  1  0.47853000  0.28381000  0.91491000  1.0 0.1112045817
H  H200  1  0.71619000  0.19472000  0.91491000  1.0 0.1112045817
H  H201  1  0.80528000  0.52147000  0.91491000  1.0 0.1112045817
H  H202  1  0.52147000  0.71619000  0.08509000  1.0 0.1112045817
H  H203  1  0.28381000  0.80528000  0.08509000  1.0 0.1112045817
H  H204  1  0.19472000  0.47853000  0.08509000  1.0 0.1112045817
H  H205  1  0.14520000  0.61714000  0.24824000  1.0 0.1112045817
H  H206  1  0.38286000  0.52805000  0.24824000  1.0 0.1112045817
H  H207  1  0.47195000  0.85480000  0.24824000  1.0 0.1112045817
H  H208  1  0.18814000  0.04952000  0.41842000  1.0 0.1112045817
H  H209  1  0.95048000  0.13861000  0.41842000  1.0 0.1112045817
H  H210  1  0.86139000  0.81186000  0.41842000  1.0 0.1112045817
H  H211  1  0.81186000  0.95048000  0.58158000  1.0 0.1112045817
H  H212  1  0.04952000  0.86139000  0.58158000  1.0 0.1112045817
H  H213  1  0.13861000  0.18814000  0.58158000  1.0 0.1112045817
H  H214  1  0.85480000  0.38286000  0.75176000  1.0 0.1112045817
H  H215  1  0.61714000  0.47195000  0.75176000  1.0 0.1112045817
H  H216  1  0.52805000  0.14520000  0.75176000  1.0 0.1112045817
H  H217  1  0.53011000  0.26641000  0.05868000  1.0 0.093115511
H  H218  1  0.73359000  0.26370000  0.05868000  1.0 0.093115511
H  H219  1  0.73630000  0.46989000  0.05868000  1.0 0.093115511
H  H220  1  0.46989000  0.73359000  0.94132000  1.0 0.093115511
H  H221  1  0.26641000  0.73630000  0.94132000  1.0 0.093115511
H  H222  1  0.26370000  0.53011000  0.94132000  1.0 0.093115511
H  H223  1  0.19678000  0.59974000  0.39201000  1.0 0.093115511
H  H224  1  0.40026000  0.59703000  0.39201000  1.0 0.093115511
H  H225  1  0.40297000  0.80322000  0.39201000  1.0 0.093115511
H  H226  1  0.13656000  0.06692000  0.27465000  1.0 0.093115511
H  H227  1  0.93308000  0.06963000  0.27465000  1.0 0.093115511
H  H228  1  0.93037000  0.86344000  0.27465000  1.0 0.093115511
H  H229  1  0.86344000  0.93308000  0.72535000  1.0 0.093115511
H  H230  1  0.06692000  0.93037000  0.72535000  1.0 0.093115511
H  H231  1  0.06963000  0.13656000  0.72535000  1.0 0.093115511
H  H232  1  0.80322000  0.40026000  0.60799000  1.0 0.093115511
H  H233  1  0.59974000  0.40297000  0.60799000  1.0 0.093115511
H  H234  1  0.59703000  0.19678000  0.60799000  1.0 0.093115511
H  H235  1  0.70949000  0.60621000  0.37197000  1.0 0.093115511
H  H236  1  0.39379000  0.10328000  0.37197000  1.0 0.093115511
H  H237  1  0.89672000  0.29051000  0.37197000  1.0 0.093115511
H  H238  1  0.29051000  0.39379000  0.62803000  1.0 0.093115511
H  H239  1  0.60621000  0.89672000  0.62803000  1.0 0.093115511
H  H240  1  0.10328000  0.70949000  0.62803000  1.0 0.093115511
H  H241  1  0.37616000  0.93954000  0.70530000  1.0 0.093115511
H  H242  1  0.06046000  0.43661000  0.70530000  1.0 0.093115511
H  H243  1  0.56339000  0.62384000  0.70530000  1.0 0.093115511
H  H244  1  0.95718000  0.72712000  0.96136000  1.0 0.093115511
H  H245  1  0.27288000  0.23005000  0.96136000  1.0 0.093115511
H  H246  1  0.76995000  0.04282000  0.96136000  1.0 0.093115511
H  H247  1  0.04282000  0.27288000  0.03864000  1.0 0.093115511
H  H248  1  0.72712000  0.76995000  0.03864000  1.0 0.093115511
H  H249  1  0.23005000  0.95718000  0.03864000  1.0 0.093115511
H  H250  1  0.62384000  0.06046000  0.29470000  1.0 0.093115511
H  H251  1  0.93954000  0.56339000  0.29470000  1.0 0.093115511
H  H252  1  0.43661000  0.37616000  0.29470000  1.0 0.093115511
H  H253  1  0.65534000  0.57417000  0.26012000  1.0 0.093115511
H  H254  1  0.42583000  0.08117000  0.26012000  1.0 0.093115511
H  H255  1  0.91883000  0.34466000  0.26012000  1.0 0.093115511
H  H256  1  0.34466000  0.42583000  0.73988000  1.0 0.093115511
H  H257  1  0.57417000  0.91883000  0.73988000  1.0 0.093115511
H  H258  1  0.08117000  0.65534000  0.73988000  1.0 0.093115511
H  H259  1  0.32201000  0.90750000  0.59345000  1.0 0.093115511
H  H260  1  0.09250000  0.41450000  0.59345000  1.0 0.093115511
H  H261  1  0.58550000  0.67799000  0.59345000  1.0 0.093115511
H  H262  1  0.01133000  0.75916000  0.07321000  1.0 0.093115511
H  H263  1  0.24084000  0.25216000  0.07321000  1.0 0.093115511
H  H264  1  0.74784000  0.98867000  0.07321000  1.0 0.093115511
H  H265  1  0.98867000  0.24084000  0.92679000  1.0 0.093115511
H  H266  1  0.75916000  0.74784000  0.92679000  1.0 0.093115511
H  H267  1  0.25216000  0.01133000  0.92679000  1.0 0.093115511
H  H268  1  0.67799000  0.09250000  0.40655000  1.0 0.093115511
H  H269  1  0.90750000  0.58550000  0.40655000  1.0 0.093115511
H  H270  1  0.41450000  0.32201000  0.40655000  1.0 0.093115511
H  H271  1  0.80664000  0.91287000  0.61311000  1.0 0.093115511
H  H272  1  0.08713000  0.89377000  0.61311000  1.0 0.093115511
H  H273  1  0.10623000  0.19336000  0.61311000  1.0 0.093115511
H  H274  1  0.19336000  0.08713000  0.38689000  1.0 0.093115511
H  H275  1  0.91287000  0.10623000  0.38689000  1.0 0.093115511
H  H276  1  0.89377000  0.80664000  0.38689000  1.0 0.093115511
H  H277  1  0.47331000  0.24620000  0.94644000  1.0 0.093115511
H  H278  1  0.75380000  0.22710000  0.94644000  1.0 0.093115511
H  H279  1  0.77290000  0.52669000  0.94644000  1.0 0.093115511
H  H280  1  0.86003000  0.42046000  0.72022000  1.0 0.093115511
H  H281  1  0.57954000  0.43956000  0.72022000  1.0 0.093115511
H  H282  1  0.56044000  0.13997000  0.72022000  1.0 0.093115511
H  H283  1  0.13997000  0.57954000  0.27978000  1.0 0.093115511
H  H284  1  0.42046000  0.56044000  0.27978000  1.0 0.093115511
H  H285  1  0.43956000  0.86003000  0.27978000  1.0 0.093115511
H  H286  1  0.52669000  0.75380000  0.05356000  1.0 0.093115511
H  H287  1  0.24620000  0.77290000  0.05356000  1.0 0.093115511
H  H288  1  0.22710000  0.47331000  0.05356000  1.0 0.093115511
C  C1  1  0.68252000  0.55290000  0.32900000  1.0 0.1010558448
C  C2  1  0.44710000  0.12962000  0.32900000  1.0 0.1010558448
C  C3  1  0.87038000  0.31748000  0.32900000  1.0 0.1010558448
C  C4  1  0.31748000  0.44710000  0.67100000  1.0 0.1010558448
C  C5  1  0.55290000  0.87038000  0.67100000  1.0 0.1010558448
C  C6  1  0.12962000  0.68252000  0.67100000  1.0 0.1010558448
C  C7  1  0.34919000  0.88623000  0.66233000  1.0 0.1010558448
C  C8  1  0.11377000  0.46295000  0.66233000  1.0 0.1010558448
C  C9  1  0.53705000  0.65081000  0.66233000  1.0 0.1010558448
C  C10  1  0.98415000  0.78043000  0.00433000  1.0 0.1010558448
C  C11  1  0.21957000  0.20371000  0.00433000  1.0 0.1010558448
C  C12  1  0.79629000  0.01585000  0.00433000  1.0 0.1010558448
C  C13  1  0.01585000  0.21957000  0.99567000  1.0 0.1010558448
C  C14  1  0.78043000  0.79629000  0.99567000  1.0 0.1010558448
C  C15  1  0.20371000  0.98415000  0.99567000  1.0 0.1010558448
C  C16  1  0.65081000  0.11377000  0.33767000  1.0 0.1010558448
C  C17  1  0.88623000  0.53705000  0.33767000  1.0 0.1010558448
C  C18  1  0.46295000  0.34919000  0.33767000  1.0 0.1010558448
C  C19  1  0.70288000  0.54749000  0.36900000  1.0 -0.1293959742
C  C20  1  0.45251000  0.15539000  0.36900000  1.0 -0.1293959742
C  C21  1  0.84461000  0.29712000  0.36900000  1.0 -0.1293959742
C  C22  1  0.29712000  0.45251000  0.63100000  1.0 -0.1293959742
C  C23  1  0.54749000  0.84461000  0.63100000  1.0 -0.1293959742
C  C24  1  0.15539000  0.70288000  0.63100000  1.0 -0.1293959742
C  C25  1  0.36955000  0.88082000  0.70233000  1.0 -0.1293959742
C  C26  1  0.11918000  0.48872000  0.70233000  1.0 -0.1293959742
C  C27  1  0.51128000  0.63045000  0.70233000  1.0 -0.1410104858
C  C28  1  0.96379000  0.78584000  0.96433000  1.0 -0.1410104858
C  C29  1  0.21416000  0.17794000  0.96433000  1.0 -0.1410104858
C  C30  1  0.82206000  0.03621000  0.96433000  1.0 -0.1410104858
C  C31  1  0.03621000  0.21416000  0.03567000  1.0 -0.1293959742
C  C32  1  0.78584000  0.82206000  0.03567000  1.0 -0.1410104858
C  C33  1  0.17794000  0.96379000  0.03567000  1.0 -0.1410104858
C  C34  1  0.63045000  0.11918000  0.29767000  1.0 -0.1410104858
C  C35  1  0.88082000  0.51128000  0.29767000  1.0 -0.1410104858
C  C36  1  0.48872000  0.36955000  0.29767000  1.0 -0.1410104858
C  C37  1  0.70090000  0.51671000  0.37030000  1.0 0.1010558448
C  C38  1  0.48329000  0.18419000  0.37030000  1.0 0.1010558448
C  C39  1  0.81581000  0.29910000  0.37030000  1.0 0.1010558448
C  C40  1  0.29910000  0.48329000  0.62970000  1.0 0.1010558448
C  C41  1  0.51671000  0.81581000  0.62970000  1.0 0.1010558448
C  C42  1  0.18419000  0.70090000  0.62970000  1.0 0.1010558448
C  C43  1  0.36757000  0.85004000  0.70363000  1.0 0.1010558448
C  C44  1  0.14996000  0.51752000  0.70363000  1.0 0.1010558448
C  C45  1  0.48248000  0.63243000  0.70363000  1.0 0.1010558448
C  C46  1  0.96577000  0.81662000  0.96303000  1.0 0.1010558448
C  C47  1  0.18338000  0.14914000  0.96303000  1.0 0.1010558448
C  C48  1  0.85086000  0.03423000  0.96303000  1.0 0.1010558448
C  C49  1  0.03423000  0.18338000  0.03697000  1.0 0.1010558448
C  C50  1  0.81662000  0.85086000  0.03697000  1.0 0.1010558448
C  C51  1  0.14914000  0.96577000  0.03697000  1.0 0.1010558448
C  C52  1  0.63243000  0.14996000  0.29637000  1.0 0.1010558448
C  C53  1  0.85004000  0.48248000  0.29637000  1.0 0.1010558448
C  C54  1  0.51752000  0.36757000  0.29637000  1.0 0.1010558448
C  C55  1  0.67850000  0.49135000  0.33160000  1.0 -0.1195741367
C  C56  1  0.50865000  0.18715000  0.33160000  1.0 -0.1195741367
C  C57  1  0.81285000  0.32150000  0.33160000  1.0 -0.1195741367
C  C58  1  0.32150000  0.50865000  0.66840000  1.0 -0.1195741367
C  C59  1  0.49135000  0.81285000  0.66840000  1.0 -0.1195741367
C  C60  1  0.18715000  0.67850000  0.66840000  1.0 -0.1293959742
C  C61  1  0.34517000  0.82468000  0.66493000  1.0 -0.1195741367
C  C62  1  0.17532000  0.52048000  0.66493000  1.0 -0.1195741367
C  C63  1  0.47952000  0.65483000  0.66493000  1.0 -0.1293959742
C  C64  1  0.98817000  0.84198000  0.00173000  1.0 -0.1195741367
C  C65  1  0.15802000  0.14618000  0.00173000  1.0 -0.1195741367
C  C66  1  0.85382000  0.01183000  0.00173000  1.0 -0.1195741367
C  C67  1  0.01183000  0.15802000  0.99827000  1.0 -0.1293959742
C  C68  1  0.84198000  0.85382000  0.99827000  1.0 -0.1293959742
C  C69  1  0.14618000  0.98817000  0.99827000  1.0 -0.1293959742
C  C70  1  0.65483000  0.17532000  0.33507000  1.0 -0.1293959742
C  C71  1  0.82468000  0.47952000  0.33507000  1.0 -0.1195741367
C  C72  1  0.52048000  0.34517000  0.33507000  1.0 -0.1293959742
C  C73  1  0.65818000  0.49676000  0.29160000  1.0 -0.019705625
C  C74  1  0.50324000  0.16142000  0.29160000  1.0 -0.019705625
C  C75  1  0.83858000  0.34182000  0.29160000  1.0 -0.019705625
C  C76  1  0.34182000  0.50324000  0.70840000  1.0 -0.019705625
C  C77  1  0.49676000  0.83858000  0.70840000  1.0 -0.019705625
C  C78  1  0.16142000  0.65818000  0.70840000  1.0 -0.019705625
C  C79  1  0.32485000  0.83009000  0.62493000  1.0 -0.019705625
C  C80  1  0.16991000  0.49475000  0.62493000  1.0 -0.019705625
C  C81  1  0.50525000  0.67515000  0.62493000  1.0 -0.019705625
C  C82  1  0.00849000  0.83657000  0.04173000  1.0 -0.019705625
C  C83  1  0.16343000  0.17191000  0.04173000  1.0 -0.019705625
C  C84  1  0.82809000  0.99151000  0.04173000  1.0 -0.019705625
C  C85  1  0.99151000  0.16343000  0.95827000  1.0 -0.019705625
C  C86  1  0.83657000  0.82809000  0.95827000  1.0 -0.019705625
C  C87  1  0.17191000  0.00849000  0.95827000  1.0 -0.019705625
C  C88  1  0.67515000  0.16991000  0.37507000  1.0 -0.019705625
C  C89  1  0.83009000  0.50525000  0.37507000  1.0 -0.019705625
C  C90  1  0.49475000  0.32485000  0.37507000  1.0 -0.019705625
C  C91  1  0.66016000  0.52754000  0.29030000  1.0 -0.1129250602
C  C92  1  0.47246000  0.13262000  0.29030000  1.0 -0.1129250602
C  C93  1  0.86738000  0.33984000  0.29030000  1.0 -0.1129250602
C  C94  1  0.33984000  0.47246000  0.70970000  1.0 -0.1129250602
C  C95  1  0.52754000  0.86738000  0.70970000  1.0 -0.1129250602
C  C96  1  0.13262000  0.66016000  0.70970000  1.0 -0.1129250602
C  C97  1  0.32683000  0.86087000  0.62363000  1.0 -0.1129250602
C  C98  1  0.13913000  0.46595000  0.62363000  1.0 -0.1129250602
C  C99  1  0.53405000  0.67317000  0.62363000  1.0 -0.1129250602
C  C100  1  0.00651000  0.80579000  0.04303000  1.0 -0.1129250602
C  C101  1  0.19421000  0.20071000  0.04303000  1.0 -0.1129250602
C  C102  1  0.79929000  0.99349000  0.04303000  1.0 -0.1129250602
C  C103  1  0.99349000  0.19421000  0.95697000  1.0 -0.1129250602
C  C104  1  0.80579000  0.79929000  0.95697000  1.0 -0.1129250602
C  C105  1  0.20071000  0.00651000  0.95697000  1.0 -0.1129250602
C  C106  1  0.67317000  0.13913000  0.37637000  1.0 -0.1129250602
C  C107  1  0.86087000  0.53405000  0.37637000  1.0 -0.1129250602
C  C108  1  0.46595000  0.32683000  0.37637000  1.0 -0.1129250602
C  C109  1  0.66721000  0.68182000  0.30780000  1.0 -0.087574397
C  C110  1  0.31818000  0.98539000  0.30780000  1.0 -0.087574397
C  C111  1  0.01461000  0.33279000  0.30780000  1.0 -0.087574397
C  C112  1  0.33279000  0.31818000  0.69220000  1.0 -0.087574397
C  C113  1  0.68182000  0.01461000  0.69220000  1.0 -0.0816806557
C  C114  1  0.98539000  0.66721000  0.69220000  1.0 -0.087574397
C  C115  1  0.33388000  0.01515000  0.64113000  1.0 -0.0816806557
C  C116  1  0.98485000  0.31872000  0.64113000  1.0 -0.0816806557
C  C117  1  0.68128000  0.66612000  0.64113000  1.0 -0.0816806557
C  C118  1  0.99946000  0.65151000  0.02553000  1.0 -0.0816806557
C  C119  1  0.34849000  0.34794000  0.02553000  1.0 -0.087574397
C  C120  1  0.65206000  0.00054000  0.02553000  1.0 -0.087574397
C  C121  1  0.00054000  0.34849000  0.97447000  1.0 -0.087574397
C  C122  1  0.65151000  0.65206000  0.97447000  1.0 -0.087574397
C  C123  1  0.34794000  0.99946000  0.97447000  1.0 -0.0816806557
C  C124  1  0.66612000  0.98485000  0.35887000  1.0 -0.0816806557
C  C125  1  0.01515000  0.68128000  0.35887000  1.0 -0.0816806557
C  C126  1  0.31872000  0.33388000  0.35887000  1.0 -0.087574397
C  C127  1  0.64215000  0.65376000  0.26940000  1.0 0.0226634704
C  C128  1  0.34624000  0.98839000  0.26940000  1.0 0.0226634704
C  C129  1  0.01161000  0.35785000  0.26940000  1.0 0.0226634704
C  C130  1  0.35785000  0.34624000  0.73060000  1.0 0.0226634704
C  C131  1  0.65376000  0.01161000  0.73060000  1.0 0.0226634704
C  C132  1  0.98839000  0.64215000  0.73060000  1.0 0.0226634704
C  C133  1  0.30882000  0.98709000  0.60273000  1.0 0.0226634704
C  C134  1  0.01291000  0.32172000  0.60273000  1.0 0.0226634704
C  C135  1  0.67828000  0.69118000  0.60273000  1.0 0.0226634704
C  C136  1  0.02452000  0.67957000  0.06393000  1.0 0.0226634704
C  C137  1  0.32043000  0.34494000  0.06393000  1.0 0.0226634704
C  C138  1  0.65506000  0.97548000  0.06393000  1.0 0.0226634704
C  C139  1  0.97548000  0.32043000  0.93607000  1.0 0.0226634704
C  C140  1  0.67957000  0.65506000  0.93607000  1.0 0.0226634704
C  C141  1  0.34494000  0.02452000  0.93607000  1.0 0.0226634704
C  C142  1  0.69118000  0.01291000  0.39727000  1.0 0.0226634704
C  C143  1  0.98709000  0.67828000  0.39727000  1.0 0.0226634704
C  C144  1  0.32172000  0.30882000  0.39727000  1.0 0.0226634704
C  C145  1  0.64524000  0.62673000  0.27350000  1.0 -0.1410104858
C  C146  1  0.37327000  0.01851000  0.27350000  1.0 -0.1410104858
C  C147  1  0.98149000  0.35476000  0.27350000  1.0 -0.1410104858
C  C148  1  0.35476000  0.37327000  0.72650000  1.0 -0.1410104858
C  C149  1  0.62673000  0.98149000  0.72650000  1.0 -0.1410104858
C  C150  1  0.01851000  0.64524000  0.72650000  1.0 -0.1410104858
C  C151  1  0.31191000  0.96006000  0.60683000  1.0 -0.1410104858
C  C152  1  0.03994000  0.35184000  0.60683000  1.0 -0.1410104858
C  C153  1  0.64816000  0.68809000  0.60683000  1.0 -0.1410104858
C  C154  1  0.02143000  0.70660000  0.05983000  1.0 -0.1410104858
C  C155  1  0.29340000  0.31482000  0.05983000  1.0 -0.1410104858
C  C156  1  0.68518000  0.97857000  0.05983000  1.0 -0.1410104858
C  C157  1  0.97857000  0.29340000  0.94017000  1.0 -0.1410104858
C  C158  1  0.70660000  0.68518000  0.94017000  1.0 -0.1410104858
C  C159  1  0.31482000  0.02143000  0.94017000  1.0 -0.1410104858
C  C160  1  0.68809000  0.03994000  0.39317000  1.0 -0.1410104858
C  C161  1  0.96006000  0.64816000  0.39317000  1.0 -0.1410104858
C  C162  1  0.35184000  0.31191000  0.39317000  1.0 -0.1410104858
C  C163  1  0.66239000  0.62037000  0.31510000  1.0 0.1218418833
C  C164  1  0.37963000  0.04202000  0.31510000  1.0 0.1218418833
C  C165  1  0.95798000  0.33761000  0.31510000  1.0 0.1218418833
C  C166  1  0.33761000  0.37963000  0.68490000  1.0 0.1218418833
C  C167  1  0.62037000  0.95798000  0.68490000  1.0 0.1218418833
C  C168  1  0.04202000  0.66239000  0.68490000  1.0 0.1218418833
C  C169  1  0.32906000  0.95370000  0.64843000  1.0 0.1218418833
C  C170  1  0.04630000  0.37535000  0.64843000  1.0 0.1218418833
C  C171  1  0.62465000  0.67094000  0.64843000  1.0 0.1218418833
C  C172  1  0.00428000  0.71296000  0.01823000  1.0 0.1218418833
C  C173  1  0.28704000  0.29131000  0.01823000  1.0 0.1218418833
C  C174  1  0.70869000  0.99572000  0.01823000  1.0 0.1218418833
C  C175  1  0.99572000  0.28704000  0.98177000  1.0 0.1218418833
C  C176  1  0.71296000  0.70869000  0.98177000  1.0 0.1218418833
C  C177  1  0.29131000  0.00428000  0.98177000  1.0 0.1218418833
C  C178  1  0.67094000  0.04630000  0.35157000  1.0 0.1218418833
C  C179  1  0.95370000  0.62465000  0.35157000  1.0 0.1218418833
C  C180  1  0.37535000  0.32906000  0.35157000  1.0 0.1218418833
C  C181  1  0.69444000  0.64830000  0.34640000  1.0 -0.1129250602
C  C182  1  0.35170000  0.04614000  0.34640000  1.0 -0.1129250602
C  C183  1  0.95386000  0.30556000  0.34640000  1.0 -0.1129250602
C  C184  1  0.30556000  0.35170000  0.65360000  1.0 -0.1195741367
C  C185  1  0.64830000  0.95386000  0.65360000  1.0 -0.1195741367
C  C186  1  0.04614000  0.69444000  0.65360000  1.0 -0.1129250602
C  C187  1  0.36111000  0.98163000  0.67973000  1.0 -0.1195741367
C  C188  1  0.01837000  0.37947000  0.67973000  1.0 -0.1129250602
C  C189  1  0.62053000  0.63889000  0.67973000  1.0 -0.1129250602
C  C190  1  0.97223000  0.68503000  0.98693000  1.0 -0.1129250602
C  C191  1  0.31497000  0.28719000  0.98693000  1.0 -0.1129250602
C  C192  1  0.71281000  0.02777000  0.98693000  1.0 -0.1129250602
C  C193  1  0.02777000  0.31497000  0.01307000  1.0 -0.1129250602
C  C194  1  0.68503000  0.71281000  0.01307000  1.0 -0.1195741367
C  C195  1  0.28719000  0.97223000  0.01307000  1.0 -0.1195741367
C  C196  1  0.63889000  0.01837000  0.32027000  1.0 -0.1129250602
C  C197  1  0.98163000  0.62053000  0.32027000  1.0 -0.1195741367
C  C198  1  0.37947000  0.36111000  0.32027000  1.0 -0.1195741367
C  C199  1  0.68934000  0.67664000  0.34650000  1.0 -0.0816806557
C  C200  1  0.32336000  0.01270000  0.34650000  1.0 -0.0816806557
C  C201  1  0.98730000  0.31066000  0.34650000  1.0 -0.0816806557
C  C202  1  0.31066000  0.32336000  0.65350000  1.0 -0.0816806557
C  C203  1  0.67664000  0.98730000  0.65350000  1.0 -0.087574397
C  C204  1  0.01270000  0.68934000  0.65350000  1.0 -0.0816806557
C  C205  1  0.35601000  0.00997000  0.67983000  1.0 -0.0816806557
C  C206  1  0.99003000  0.34603000  0.67983000  1.0 -0.087574397
C  C207  1  0.65397000  0.64399000  0.67983000  1.0 -0.087574397
C  C208  1  0.97733000  0.65669000  0.98683000  1.0 -0.087574397
C  C209  1  0.34331000  0.32063000  0.98683000  1.0 -0.087574397
C  C210  1  0.67937000  0.02267000  0.98683000  1.0 -0.087574397
C  C211  1  0.02267000  0.34331000  0.01317000  1.0 -0.087574397
C  C212  1  0.65669000  0.67937000  0.01317000  1.0 -0.087574397
C  C213  1  0.32063000  0.97733000  0.01317000  1.0 -0.0816806557
C  C214  1  0.64399000  0.99003000  0.32017000  1.0 -0.087574397
C  C215  1  0.00997000  0.65397000  0.32017000  1.0 -0.087574397
C  C216  1  0.34603000  0.35601000  0.32017000  1.0 -0.0816806557
C  C217  1  0.85035000  0.87726000  0.69260000  1.0 -0.1195741367
C  C218  1  0.12274000  0.97309000  0.69260000  1.0 -0.1195741367
C  C219  1  0.02691000  0.14965000  0.69260000  1.0 -0.1195741367
C  C220  1  0.14965000  0.12274000  0.30740000  1.0 -0.1129250602
C  C221  1  0.87726000  0.02691000  0.30740000  1.0 -0.1129250602
C  C222  1  0.97309000  0.85035000  0.30740000  1.0 -0.1129250602
C  C223  1  0.51702000  0.21059000  0.02593000  1.0 -0.1129250602
C  C224  1  0.78941000  0.30642000  0.02593000  1.0 -0.1129250602
C  C225  1  0.69358000  0.48298000  0.02593000  1.0 -0.1129250602
C  C226  1  0.81632000  0.45607000  0.64073000  1.0 -0.1129250602
C  C227  1  0.54393000  0.36024000  0.64073000  1.0 -0.1195741367
C  C228  1  0.63976000  0.18368000  0.64073000  1.0 -0.1129250602
C  C229  1  0.18368000  0.54393000  0.35927000  1.0 -0.1195741367
C  C230  1  0.45607000  0.63976000  0.35927000  1.0 -0.1195741367
C  C231  1  0.36024000  0.81632000  0.35927000  1.0 -0.1195741367
C  C232  1  0.48298000  0.78941000  0.97407000  1.0 -0.1195741367
C  C233  1  0.21059000  0.69358000  0.97407000  1.0 -0.1195741367
C  C234  1  0.30642000  0.51702000  0.97407000  1.0 -0.1195741367
C  C235  1  0.82377000  0.87979000  0.66200000  1.0 0.1010558448
C  C236  1  0.12021000  0.94398000  0.66200000  1.0 0.093115511
C  C237  1  0.05602000  0.17623000  0.66200000  1.0 0.093115511
C  C238  1  0.17623000  0.12021000  0.33800000  1.0 0.1010558448
C  C239  1  0.87979000  0.05602000  0.33800000  1.0 0.093115511
C  C240  1  0.94398000  0.82377000  0.33800000  1.0 0.1010558448
C  C241  1  0.49044000  0.21312000  0.99533000  1.0 0.1010558448
C  C242  1  0.78688000  0.27731000  0.99533000  1.0 0.1010558448
C  C243  1  0.72269000  0.50956000  0.99533000  1.0 0.1010558448
C  C244  1  0.84290000  0.45354000  0.67133000  1.0 0.093115511
C  C245  1  0.54646000  0.38935000  0.67133000  1.0 0.1010558448
C  C246  1  0.61065000  0.15710000  0.67133000  1.0 0.093115511
C  C247  1  0.15710000  0.54646000  0.32867000  1.0 0.1010558448
C  C248  1  0.45354000  0.61065000  0.32867000  1.0 0.1010558448
C  C249  1  0.38935000  0.84290000  0.32867000  1.0 0.1010558448
C  C250  1  0.50956000  0.78688000  0.00467000  1.0 0.1010558448
C  C251  1  0.21312000  0.72269000  0.00467000  1.0 0.1010558448
C  C252  1  0.27731000  0.49044000  0.00467000  1.0 0.1010558448
C  C253  1  0.80165000  0.84853000  0.62640000  1.0 -0.1195741367
C  C254  1  0.15147000  0.95312000  0.62640000  1.0 -0.1195741367
C  C255  1  0.04688000  0.19835000  0.62640000  1.0 -0.1195741367
C  C256  1  0.19835000  0.15147000  0.37360000  1.0 -0.1195741367
C  C257  1  0.84853000  0.04688000  0.37360000  1.0 -0.1129250602
C  C258  1  0.95312000  0.80165000  0.37360000  1.0 -0.1195741367
C  C259  1  0.46832000  0.18186000  0.95973000  1.0 -0.1195741367
C  C260  1  0.81814000  0.28645000  0.95973000  1.0 -0.1195741367
C  C261  1  0.71355000  0.53168000  0.95973000  1.0 -0.1195741367
C  C262  1  0.86502000  0.48480000  0.70693000  1.0 -0.1195741367
C  C263  1  0.51520000  0.38021000  0.70693000  1.0 -0.1195741367
C  C264  1  0.61979000  0.13498000  0.70693000  1.0 -0.1195741367
C  C265  1  0.13498000  0.51520000  0.29307000  1.0 -0.1195741367
C  C266  1  0.48480000  0.61979000  0.29307000  1.0 -0.1195741367
C  C267  1  0.38021000  0.86502000  0.29307000  1.0 -0.1195741367
C  C268  1  0.53168000  0.81814000  0.04027000  1.0 -0.1195741367
C  C269  1  0.18186000  0.71355000  0.04027000  1.0 -0.1129250602
C  C270  1  0.28645000  0.46832000  0.04027000  1.0 -0.1195741367
C  C271  1  0.80597000  0.82470000  0.61030000  1.0 0.0104027798
C  C272  1  0.17530000  0.98127000  0.61030000  1.0 0.0104027798
C  C273  1  0.01873000  0.19403000  0.61030000  1.0 0.0104027798
C  C274  1  0.19403000  0.17530000  0.38970000  1.0 0.0104027798
C  C275  1  0.82470000  0.01873000  0.38970000  1.0 0.0104027798
C  C276  1  0.98127000  0.80597000  0.38970000  1.0 0.0104027798
C  C277  1  0.47264000  0.15803000  0.94363000  1.0 0.0104027798
C  C278  1  0.84197000  0.31460000  0.94363000  1.0 0.0104027798
C  C279  1  0.68540000  0.52736000  0.94363000  1.0 0.0104027798
C  C280  1  0.86070000  0.50863000  0.72303000  1.0 0.0104027798
C  C281  1  0.49137000  0.35206000  0.72303000  1.0 0.0104027798
C  C282  1  0.64794000  0.13930000  0.72303000  1.0 0.0104027798
C  C283  1  0.13930000  0.49137000  0.27697000  1.0 0.0104027798
C  C284  1  0.50863000  0.64794000  0.27697000  1.0 0.0104027798
C  C285  1  0.35206000  0.86070000  0.27697000  1.0 0.0104027798
C  C286  1  0.52736000  0.84197000  0.05637000  1.0 0.0104027798
C  C287  1  0.15803000  0.68540000  0.05637000  1.0 0.0104027798
C  C288  1  0.31460000  0.47264000  0.05637000  1.0 0.0104027798
C  C289  1  0.82310000  0.81480000  0.65850000  1.0 -0.087574397
C  C290  1  0.18520000  0.00830000  0.65850000  1.0 -0.087574397
C  C291  1  0.99170000  0.17690000  0.65850000  1.0 -0.087574397
C  C292  1  0.17690000  0.18520000  0.34150000  1.0 -0.087574397
C  C293  1  0.81480000  0.99170000  0.34150000  1.0 -0.087574397
C  C294  1  0.00830000  0.82310000  0.34150000  1.0 -0.087574397
C  C295  1  0.48977000  0.14813000  0.99183000  1.0 -0.087574397
C  C296  1  0.85187000  0.34163000  0.99183000  1.0 -0.087574397
C  C297  1  0.65837000  0.51023000  0.99183000  1.0 -0.087574397
C  C298  1  0.84357000  0.51853000  0.67483000  1.0 -0.087574397
C  C299  1  0.48147000  0.32503000  0.67483000  1.0 -0.087574397
C  C300  1  0.67497000  0.15643000  0.67483000  1.0 -0.087574397
C  C301  1  0.15643000  0.48147000  0.32517000  1.0 -0.087574397
C  C302  1  0.51853000  0.67497000  0.32517000  1.0 -0.087574397
C  C303  1  0.32503000  0.84357000  0.32517000  1.0 -0.087574397
C  C304  1  0.51023000  0.85187000  0.00817000  1.0 -0.087574397
C  C305  1  0.14813000  0.65837000  0.00817000  1.0 -0.087574397
C  C306  1  0.34163000  0.48977000  0.00817000  1.0 -0.087574397
C  C307  1  0.84874000  0.84363000  0.69890000  1.0 -0.087574397
C  C308  1  0.15637000  0.00511000  0.69890000  1.0 -0.087574397
C  C309  1  0.99489000  0.15126000  0.69890000  1.0 -0.0816806557
C  C310  1  0.15126000  0.15637000  0.30110000  1.0 -0.087574397
C  C311  1  0.84363000  0.99489000  0.30110000  1.0 -0.087574397
C  C312  1  0.00511000  0.84874000  0.30110000  1.0 -0.087574397
C  C313  1  0.51541000  0.17696000  0.03223000  1.0 -0.087574397
C  C314  1  0.82304000  0.33844000  0.03223000  1.0 -0.087574397
C  C315  1  0.66156000  0.48459000  0.03223000  1.0 -0.087574397
C  C316  1  0.81793000  0.48970000  0.63443000  1.0 -0.087574397
C  C317  1  0.51030000  0.32822000  0.63443000  1.0 -0.087574397
C  C318  1  0.67178000  0.18207000  0.63443000  1.0 -0.087574397
C  C319  1  0.18207000  0.51030000  0.36557000  1.0 -0.087574397
C  C320  1  0.48970000  0.67178000  0.36557000  1.0 -0.087574397
C  C321  1  0.32822000  0.81793000  0.36557000  1.0 -0.0816806557
C  C322  1  0.48459000  0.82304000  0.96777000  1.0 -0.087574397
C  C323  1  0.17696000  0.66156000  0.96777000  1.0 -0.087574397
C  C324  1  0.33844000  0.51541000  0.96777000  1.0 -0.0816806557
C  C325  1  0.53072000  0.32280000  0.05303000  1.0 -0.1293959742
C  C326  1  0.67720000  0.20792000  0.05303000  1.0 -0.1195741367
C  C327  1  0.79208000  0.46928000  0.05303000  1.0 -0.1293959742
C  C328  1  0.46928000  0.67720000  0.94697000  1.0 -0.1195741367
C  C329  1  0.32280000  0.79208000  0.94697000  1.0 -0.1293959742
C  C330  1  0.20792000  0.53072000  0.94697000  1.0 -0.1293959742
C  C331  1  0.19739000  0.65613000  0.38636000  1.0 -0.1293959742
C  C332  1  0.34387000  0.54125000  0.38636000  1.0 -0.1293959742
C  C333  1  0.45875000  0.80261000  0.38636000  1.0 -0.1195741367
C  C334  1  0.13595000  0.01053000  0.28030000  1.0 -0.1293959742
C  C335  1  0.98947000  0.12541000  0.28030000  1.0 -0.1195741367
C  C336  1  0.87459000  0.86405000  0.28030000  1.0 -0.1195741367
C  C337  1  0.86405000  0.98947000  0.71970000  1.0 -0.1293959742
C  C338  1  0.01053000  0.87459000  0.71970000  1.0 -0.1195741367
C  C339  1  0.12541000  0.13595000  0.71970000  1.0 -0.1195741367
C  C340  1  0.80261000  0.34387000  0.61364000  1.0 -0.1195741367
C  C341  1  0.65613000  0.45875000  0.61364000  1.0 -0.1293959742
C  C342  1  0.54125000  0.19739000  0.61364000  1.0 -0.1195741367
C  C343  1  0.52939000  0.35122000  0.05043000  1.0 -0.019705625
C  C344  1  0.64878000  0.17817000  0.05043000  1.0 -0.019705625
C  C345  1  0.82183000  0.47061000  0.05043000  1.0 -0.019705625
C  C346  1  0.47061000  0.64878000  0.94957000  1.0 -0.0261025269
C  C347  1  0.35122000  0.82183000  0.94957000  1.0 -0.019705625
C  C348  1  0.17817000  0.52939000  0.94957000  1.0 -0.019705625
C  C349  1  0.19606000  0.68455000  0.38376000  1.0 -0.019705625
C  C350  1  0.31545000  0.51150000  0.38376000  1.0 -0.019705625
C  C351  1  0.48850000  0.80394000  0.38376000  1.0 -0.0261025269
C  C352  1  0.13728000  0.98211000  0.28290000  1.0 -0.0261025269
C  C353  1  0.01789000  0.15516000  0.28290000  1.0 -0.0261025269
C  C354  1  0.84484000  0.86272000  0.28290000  1.0 -0.0261025269
C  C355  1  0.86272000  0.01789000  0.71710000  1.0 -0.019705625
C  C356  1  0.98211000  0.84484000  0.71710000  1.0 -0.019705625
C  C357  1  0.15516000  0.13728000  0.71710000  1.0 -0.0261025269
C  C358  1  0.80394000  0.31545000  0.61624000  1.0 -0.019705625
C  C359  1  0.68455000  0.48850000  0.61624000  1.0 -0.019705625
C  C360  1  0.51150000  0.19606000  0.61624000  1.0 -0.0261025269
C  C361  1  0.50580000  0.35476000  0.01213000  1.0 -0.1129250602
C  C362  1  0.64524000  0.15104000  0.01213000  1.0 -0.1129250602
C  C363  1  0.84896000  0.49420000  0.01213000  1.0 -0.1129250602
C  C364  1  0.49420000  0.64524000  0.98787000  1.0 -0.1129250602
C  C365  1  0.35476000  0.84896000  0.98787000  1.0 -0.1129250602
C  C366  1  0.15104000  0.50580000  0.98787000  1.0 -0.1129250602
C  C367  1  0.17247000  0.68809000  0.34546000  1.0 -0.1129250602
C  C368  1  0.31191000  0.48437000  0.34546000  1.0 -0.1129250602
C  C369  1  0.51563000  0.82753000  0.34546000  1.0 -0.1129250602
C  C370  1  0.16087000  0.97857000  0.32120000  1.0 -0.1129250602
C  C371  1  0.02143000  0.18229000  0.32120000  1.0 -0.1129250602
C  C372  1  0.81771000  0.83913000  0.32120000  1.0 -0.1129250602
C  C373  1  0.83913000  0.02143000  0.67880000  1.0 -0.1129250602
C  C374  1  0.97857000  0.81771000  0.67880000  1.0 -0.1129250602
C  C375  1  0.18229000  0.16087000  0.67880000  1.0 -0.1129250602
C  C376  1  0.82753000  0.31191000  0.65454000  1.0 -0.1129250602
C  C377  1  0.68809000  0.51563000  0.65454000  1.0 -0.1129250602
C  C378  1  0.48437000  0.17247000  0.65454000  1.0 -0.1129250602
C  C379  1  0.48145000  0.32779000  0.97313000  1.0 -0.0029595204
C  C380  1  0.67221000  0.15366000  0.97313000  1.0 -0.0029595204
C  C381  1  0.84634000  0.51855000  0.97313000  1.0 -0.0029595204
C  C382  1  0.51855000  0.67221000  0.02687000  1.0 -0.0029595204
C  C383  1  0.32779000  0.84634000  0.02687000  1.0 -0.0029595204
C  C384  1  0.15366000  0.48145000  0.02687000  1.0 -0.0029595204
C  C385  1  0.14812000  0.66112000  0.30646000  1.0 -0.0029595204
C  C386  1  0.33888000  0.48699000  0.30646000  1.0 -0.0029595204
C  C387  1  0.51301000  0.85188000  0.30646000  1.0 -0.0029595204
C  C388  1  0.18522000  0.00554000  0.36020000  1.0 -0.0029595204
C  C389  1  0.99446000  0.17967000  0.36020000  1.0 -0.0029595204
C  C390  1  0.82033000  0.81478000  0.36020000  1.0 -0.0029595204
C  C391  1  0.81478000  0.99446000  0.63980000  1.0 -0.0029595204
C  C392  1  0.00554000  0.82033000  0.63980000  1.0 -0.0029595204
C  C393  1  0.17967000  0.18522000  0.63980000  1.0 -0.0029595204
C  C394  1  0.85188000  0.33888000  0.69354000  1.0 -0.0029595204
C  C395  1  0.66112000  0.51301000  0.69354000  1.0 -0.0029595204
C  C396  1  0.48699000  0.14812000  0.69354000  1.0 -0.0029595204
C  C397  1  0.48848000  0.29913000  0.95953000  1.0 -0.1541150736
C  C398  1  0.70087000  0.18935000  0.95953000  1.0 -0.1541150736
C  C399  1  0.81065000  0.51152000  0.95953000  1.0 -0.1559138672
C  C400  1  0.51152000  0.70087000  0.04047000  1.0 -0.1541150736
C  C401  1  0.29913000  0.81065000  0.04047000  1.0 -0.1559138672
C  C402  1  0.18935000  0.48848000  0.04047000  1.0 -0.1541150736
C  C403  1  0.15515000  0.63246000  0.29286000  1.0 -0.1559138672
C  C404  1  0.36754000  0.52268000  0.29286000  1.0 -0.1559138672
C  C405  1  0.47732000  0.84485000  0.29286000  1.0 -0.1541150736
C  C406  1  0.17819000  0.03420000  0.37380000  1.0 -0.1541150736
C  C407  1  0.96580000  0.14398000  0.37380000  1.0 -0.1541150736
C  C408  1  0.85602000  0.82181000  0.37380000  1.0 -0.1541150736
C  C409  1  0.82181000  0.96580000  0.62620000  1.0 -0.1559138672
C  C410  1  0.03420000  0.85602000  0.62620000  1.0 -0.1559138672
C  C411  1  0.14398000  0.17819000  0.62620000  1.0 -0.1541150736
C  C412  1  0.84485000  0.36754000  0.70714000  1.0 -0.1559138672
C  C413  1  0.63246000  0.47732000  0.70714000  1.0 -0.1559138672
C  C414  1  0.52268000  0.15515000  0.70714000  1.0 -0.1541150736
C  C415  1  0.50720000  0.29397000  0.00463000  1.0 0.1112045817
C  C416  1  0.70603000  0.21323000  0.00463000  1.0 0.1112045817
C  C417  1  0.78677000  0.49280000  0.00463000  1.0 0.1112045817
C  C418  1  0.49280000  0.70603000  0.99537000  1.0 0.1112045817
C  C419  1  0.29397000  0.78677000  0.99537000  1.0 0.1112045817
C  C420  1  0.21323000  0.50720000  0.99537000  1.0 0.1112045817
C  C421  1  0.17387000  0.62730000  0.33796000  1.0 0.1112045817
C  C422  1  0.37270000  0.54656000  0.33796000  1.0 0.1112045817
C  C423  1  0.45344000  0.82613000  0.33796000  1.0 0.1112045817
C  C424  1  0.15947000  0.03936000  0.32870000  1.0 0.1112045817
C  C425  1  0.96064000  0.12010000  0.32870000  1.0 0.1112045817
C  C426  1  0.87990000  0.84053000  0.32870000  1.0 0.1112045817
C  C427  1  0.84053000  0.96064000  0.67130000  1.0 0.1112045817
C  C428  1  0.03936000  0.87990000  0.67130000  1.0 0.1112045817
C  C429  1  0.12010000  0.15947000  0.67130000  1.0 0.1112045817
C  C430  1  0.82613000  0.37270000  0.66204000  1.0 0.1112045817
C  C431  1  0.62730000  0.45344000  0.66204000  1.0 0.1112045817
C  C432  1  0.54656000  0.17387000  0.66204000  1.0 0.1112045817
C  C433  1  0.71370000  0.70060000  0.38640000  1.0 0.5370266576
C  C434  1  0.29940000  0.01310000  0.38640000  1.0 0.5370266576
C  C435  1  0.98690000  0.28630000  0.38640000  1.0 0.5370266576
C  C436  1  0.28630000  0.29940000  0.61360000  1.0 0.5370266576
C  C437  1  0.70060000  0.98690000  0.61360000  1.0 0.5370266576
C  C438  1  0.01310000  0.71370000  0.61360000  1.0 0.5370266576
C  C439  1  0.38037000  0.03393000  0.71973000  1.0 0.5370266576
C  C440  1  0.96607000  0.34643000  0.71973000  1.0 0.5370266576
C  C441  1  0.65357000  0.61963000  0.71973000  1.0 0.5370266576
C  C442  1  0.95297000  0.63273000  0.94693000  1.0 0.5370266576
C  C443  1  0.36727000  0.32023000  0.94693000  1.0 0.5370266576
C  C444  1  0.67977000  0.04703000  0.94693000  1.0 0.5370266576
C  C445  1  0.04703000  0.36727000  0.05307000  1.0 0.5370266576
C  C446  1  0.63273000  0.67977000  0.05307000  1.0 0.5370266576
C  C447  1  0.32023000  0.95297000  0.05307000  1.0 0.5370266576
C  C448  1  0.61963000  0.96607000  0.28027000  1.0 0.5370266576
C  C449  1  0.03393000  0.65357000  0.28027000  1.0 0.5370266576
C  C450  1  0.34643000  0.38037000  0.28027000  1.0 0.5370266576
C  C451  1  0.51147000  0.26383000  0.02133000  1.0 -0.1018172379
C  C452  1  0.73617000  0.24764000  0.02133000  1.0 -0.1018172379
C  C453  1  0.75236000  0.48853000  0.02133000  1.0 -0.1018172379
C  C454  1  0.48853000  0.73617000  0.97867000  1.0 -0.1018172379
C  C455  1  0.26383000  0.75236000  0.97867000  1.0 -0.1018172379
C  C456  1  0.24764000  0.51147000  0.97867000  1.0 -0.1018172379
C  C457  1  0.17814000  0.59716000  0.35466000  1.0 -0.1018172379
C  C458  1  0.40284000  0.58097000  0.35466000  1.0 -0.1018172379
C  C459  1  0.41903000  0.82186000  0.35466000  1.0 -0.1018172379
C  C460  1  0.15520000  0.06950000  0.31200000  1.0 -0.1018172379
C  C461  1  0.93050000  0.08569000  0.31200000  1.0 -0.1018172379
C  C462  1  0.91431000  0.84480000  0.31200000  1.0 -0.1018172379
C  C463  1  0.84480000  0.93050000  0.68800000  1.0 -0.1018172379
C  C464  1  0.06950000  0.91431000  0.68800000  1.0 -0.1018172379
C  C465  1  0.08569000  0.15520000  0.68800000  1.0 -0.1018172379
C  C466  1  0.82186000  0.40284000  0.64534000  1.0 -0.1018172379
C  C467  1  0.59716000  0.41903000  0.64534000  1.0 -0.1018172379
C  C468  1  0.58097000  0.17814000  0.64534000  1.0 -0.1018172379
C  C469  1  0.68940000  0.58880000  0.33800000  1.0 -0.0743079018
C  C470  1  0.41120000  0.10060000  0.33800000  1.0 -0.0743079018
C  C471  1  0.89940000  0.31060000  0.33800000  1.0 -0.0743079018
C  C472  1  0.31060000  0.41120000  0.66200000  1.0 -0.0816806557
C  C473  1  0.58880000  0.89940000  0.66200000  1.0 -0.0816806557
C  C474  1  0.10060000  0.68940000  0.66200000  1.0 -0.0816806557
C  C475  1  0.35607000  0.92213000  0.67133000  1.0 -0.0816806557
C  C476  1  0.07787000  0.43393000  0.67133000  1.0 -0.0816806557
C  C477  1  0.56607000  0.64393000  0.67133000  1.0 -0.0816806557
C  C478  1  0.97727000  0.74453000  0.99533000  1.0 -0.0743079018
C  C479  1  0.25547000  0.23273000  0.99533000  1.0 -0.0816806557
C  C480  1  0.76727000  0.02273000  0.99533000  1.0 -0.0743079018
C  C481  1  0.02273000  0.25547000  0.00467000  1.0 -0.0816806557
C  C482  1  0.74453000  0.76727000  0.00467000  1.0 -0.0816806557
C  C483  1  0.23273000  0.97727000  0.00467000  1.0 -0.0816806557
C  C484  1  0.64393000  0.07787000  0.32867000  1.0 -0.0743079018
C  C485  1  0.92213000  0.56607000  0.32867000  1.0 -0.0743079018
C  C486  1  0.43393000  0.35607000  0.32867000  1.0 -0.0816806557
C  C487  1  0.45637000  0.33173000  0.93523000  1.0 0.6088100313
C  C488  1  0.66827000  0.12464000  0.93523000  1.0 0.6088100313
C  C489  1  0.87536000  0.54363000  0.93523000  1.0 0.6088100313
C  C490  1  0.54363000  0.66827000  0.06477000  1.0 0.6088100313
C  C491  1  0.33173000  0.87536000  0.06477000  1.0 0.6088100313
C  C492  1  0.12464000  0.45637000  0.06477000  1.0 0.6088100313
C  C493  1  0.12304000  0.66506000  0.26856000  1.0 0.6088100313
C  C494  1  0.33494000  0.45797000  0.26856000  1.0 0.6088100313
C  C495  1  0.54203000  0.87696000  0.26856000  1.0 0.6088100313
C  C496  1  0.21030000  0.00160000  0.39810000  1.0 0.6088100313
C  C497  1  0.99840000  0.20869000  0.39810000  1.0 0.6088100313
C  C498  1  0.79131000  0.78970000  0.39810000  1.0 0.6088100313
C  C499  1  0.78970000  0.99840000  0.60190000  1.0 0.6088100313
C  C500  1  0.00160000  0.79131000  0.60190000  1.0 0.6088100313
C  C501  1  0.20869000  0.21030000  0.60190000  1.0 0.6088100313
C  C502  1  0.87696000  0.33494000  0.73144000  1.0 0.6088100313
C  C503  1  0.66506000  0.54203000  0.73144000  1.0 0.6088100313
C  C504  1  0.45797000  0.12304000  0.73144000  1.0 0.6088100313
C  C505  1  0.66860000  0.59160000  0.30100000  1.0 -0.1018172379
C  C506  1  0.40840000  0.07700000  0.30100000  1.0 -0.1018172379
C  C507  1  0.92300000  0.33140000  0.30100000  1.0 -0.1018172379
C  C508  1  0.33140000  0.40840000  0.69900000  1.0 -0.1018172379
C  C509  1  0.59160000  0.92300000  0.69900000  1.0 -0.1018172379
C  C510  1  0.07700000  0.66860000  0.69900000  1.0 -0.1018172379
C  C511  1  0.33527000  0.92493000  0.63433000  1.0 -0.1018172379
C  C512  1  0.07507000  0.41033000  0.63433000  1.0 -0.1018172379
C  C513  1  0.58967000  0.66473000  0.63433000  1.0 -0.1018172379
C  C514  1  0.99807000  0.74173000  0.03233000  1.0 -0.1018172379
C  C515  1  0.25827000  0.25633000  0.03233000  1.0 -0.1018172379
C  C516  1  0.74367000  0.00193000  0.03233000  1.0 -0.1018172379
C  C517  1  0.00193000  0.25827000  0.96767000  1.0 -0.1018172379
C  C518  1  0.74173000  0.74367000  0.96767000  1.0 -0.1018172379
C  C519  1  0.25633000  0.99807000  0.96767000  1.0 -0.1018172379
C  C520  1  0.66473000  0.07507000  0.36567000  1.0 -0.1018172379
C  C521  1  0.92493000  0.58967000  0.36567000  1.0 -0.1018172379
C  C522  1  0.41033000  0.33527000  0.36567000  1.0 -0.1018172379
C  C523  1  0.82380000  0.91190000  0.65010000  1.0 -0.1018172379
C  C524  1  0.08810000  0.91190000  0.65010000  1.0 -0.1018172379
C  C525  1  0.08810000  0.17620000  0.65010000  1.0 -0.1018172379
C  C526  1  0.17620000  0.08810000  0.34990000  1.0 -0.1018172379
C  C527  1  0.91190000  0.08810000  0.34990000  1.0 -0.1018172379
C  C528  1  0.91190000  0.82380000  0.34990000  1.0 -0.1018172379
C  C529  1  0.49047000  0.24523000  0.98343000  1.0 -0.1018172379
C  C530  1  0.75477000  0.24523000  0.98343000  1.0 -0.1018172379
C  C531  1  0.75477000  0.50953000  0.98343000  1.0 -0.1018172379
C  C532  1  0.84287000  0.42143000  0.68323000  1.0 -0.1018172379
C  C533  1  0.57857000  0.42143000  0.68323000  1.0 -0.1018172379
C  C534  1  0.57857000  0.15713000  0.68323000  1.0 -0.1018172379
C  C535  1  0.15713000  0.57857000  0.31677000  1.0 -0.1018172379
C  C536  1  0.42143000  0.57857000  0.31677000  1.0 -0.1018172379
C  C537  1  0.42143000  0.84287000  0.31677000  1.0 -0.1018172379
C  C538  1  0.50953000  0.75477000  0.01657000  1.0 -0.1018172379
C  C539  1  0.24523000  0.75477000  0.01657000  1.0 -0.1018172379
C  C540  1  0.24523000  0.49047000  0.01657000  1.0 -0.1018172379
C  C541  1  0.63340000  0.46900000  0.25130000  1.0 0.6213532957
C  C542  1  0.53100000  0.16440000  0.25130000  1.0 0.6213532957
C  C543  1  0.83560000  0.36660000  0.25130000  1.0 0.6213532957
C  C544  1  0.36660000  0.53100000  0.74870000  1.0 0.6213532957
C  C545  1  0.46900000  0.83560000  0.74870000  1.0 0.6213532957
C  C546  1  0.16440000  0.63340000  0.74870000  1.0 0.6213532957
C  C547  1  0.30007000  0.80233000  0.58463000  1.0 0.6213532957
C  C548  1  0.19767000  0.49773000  0.58463000  1.0 0.6213532957
C  C549  1  0.50227000  0.69993000  0.58463000  1.0 0.6213532957
C  C550  1  0.03327000  0.86433000  0.08203000  1.0 0.6213532957
C  C551  1  0.13567000  0.16893000  0.08203000  1.0 0.6213532957
C  C552  1  0.83107000  0.96673000  0.08203000  1.0 0.6213532957
C  C553  1  0.96673000  0.13567000  0.91797000  1.0 0.6213532957
C  C554  1  0.86433000  0.83107000  0.91797000  1.0 0.6213532957
C  C555  1  0.16893000  0.03327000  0.91797000  1.0 0.6213532957
C  C556  1  0.69993000  0.19767000  0.41537000  1.0 0.6213532957
C  C557  1  0.80233000  0.50227000  0.41537000  1.0 0.6213532957
C  C558  1  0.49773000  0.30007000  0.41537000  1.0 0.6213532957
C  C559  1  0.55707000  0.38013000  0.08213000  1.0 0.389302804
C  C560  1  0.61987000  0.17694000  0.08213000  1.0 0.389302804
C  C561  1  0.82306000  0.44293000  0.08213000  1.0 0.3974218143
C  C562  1  0.44293000  0.61987000  0.91787000  1.0 0.3974218143
C  C563  1  0.38013000  0.82306000  0.91787000  1.0 0.3974218143
C  C564  1  0.17694000  0.55707000  0.91787000  1.0 0.389302804
C  C565  1  0.22374000  0.71346000  0.41546000  1.0 0.3974218143
C  C566  1  0.28654000  0.51027000  0.41546000  1.0 0.3974218143
C  C567  1  0.48973000  0.77626000  0.41546000  1.0 0.3974218143
C  C568  1  0.10960000  0.95320000  0.25120000  1.0 0.389302804
C  C569  1  0.04680000  0.15639000  0.25120000  1.0 0.3974218143
C  C570  1  0.84361000  0.89040000  0.25120000  1.0 0.3974218143
C  C571  1  0.89040000  0.04680000  0.74880000  1.0 0.389302804
C  C572  1  0.95320000  0.84361000  0.74880000  1.0 0.389302804
C  C573  1  0.15639000  0.10960000  0.74880000  1.0 0.389302804
C  C574  1  0.77626000  0.28654000  0.58454000  1.0 0.389302804
C  C575  1  0.71346000  0.48973000  0.58454000  1.0 0.389302804
C  C576  1  0.51027000  0.22374000  0.58454000  1.0 0.3974218143
C  C577  1  0.78110000  0.80010000  0.56010000  1.0 0.5190281217
C  C578  1  0.19990000  0.98100000  0.56010000  1.0 0.5190281217
C  C579  1  0.01900000  0.21890000  0.56010000  1.0 0.5135021729
C  C580  1  0.21890000  0.19990000  0.43990000  1.0 0.5190281217
C  C581  1  0.80010000  0.01900000  0.43990000  1.0 0.5190281217
C  C582  1  0.98100000  0.78110000  0.43990000  1.0 0.5190281217
C  C583  1  0.44777000  0.13343000  0.89343000  1.0 0.5135021729
C  C584  1  0.86657000  0.31433000  0.89343000  1.0 0.5135021729
C  C585  1  0.68567000  0.55223000  0.89343000  1.0 0.5190281217
C  C586  1  0.88557000  0.53323000  0.77323000  1.0 0.5190281217
C  C587  1  0.46677000  0.35233000  0.77323000  1.0 0.5190281217
C  C588  1  0.64767000  0.11443000  0.77323000  1.0 0.5190281217
C  C589  1  0.11443000  0.46677000  0.22677000  1.0 0.5190281217
C  C590  1  0.53323000  0.64767000  0.22677000  1.0 0.5135021729
C  C591  1  0.35233000  0.88557000  0.22677000  1.0 0.5190281217
C  C592  1  0.55223000  0.86657000  0.10657000  1.0 0.5190281217
C  C593  1  0.13343000  0.68567000  0.10657000  1.0 0.5190281217
C  C594  1  0.31433000  0.44777000  0.10657000  1.0 0.5190281217
C  C595  1  0.61780000  0.65370000  0.22270000  1.0 0.4902463012
C  C596  1  0.34630000  0.96410000  0.22270000  1.0 0.4902463012
C  C597  1  0.03590000  0.38220000  0.22270000  1.0 0.4972582731
C  C598  1  0.38220000  0.34630000  0.77730000  1.0 0.4902463012
C  C599  1  0.65370000  0.03590000  0.77730000  1.0 0.4902463012
C  C600  1  0.96410000  0.61780000  0.77730000  1.0 0.4902463012
C  C601  1  0.28447000  0.98703000  0.55603000  1.0 0.4902463012
C  C602  1  0.01297000  0.29743000  0.55603000  1.0 0.4902463012
C  C603  1  0.70257000  0.71553000  0.55603000  1.0 0.4972582731
C  C604  1  0.04887000  0.67963000  0.11063000  1.0 0.4902463012
C  C605  1  0.32037000  0.36923000  0.11063000  1.0 0.4902463012
C  C606  1  0.63077000  0.95113000  0.11063000  1.0 0.4972582731
C  C607  1  0.95113000  0.32037000  0.88937000  1.0 0.4902463012
C  C608  1  0.67963000  0.63077000  0.88937000  1.0 0.4902463012
C  C609  1  0.36923000  0.04887000  0.88937000  1.0 0.4902463012
C  C610  1  0.71553000  0.01297000  0.44397000  1.0 0.4902463012
C  C611  1  0.98703000  0.70257000  0.44397000  1.0 0.4902463012
C  C612  1  0.29743000  0.28447000  0.44397000  1.0 0.4902463012
C  C613  1  0.86890000  0.83800000  0.74420000  1.0 0.5989325086
C  C614  1  0.16200000  0.03090000  0.74420000  1.0 0.5989325086
C  C615  1  0.96910000  0.13110000  0.74420000  1.0 0.5989325086
C  C616  1  0.13110000  0.16200000  0.25580000  1.0 0.5989325086
C  C617  1  0.83800000  0.96910000  0.25580000  1.0 0.5989325086
C  C618  1  0.03090000  0.86890000  0.25580000  1.0 0.5989325086
C  C619  1  0.53557000  0.17133000  0.07753000  1.0 0.5989325086
C  C620  1  0.82867000  0.36423000  0.07753000  1.0 0.5989325086
C  C621  1  0.63577000  0.46443000  0.07753000  1.0 0.5989325086
C  C622  1  0.79777000  0.49533000  0.58913000  1.0 0.5989325086
C  C623  1  0.50467000  0.30243000  0.58913000  1.0 0.5989325086
C  C624  1  0.69757000  0.20223000  0.58913000  1.0 0.5989325086
C  C625  1  0.20223000  0.50467000  0.41087000  1.0 0.5989325086
C  C626  1  0.49533000  0.69757000  0.41087000  1.0 0.5989325086
C  C627  1  0.30243000  0.79777000  0.41087000  1.0 0.5989325086
C  C628  1  0.46443000  0.82867000  0.92247000  1.0 0.5989325086
C  C629  1  0.17133000  0.63577000  0.92247000  1.0 0.5989325086
C  C630  1  0.36423000  0.53557000  0.92247000  1.0 0.5989325086
C  C631  1  0.72710000  0.51490000  0.41070000  1.0 -0.0503660432
C  C632  1  0.48510000  0.21220000  0.41070000  1.0 -0.0503660432
C  C633  1  0.78780000  0.27290000  0.41070000  1.0 -0.0503660432
C  C634  1  0.27290000  0.48510000  0.58930000  1.0 -0.0503660432
C  C635  1  0.51490000  0.78780000  0.58930000  1.0 -0.0503660432
C  C636  1  0.21220000  0.72710000  0.58930000  1.0 -0.0503660432
C  C637  1  0.39377000  0.84823000  0.74403000  1.0 -0.0503660432
C  C638  1  0.15177000  0.54553000  0.74403000  1.0 -0.0503660432
C  C639  1  0.45447000  0.60623000  0.74403000  1.0 -0.0503660432
C  C640  1  0.93957000  0.81843000  0.92263000  1.0 -0.0567667747
C  C641  1  0.18157000  0.12113000  0.92263000  1.0 -0.0503660432
C  C642  1  0.87887000  0.06043000  0.92263000  1.0 -0.0503660432
C  C643  1  0.06043000  0.18157000  0.07737000  1.0 -0.0503660432
C  C644  1  0.81843000  0.87887000  0.07737000  1.0 -0.0503660432
C  C645  1  0.12113000  0.93957000  0.07737000  1.0 -0.0503660432
C  C646  1  0.60623000  0.15177000  0.25597000  1.0 -0.0503660432
C  C647  1  0.84823000  0.45447000  0.25597000  1.0 -0.0503660432
C  C648  1  0.54553000  0.39377000  0.25597000  1.0 -0.0503660432
O  O1  1  0.73520000  0.70450000  0.42480000  1.0 -0.4365474156
O  O2  1  0.29550000  0.03070000  0.42480000  1.0 -0.4365474156
O  O3  1  0.96930000  0.26480000  0.42480000  1.0 -0.433622949
O  O4  1  0.26480000  0.29550000  0.57520000  1.0 -0.4365474156
O  O5  1  0.70450000  0.96930000  0.57520000  1.0 -0.4365474156
O  O6  1  0.03070000  0.73520000  0.57520000  1.0 -0.4365474156
O  O7  1  0.40187000  0.03783000  0.75813000  1.0 -0.4365474156
O  O8  1  0.96217000  0.36403000  0.75813000  1.0 -0.4365474156
O  O9  1  0.63597000  0.59813000  0.75813000  1.0 -0.4365474156
O  O10  1  0.93147000  0.62883000  0.90853000  1.0 -0.4365474156
O  O11  1  0.37117000  0.30263000  0.90853000  1.0 -0.4365474156
O  O12  1  0.69737000  0.06853000  0.90853000  1.0 -0.4365474156
O  O13  1  0.06853000  0.37117000  0.09147000  1.0 -0.433622949
O  O14  1  0.62883000  0.69737000  0.09147000  1.0 -0.4365474156
O  O15  1  0.30263000  0.93147000  0.09147000  1.0 -0.4365474156
O  O16  1  0.59813000  0.96217000  0.24187000  1.0 -0.4365474156
O  O17  1  0.03783000  0.63597000  0.24187000  1.0 -0.4365474156
O  O18  1  0.36403000  0.40187000  0.24187000  1.0 -0.4365474156
O  O19  1  0.43487000  0.30463000  0.90373000  1.0 -0.582109345
O  O20  1  0.69537000  0.13024000  0.90373000  1.0 -0.582109345
O  O21  1  0.86976000  0.56513000  0.90373000  1.0 -0.582109345
O  O22  1  0.56513000  0.69537000  0.09627000  1.0 -0.582109345
O  O23  1  0.30463000  0.86976000  0.09627000  1.0 -0.582109345
O  O24  1  0.13024000  0.43487000  0.09627000  1.0 -0.582109345
O  O25  1  0.10154000  0.63796000  0.23706000  1.0 -0.582109345
O  O26  1  0.36204000  0.46357000  0.23706000  1.0 -0.582109345
O  O27  1  0.53643000  0.89846000  0.23706000  1.0 -0.582109345
O  O28  1  0.23180000  0.02870000  0.42960000  1.0 -0.582109345
O  O29  1  0.97130000  0.20309000  0.42960000  1.0 -0.582109345
O  O30  1  0.79691000  0.76820000  0.42960000  1.0 -0.582109345
O  O31  1  0.76820000  0.97130000  0.57040000  1.0 -0.582109345
O  O32  1  0.02870000  0.79691000  0.57040000  1.0 -0.582109345
O  O33  1  0.20309000  0.23180000  0.57040000  1.0 -0.582109345
O  O34  1  0.89846000  0.36204000  0.76294000  1.0 -0.582109345
O  O35  1  0.63796000  0.53643000  0.76294000  1.0 -0.582109345
O  O36  1  0.46357000  0.10154000  0.76294000  1.0 -0.582109345
O  O37  1  0.70670000  0.73170000  0.40540000  1.0 -0.6111073246
O  O38  1  0.26830000  0.97500000  0.40540000  1.0 -0.6111073246
O  O39  1  0.02500000  0.29330000  0.40540000  1.0 -0.6111073246
O  O40  1  0.29330000  0.26830000  0.59460000  1.0 -0.6111073246
O  O41  1  0.73170000  0.02500000  0.59460000  1.0 -0.6153948533
O  O42  1  0.97500000  0.70670000  0.59460000  1.0 -0.6111073246
O  O43  1  0.37337000  0.06503000  0.73873000  1.0 -0.6153948533
O  O44  1  0.93497000  0.30833000  0.73873000  1.0 -0.6111073246
O  O45  1  0.69167000  0.62663000  0.73873000  1.0 -0.6111073246
O  O46  1  0.95997000  0.60163000  0.92793000  1.0 -0.6111073246
O  O47  1  0.39837000  0.35833000  0.92793000  1.0 -0.6111073246
O  O48  1  0.64167000  0.04003000  0.92793000  1.0 -0.6111073246
O  O49  1  0.04003000  0.39837000  0.07207000  1.0 -0.6111073246
O  O50  1  0.60163000  0.64167000  0.07207000  1.0 -0.6111073246
O  O51  1  0.35833000  0.95997000  0.07207000  1.0 -0.6111073246
O  O52  1  0.62663000  0.93497000  0.26127000  1.0 -0.6111073246
O  O53  1  0.06503000  0.69167000  0.26127000  1.0 -0.6111073246
O  O54  1  0.30833000  0.37337000  0.26127000  1.0 -0.6111073246
O  O55  1  0.46257000  0.36093000  0.92413000  1.0 -0.5090492875
O  O56  1  0.63907000  0.10164000  0.92413000  1.0 -0.5090492875
O  O57  1  0.89836000  0.53743000  0.92413000  1.0 -0.5090492875
O  O58  1  0.53743000  0.63907000  0.07587000  1.0 -0.5090492875
O  O59  1  0.36093000  0.89836000  0.07587000  1.0 -0.5090492875
O  O60  1  0.10164000  0.46257000  0.07587000  1.0 -0.5090492875
O  O61  1  0.12924000  0.69426000  0.25746000  1.0 -0.5090492875
O  O62  1  0.30574000  0.43497000  0.25746000  1.0 -0.5090492875
O  O63  1  0.56503000  0.87076000  0.25746000  1.0 -0.5090492875
O  O64  1  0.20410000  0.97240000  0.40920000  1.0 -0.5090492875
O  O65  1  0.02760000  0.23169000  0.40920000  1.0 -0.5090492875
O  O66  1  0.76831000  0.79590000  0.40920000  1.0 -0.5090492875
O  O67  1  0.79590000  0.02760000  0.59080000  1.0 -0.5090492875
O  O68  1  0.97240000  0.76831000  0.59080000  1.0 -0.5090492875
O  O69  1  0.23169000  0.20410000  0.59080000  1.0 -0.5090492875
O  O70  1  0.87076000  0.30574000  0.74254000  1.0 -0.5090492875
O  O71  1  0.69426000  0.56503000  0.74254000  1.0 -0.5090492875
O  O72  1  0.43497000  0.12924000  0.74254000  1.0 -0.5090492875
O  O73  1  0.55337000  0.40973000  0.09943000  1.0 -0.5090492875
O  O74  1  0.59027000  0.14364000  0.09943000  1.0 -0.5090492875
O  O75  1  0.85636000  0.44663000  0.09943000  1.0 -0.5090492875
O  O76  1  0.44663000  0.59027000  0.90057000  1.0 -0.5090492875
O  O77  1  0.40973000  0.85636000  0.90057000  1.0 -0.5090492875
O  O78  1  0.14364000  0.55337000  0.90057000  1.0 -0.5090492875
O  O79  1  0.22004000  0.74306000  0.43276000  1.0 -0.5090492875
O  O80  1  0.25694000  0.47697000  0.43276000  1.0 -0.5090492875
O  O81  1  0.52303000  0.77996000  0.43276000  1.0 -0.5090492875
O  O82  1  0.11330000  0.92360000  0.23390000  1.0 -0.5090492875
O  O83  1  0.07640000  0.18969000  0.23390000  1.0 -0.5090492875
O  O84  1  0.81031000  0.88670000  0.23390000  1.0 -0.5090492875
O  O85  1  0.88670000  0.07640000  0.76610000  1.0 -0.5090492875
O  O86  1  0.92360000  0.81031000  0.76610000  1.0 -0.5090492875
O  O87  1  0.18969000  0.11330000  0.76610000  1.0 -0.5090492875
O  O88  1  0.77996000  0.25694000  0.56724000  1.0 -0.5090492875
O  O89  1  0.74306000  0.52303000  0.56724000  1.0 -0.5090492875
O  O90  1  0.47697000  0.22004000  0.56724000  1.0 -0.5090492875
O  O91  1  0.58017000  0.38503000  0.12793000  1.0 -0.3839056196
O  O92  1  0.61497000  0.19514000  0.12793000  1.0 -0.3861742345
O  O93  1  0.80486000  0.41983000  0.12793000  1.0 -0.3861742345
O  O94  1  0.41983000  0.61497000  0.87207000  1.0 -0.3839056196
O  O95  1  0.38503000  0.80486000  0.87207000  1.0 -0.3839056196
O  O96  1  0.19514000  0.58017000  0.87207000  1.0 -0.3839056196
O  O97  1  0.24684000  0.71836000  0.46126000  1.0 -0.3839056196
O  O98  1  0.28164000  0.52847000  0.46126000  1.0 -0.3839056196
O  O99  1  0.47153000  0.75316000  0.46126000  1.0 -0.3839056196
O  O100  1  0.08650000  0.94830000  0.20540000  1.0 -0.3861742345
O  O101  1  0.05170000  0.13819000  0.20540000  1.0 -0.3861742345
O  O102  1  0.86181000  0.91350000  0.20540000  1.0 -0.3861742345
O  O103  1  0.91350000  0.05170000  0.79460000  1.0 -0.3861742345
O  O104  1  0.94830000  0.86181000  0.79460000  1.0 -0.3839056196
O  O105  1  0.13819000  0.08650000  0.79460000  1.0 -0.3839056196
O  O106  1  0.75316000  0.28164000  0.53874000  1.0 -0.3839056196
O  O107  1  0.71836000  0.47153000  0.53874000  1.0 -0.3839056196
O  O108  1  0.52847000  0.24684000  0.53874000  1.0 -0.3839056196
O  O109  1  0.89160000  0.86500000  0.77600000  1.0 -0.6111073246
O  O110  1  0.13500000  0.02660000  0.77600000  1.0 -0.6111073246
O  O111  1  0.97340000  0.10840000  0.77600000  1.0 -0.6111073246
O  O112  1  0.10840000  0.13500000  0.22400000  1.0 -0.6111073246
O  O113  1  0.86500000  0.97340000  0.22400000  1.0 -0.6111073246
O  O114  1  0.02660000  0.89160000  0.22400000  1.0 -0.6111073246
O  O115  1  0.55827000  0.19833000  0.10933000  1.0 -0.6111073246
O  O116  1  0.80167000  0.35993000  0.10933000  1.0 -0.6111073246
O  O117  1  0.64007000  0.44173000  0.10933000  1.0 -0.6111073246
O  O118  1  0.77507000  0.46833000  0.55733000  1.0 -0.6111073246
O  O119  1  0.53167000  0.30673000  0.55733000  1.0 -0.6111073246
O  O120  1  0.69327000  0.22493000  0.55733000  1.0 -0.6111073246
O  O121  1  0.22493000  0.53167000  0.44267000  1.0 -0.6111073246
O  O122  1  0.46833000  0.69327000  0.44267000  1.0 -0.6111073246
O  O123  1  0.30673000  0.77507000  0.44267000  1.0 -0.6111073246
O  O124  1  0.44173000  0.80167000  0.89067000  1.0 -0.6111073246
O  O125  1  0.19833000  0.64007000  0.89067000  1.0 -0.6111073246
O  O126  1  0.35993000  0.55827000  0.89067000  1.0 -0.6111073246
O  O127  1  0.86530000  0.80780000  0.75770000  1.0 -0.5608031924
O  O128  1  0.19220000  0.05750000  0.75770000  1.0 -0.5608031924
O  O129  1  0.94250000  0.13470000  0.75770000  1.0 -0.5608031924
O  O130  1  0.13470000  0.19220000  0.24230000  1.0 -0.5608031924
O  O131  1  0.80780000  0.94250000  0.24230000  1.0 -0.5608031924
O  O132  1  0.05750000  0.86530000  0.24230000  1.0 -0.5608031924
O  O133  1  0.53197000  0.14113000  0.09103000  1.0 -0.5608031924
O  O134  1  0.85887000  0.39083000  0.09103000  1.0 -0.5608031924
O  O135  1  0.60917000  0.46803000  0.09103000  1.0 -0.5608031924
O  O136  1  0.80137000  0.52553000  0.57563000  1.0 -0.5608031924
O  O137  1  0.47447000  0.27583000  0.57563000  1.0 -0.5608031924
O  O138  1  0.72417000  0.19863000  0.57563000  1.0 -0.5608031924
O  O139  1  0.19863000  0.47447000  0.42437000  1.0 -0.5608031924
O  O140  1  0.52553000  0.72417000  0.42437000  1.0 -0.5608031924
O  O141  1  0.27583000  0.80137000  0.42437000  1.0 -0.5608031924
O  O142  1  0.46803000  0.85887000  0.90897000  1.0 -0.5608031924
O  O143  1  0.14113000  0.60917000  0.90897000  1.0 -0.5608031924
O  O144  1  0.39083000  0.53197000  0.90897000  1.0 -0.5608031924
O  O145  1  0.61260000  0.47530000  0.22050000  1.0 -0.5693233604
O  O146  1  0.52470000  0.13730000  0.22050000  1.0 -0.5693233604
O  O147  1  0.86270000  0.38740000  0.22050000  1.0 -0.5693233604
O  O148  1  0.38740000  0.52470000  0.77950000  1.0 -0.5693233604
O  O149  1  0.47530000  0.86270000  0.77950000  1.0 -0.5693233604
O  O150  1  0.13730000  0.61260000  0.77950000  1.0 -0.5693233604
O  O151  1  0.27927000  0.80863000  0.55383000  1.0 -0.5693233604
O  O152  1  0.19137000  0.47063000  0.55383000  1.0 -0.5693233604
O  O153  1  0.52937000  0.72073000  0.55383000  1.0 -0.5693233604
O  O154  1  0.05407000  0.85803000  0.11283000  1.0 -0.5693233604
O  O155  1  0.14197000  0.19603000  0.11283000  1.0 -0.5693233604
O  O156  1  0.80397000  0.94593000  0.11283000  1.0 -0.5693233604
O  O157  1  0.94593000  0.14197000  0.88717000  1.0 -0.5693233604
O  O158  1  0.85803000  0.80397000  0.88717000  1.0 -0.5693233604
O  O159  1  0.19603000  0.05407000  0.88717000  1.0 -0.5693233604
O  O160  1  0.72073000  0.19137000  0.44617000  1.0 -0.5693233604
O  O161  1  0.80863000  0.52937000  0.44617000  1.0 -0.5693233604
O  O162  1  0.47063000  0.27927000  0.44617000  1.0 -0.5693233604
O  O163  1  0.63440000  0.44080000  0.24300000  1.0 -0.5608031924
O  O164  1  0.55920000  0.19360000  0.24300000  1.0 -0.5693233604
O  O165  1  0.80640000  0.36560000  0.24300000  1.0 -0.5693233604
O  O166  1  0.36560000  0.55920000  0.75700000  1.0 -0.5608031924
O  O167  1  0.44080000  0.80640000  0.75700000  1.0 -0.5608031924
O  O168  1  0.19360000  0.63440000  0.75700000  1.0 -0.5693233604
O  O169  1  0.30107000  0.77413000  0.57633000  1.0 -0.5693233604
O  O170  1  0.22587000  0.52693000  0.57633000  1.0 -0.5608031924
O  O171  1  0.47307000  0.69893000  0.57633000  1.0 -0.5693233604
O  O172  1  0.03227000  0.89253000  0.09033000  1.0 -0.5693233604
O  O173  1  0.10747000  0.13973000  0.09033000  1.0 -0.5693233604
O  O174  1  0.86027000  0.96773000  0.09033000  1.0 -0.5693233604
O  O175  1  0.96773000  0.10747000  0.90967000  1.0 -0.5693233604
O  O176  1  0.89253000  0.86027000  0.90967000  1.0 -0.5693233604
O  O177  1  0.13973000  0.03227000  0.90967000  1.0 -0.5608031924
O  O178  1  0.69893000  0.22587000  0.42367000  1.0 -0.5693233604
O  O179  1  0.77413000  0.47307000  0.42367000  1.0 -0.5693233604
O  O180  1  0.52693000  0.30107000  0.42367000  1.0 -0.5693233604
O  O181  1  0.62280000  0.68660000  0.22000000  1.0 -0.582109345
O  O182  1  0.31340000  0.93620000  0.22000000  1.0 -0.5882217026
O  O183  1  0.06380000  0.37720000  0.22000000  1.0 -0.582109345
O  O184  1  0.37720000  0.31340000  0.78000000  1.0 -0.582109345
O  O185  1  0.68660000  0.06380000  0.78000000  1.0 -0.5882217026
O  O186  1  0.93620000  0.62280000  0.78000000  1.0 -0.582109345
O  O187  1  0.28947000  0.01993000  0.55333000  1.0 -0.582109345
O  O188  1  0.98007000  0.26953000  0.55333000  1.0 -0.582109345
O  O189  1  0.73047000  0.71053000  0.55333000  1.0 -0.582109345
O  O190  1  0.04387000  0.64673000  0.11333000  1.0 -0.5882217026
O  O191  1  0.35327000  0.39713000  0.11333000  1.0 -0.582109345
O  O192  1  0.60287000  0.95613000  0.11333000  1.0 -0.5882217026
O  O193  1  0.95613000  0.35327000  0.88667000  1.0 -0.582109345
O  O194  1  0.64673000  0.60287000  0.88667000  1.0 -0.582109345
O  O195  1  0.39713000  0.04387000  0.88667000  1.0 -0.582109345
O  O196  1  0.71053000  0.98007000  0.44667000  1.0 -0.5882217026
O  O197  1  0.01993000  0.73047000  0.44667000  1.0 -0.582109345
O  O198  1  0.26953000  0.28947000  0.44667000  1.0 -0.5882217026
O  O199  1  0.59180000  0.63520000  0.18260000  1.0 -0.4616018204
O  O200  1  0.36480000  0.95660000  0.18260000  1.0 -0.4536996369
O  O201  1  0.04340000  0.40820000  0.18260000  1.0 -0.4536996369
O  O202  1  0.40820000  0.36480000  0.81740000  1.0 -0.4536996369
O  O203  1  0.63520000  0.04340000  0.81740000  1.0 -0.4536996369
O  O204  1  0.95660000  0.59180000  0.81740000  1.0 -0.4536996369
O  O205  1  0.25847000  0.96853000  0.51593000  1.0 -0.4616018204
O  O206  1  0.03147000  0.28993000  0.51593000  1.0 -0.4536996369
O  O207  1  0.71007000  0.74153000  0.51593000  1.0 -0.4616018204
O  O208  1  0.07487000  0.69813000  0.15073000  1.0 -0.4536996369
O  O209  1  0.30187000  0.37673000  0.15073000  1.0 -0.4616018204
O  O210  1  0.62327000  0.92513000  0.15073000  1.0 -0.4536996369
O  O211  1  0.92513000  0.30187000  0.84927000  1.0 -0.4536996369
O  O212  1  0.69813000  0.62327000  0.84927000  1.0 -0.4536996369
O  O213  1  0.37673000  0.07487000  0.84927000  1.0 -0.4536996369
O  O214  1  0.74153000  0.03147000  0.48407000  1.0 -0.4536996369
O  O215  1  0.96853000  0.71007000  0.48407000  1.0 -0.4536996369
O  O216  1  0.28993000  0.25847000  0.48407000  1.0 -0.4536996369
O  O217  1  0.78920000  0.77400000  0.55520000  1.0 -0.5882217026
O  O218  1  0.22600000  0.01520000  0.55520000  1.0 -0.582109345
O  O219  1  0.98480000  0.21080000  0.55520000  1.0 -0.582109345
O  O220  1  0.21080000  0.22600000  0.44480000  1.0 -0.582109345
O  O221  1  0.77400000  0.98480000  0.44480000  1.0 -0.582109345
O  O222  1  0.01520000  0.78920000  0.44480000  1.0 -0.5882217026
O  O223  1  0.45587000  0.10733000  0.88853000  1.0 -0.582109345
O  O224  1  0.89267000  0.34853000  0.88853000  1.0 -0.582109345
O  O225  1  0.65147000  0.54413000  0.88853000  1.0 -0.582109345
O  O226  1  0.87747000  0.55933000  0.77813000  1.0 -0.582109345
O  O227  1  0.44067000  0.31813000  0.77813000  1.0 -0.582109345
O  O228  1  0.68187000  0.12253000  0.77813000  1.0 -0.582109345
O  O229  1  0.12253000  0.44067000  0.22187000  1.0 -0.5882217026
O  O230  1  0.55933000  0.68187000  0.22187000  1.0 -0.582109345
O  O231  1  0.31813000  0.87747000  0.22187000  1.0 -0.582109345
O  O232  1  0.54413000  0.89267000  0.11147000  1.0 -0.5882217026
O  O233  1  0.10733000  0.65147000  0.11147000  1.0 -0.582109345
O  O234  1  0.34853000  0.45587000  0.11147000  1.0 -0.5882217026
O  O235  1  0.75530000  0.78880000  0.51530000  1.0 -0.4616018204
O  O236  1  0.21120000  0.96650000  0.51530000  1.0 -0.4616018204
O  O237  1  0.03350000  0.24470000  0.51530000  1.0 -0.4616018204
O  O238  1  0.24470000  0.21120000  0.48470000  1.0 -0.4616018204
O  O239  1  0.78880000  0.03350000  0.48470000  1.0 -0.4616018204
O  O240  1  0.96650000  0.75530000  0.48470000  1.0 -0.4616018204
O  O241  1  0.42197000  0.12213000  0.84863000  1.0 -0.4616018204
O  O242  1  0.87787000  0.29983000  0.84863000  1.0 -0.4616018204
O  O243  1  0.70017000  0.57803000  0.84863000  1.0 -0.4616018204
O  O244  1  0.91137000  0.54453000  0.81803000  1.0 -0.4616018204
O  O245  1  0.45547000  0.36683000  0.81803000  1.0 -0.4616018204
O  O246  1  0.63317000  0.08863000  0.81803000  1.0 -0.4616018204
O  O247  1  0.08863000  0.45547000  0.18197000  1.0 -0.4616018204
O  O248  1  0.54453000  0.63317000  0.18197000  1.0 -0.4616018204
O  O249  1  0.36683000  0.91137000  0.18197000  1.0 -0.4616018204
O  O250  1  0.57803000  0.87787000  0.15137000  1.0 -0.4616018204
O  O251  1  0.12213000  0.70017000  0.15137000  1.0 -0.4616018204
O  O252  1  0.29983000  0.42197000  0.15137000  1.0 -0.4616018204
O  O253  1  0.75270000  0.53060000  0.46510000  1.0 -0.2913531787
O  O254  1  0.46940000  0.22210000  0.46510000  1.0 -0.2913531787
O  O255  1  0.77790000  0.24730000  0.46510000  1.0 -0.2913531787
O  O256  1  0.24730000  0.46940000  0.53490000  1.0 -0.2913531787
O  O257  1  0.53060000  0.77790000  0.53490000  1.0 -0.2913531787
O  O258  1  0.22210000  0.75270000  0.53490000  1.0 -0.2913531787
O  O259  1  0.41937000  0.86393000  0.79843000  1.0 -0.2913531787
O  O260  1  0.13607000  0.55543000  0.79843000  1.0 -0.2913531787
O  O261  1  0.44457000  0.58063000  0.79843000  1.0 -0.2913531787
O  O262  1  0.91397000  0.80273000  0.86823000  1.0 -0.2913531787
O  O263  1  0.19727000  0.11123000  0.86823000  1.0 -0.2913531787
O  O264  1  0.88877000  0.08603000  0.86823000  1.0 -0.2913531787
O  O265  1  0.08603000  0.19727000  0.13177000  1.0 -0.2913531787
O  O266  1  0.80273000  0.88877000  0.13177000  1.0 -0.2913531787
O  O267  1  0.11123000  0.91397000  0.13177000  1.0 -0.2913531787
O  O268  1  0.58063000  0.13607000  0.20157000  1.0 -0.2913531787
O  O269  1  0.86393000  0.44457000  0.20157000  1.0 -0.2913531787
O  O270  1  0.55543000  0.41937000  0.20157000  1.0 -0.2913531787
