# DDEC6 charges by PACMAN v1.1 (https://github.com/mtap-research/PACMAN-charge/)
data_ACUTOI_ASR_pacman
_symmetry_space_group_name_H-M   'P 1'
_cell_length_a   7.08220000
_cell_length_b   20.72000000
_cell_length_c   22.87800000
_cell_angle_alpha   90.00000000
_cell_angle_beta   90.00000000
_cell_angle_gamma   90.00000000
_symmetry_Int_Tables_number   1
_chemical_formula_structural   NaCdH9C11SNO7
_chemical_formula_sum   'Na8 Cd8 H72 C88 S8 N8 O56'
_cell_volume   3357.19056355
_cell_formula_units_Z   8
loop_
 _symmetry_equiv_pos_site_id
 _symmetry_equiv_pos_as_xyz
  1  'x, y, z'
loop_
 _atom_site_type_symbol
 _atom_site_label
 _atom_site_symmetry_multiplicity
 _atom_site_fract_x
 _atom_site_fract_y
 _atom_site_fract_z
 _atom_site_occupancy
 _atom_site_charge
Na  Na1  1  0.17360000  0.45583000  0.04959000  1.0 0.8703444192
Na  Na2  1  0.32640000  0.04417000  0.54959000  1.0 0.8703444192
Na  Na3  1  0.32640000  0.95583000  0.95041000  1.0 0.8703444192
Na  Na4  1  0.17360000  0.54417000  0.45041000  1.0 0.8703444192
Na  Na5  1  0.82640000  0.54417000  0.95041000  1.0 0.8703444192
Na  Na6  1  0.67360000  0.95583000  0.45041000  1.0 0.8703444192
Na  Na7  1  0.67360000  0.04417000  0.04959000  1.0 0.8703444192
Na  Na8  1  0.82640000  0.45583000  0.54959000  1.0 0.8703444192
Cd  Cd1  1  0.22058000  0.95968000  0.09690000  1.0 0.9572447951
Cd  Cd2  1  0.27942000  0.54032000  0.59690000  1.0 0.9572447951
Cd  Cd3  1  0.27942000  0.45968000  0.90310000  1.0 0.9572447951
Cd  Cd4  1  0.22058000  0.04032000  0.40310000  1.0 0.9572447951
Cd  Cd5  1  0.77942000  0.04032000  0.90310000  1.0 0.9572447951
Cd  Cd6  1  0.72058000  0.45968000  0.40310000  1.0 0.9572447951
Cd  Cd7  1  0.72058000  0.54032000  0.09690000  1.0 0.9572447951
Cd  Cd8  1  0.77942000  0.95968000  0.59690000  1.0 0.9572447951
H  H1  1  0.21910000  0.72370000  0.10980000  1.0 0.1396664272
H  H2  1  0.28090000  0.77630000  0.60980000  1.0 0.1396664272
H  H3  1  0.28090000  0.22370000  0.89020000  1.0 0.1396664272
H  H4  1  0.21910000  0.27630000  0.39020000  1.0 0.1396664272
H  H5  1  0.78090000  0.27630000  0.89020000  1.0 0.1396664272
H  H6  1  0.71910000  0.22370000  0.39020000  1.0 0.1396664272
H  H7  1  0.71910000  0.77630000  0.10980000  1.0 0.1396664272
H  H8  1  0.78090000  0.72370000  0.60980000  1.0 0.1396664272
H  H9  1  0.26290000  0.79490000  0.94800000  1.0 0.1139750893
H  H10  1  0.23710000  0.70510000  0.44800000  1.0 0.1139750893
H  H11  1  0.23710000  0.29490000  0.05200000  1.0 0.1139750893
H  H12  1  0.26290000  0.20510000  0.55200000  1.0 0.1139750893
H  H13  1  0.73710000  0.20510000  0.05200000  1.0 0.1139750893
H  H14  1  0.76290000  0.29490000  0.55200000  1.0 0.1139750893
H  H15  1  0.76290000  0.70510000  0.94800000  1.0 0.1139750893
H  H16  1  0.73710000  0.79490000  0.44800000  1.0 0.1139750893
H  H17  1  0.28930000  0.69160000  0.91130000  1.0 0.1186753141
H  H18  1  0.21070000  0.80840000  0.41130000  1.0 0.1186753141
H  H19  1  0.21070000  0.19160000  0.08870000  1.0 0.1186753141
H  H20  1  0.28930000  0.30840000  0.58870000  1.0 0.1186753141
H  H21  1  0.71070000  0.30840000  0.08870000  1.0 0.1186753141
H  H22  1  0.78930000  0.19160000  0.58870000  1.0 0.1186753141
H  H23  1  0.78930000  0.80840000  0.91130000  1.0 0.1186753141
H  H24  1  0.71070000  0.69160000  0.41130000  1.0 0.1186753141
H  H25  1  0.96990000  0.02070000  0.19520000  1.0 0.1186753141
H  H26  1  0.53010000  0.47930000  0.69520000  1.0 0.1186753141
H  H27  1  0.53010000  0.52070000  0.80480000  1.0 0.1186753141
H  H28  1  0.96990000  0.97930000  0.30480000  1.0 0.1186753141
H  H29  1  0.03010000  0.97930000  0.80480000  1.0 0.1186753141
H  H30  1  0.46990000  0.52070000  0.30480000  1.0 0.1186753141
H  H31  1  0.46990000  0.47930000  0.19520000  1.0 0.1186753141
H  H32  1  0.03010000  0.02070000  0.69520000  1.0 0.1186753141
H  H33  1  0.98030000  0.94810000  0.21420000  1.0 0.127978612
H  H34  1  0.51970000  0.55190000  0.71420000  1.0 0.127978612
H  H35  1  0.51970000  0.44810000  0.78580000  1.0 0.127978612
H  H36  1  0.98030000  0.05190000  0.28580000  1.0 0.127978612
H  H37  1  0.01970000  0.05190000  0.78580000  1.0 0.127978612
H  H38  1  0.48030000  0.44810000  0.28580000  1.0 0.127978612
H  H39  1  0.48030000  0.55190000  0.21420000  1.0 0.127978612
H  H40  1  0.01970000  0.94810000  0.71420000  1.0 0.127978612
H  H41  1  0.45190000  0.04770000  0.19050000  1.0 0.1186753141
H  H42  1  0.04810000  0.45230000  0.69050000  1.0 0.1186753141
H  H43  1  0.04810000  0.54770000  0.80950000  1.0 0.1186753141
H  H44  1  0.45190000  0.95230000  0.30950000  1.0 0.1186753141
H  H45  1  0.54810000  0.95230000  0.80950000  1.0 0.1186753141
H  H46  1  0.95190000  0.54770000  0.30950000  1.0 0.1186753141
H  H47  1  0.95190000  0.45230000  0.19050000  1.0 0.1186753141
H  H48  1  0.54810000  0.04770000  0.69050000  1.0 0.1186753141
H  H49  1  0.25390000  0.08140000  0.18570000  1.0 0.1186753141
H  H50  1  0.24610000  0.41860000  0.68570000  1.0 0.1186753141
H  H51  1  0.24610000  0.58140000  0.81430000  1.0 0.1186753141
H  H52  1  0.25390000  0.91860000  0.31430000  1.0 0.1186753141
H  H53  1  0.74610000  0.91860000  0.81430000  1.0 0.1186753141
H  H54  1  0.75390000  0.58140000  0.31430000  1.0 0.1186753141
H  H55  1  0.75390000  0.41860000  0.18570000  1.0 0.1186753141
H  H56  1  0.74610000  0.08140000  0.68570000  1.0 0.1186753141
H  H57  1  0.26780000  0.89660000  0.22120000  1.0 0.127978612
H  H58  1  0.23220000  0.60340000  0.72120000  1.0 0.127978612
H  H59  1  0.23220000  0.39660000  0.77880000  1.0 0.127978612
H  H60  1  0.26780000  0.10340000  0.27880000  1.0 0.127978612
H  H61  1  0.73220000  0.10340000  0.77880000  1.0 0.127978612
H  H62  1  0.76780000  0.39660000  0.27880000  1.0 0.127978612
H  H63  1  0.76780000  0.60340000  0.22120000  1.0 0.127978612
H  H64  1  0.73220000  0.89660000  0.72120000  1.0 0.127978612
H  H65  1  0.45800000  0.93470000  0.21550000  1.0 0.127978612
H  H66  1  0.04200000  0.56530000  0.71550000  1.0 0.127978612
H  H67  1  0.04200000  0.43470000  0.78450000  1.0 0.127978612
H  H68  1  0.45800000  0.06530000  0.28450000  1.0 0.127978612
H  H69  1  0.54200000  0.06530000  0.78450000  1.0 0.127978612
H  H70  1  0.95800000  0.43470000  0.28450000  1.0 0.127978612
H  H71  1  0.95800000  0.56530000  0.21550000  1.0 0.127978612
H  H72  1  0.54200000  0.93470000  0.71550000  1.0 0.127978612
C  C1  1  0.26180000  0.64380000  0.98830000  1.0 -0.0320977529
C  C2  1  0.23820000  0.85620000  0.48830000  1.0 -0.0320977529
C  C3  1  0.23820000  0.14380000  0.01170000  1.0 -0.0320977529
C  C4  1  0.26180000  0.35620000  0.51170000  1.0 -0.0320977529
C  C5  1  0.73820000  0.35620000  0.01170000  1.0 -0.0320977529
C  C6  1  0.76180000  0.14380000  0.51170000  1.0 -0.0320977529
C  C7  1  0.76180000  0.85620000  0.98830000  1.0 -0.0320977529
C  C8  1  0.73820000  0.64380000  0.48830000  1.0 -0.0320977529
C  C9  1  0.23030000  0.71710000  0.06970000  1.0 -0.098696444
C  C10  1  0.26970000  0.78290000  0.56970000  1.0 -0.098696444
C  C11  1  0.26970000  0.21710000  0.93030000  1.0 -0.098696444
C  C12  1  0.23030000  0.28290000  0.43030000  1.0 -0.098696444
C  C13  1  0.76970000  0.28290000  0.93030000  1.0 -0.098696444
C  C14  1  0.73030000  0.21710000  0.43030000  1.0 -0.098696444
C  C15  1  0.73030000  0.78290000  0.06970000  1.0 -0.098696444
C  C16  1  0.76970000  0.71710000  0.56970000  1.0 -0.098696444
C  C17  1  0.23060000  0.83750000  0.05680000  1.0 0.5585530514
C  C18  1  0.26940000  0.66250000  0.55680000  1.0 0.5585530514
C  C19  1  0.26940000  0.33750000  0.94320000  1.0 0.5585530514
C  C20  1  0.23060000  0.16250000  0.44320000  1.0 0.5585530514
C  C21  1  0.76940000  0.16250000  0.94320000  1.0 0.5585530514
C  C22  1  0.73060000  0.33750000  0.44320000  1.0 0.5585530514
C  C23  1  0.73060000  0.66250000  0.05680000  1.0 0.5585530514
C  C24  1  0.76940000  0.83750000  0.55680000  1.0 0.5585530514
C  C25  1  0.23860000  0.65470000  0.04880000  1.0 -0.1113147133
C  C26  1  0.26140000  0.84530000  0.54880000  1.0 -0.1113147133
C  C27  1  0.26140000  0.15470000  0.95120000  1.0 -0.1113147133
C  C28  1  0.23860000  0.34530000  0.45120000  1.0 -0.1113147133
C  C29  1  0.76140000  0.34530000  0.95120000  1.0 -0.1113147133
C  C30  1  0.73860000  0.15470000  0.45120000  1.0 -0.1113147133
C  C31  1  0.73860000  0.84530000  0.04880000  1.0 -0.1113147133
C  C32  1  0.76140000  0.65470000  0.54880000  1.0 -0.1113147133
C  C33  1  0.23800000  0.77020000  0.03310000  1.0 -0.0193848654
C  C34  1  0.26200000  0.72980000  0.53310000  1.0 -0.0193848654
C  C35  1  0.26200000  0.27020000  0.96690000  1.0 -0.0193848654
C  C36  1  0.23800000  0.22980000  0.46690000  1.0 -0.0193848654
C  C37  1  0.76200000  0.22980000  0.96690000  1.0 -0.0193848654
C  C38  1  0.73800000  0.27020000  0.46690000  1.0 -0.0193848654
C  C39  1  0.73800000  0.72980000  0.03310000  1.0 -0.0193848654
C  C40  1  0.76200000  0.77020000  0.53310000  1.0 -0.0193848654
C  C41  1  0.25850000  0.75980000  0.97330000  1.0 -0.098696444
C  C42  1  0.24150000  0.74020000  0.47330000  1.0 -0.098696444
C  C43  1  0.24150000  0.25980000  0.02670000  1.0 -0.098696444
C  C44  1  0.25850000  0.24020000  0.52670000  1.0 -0.098696444
C  C45  1  0.74150000  0.24020000  0.02670000  1.0 -0.098696444
C  C46  1  0.75850000  0.25980000  0.52670000  1.0 -0.098696444
C  C47  1  0.75850000  0.74020000  0.97330000  1.0 -0.098696444
C  C48  1  0.74150000  0.75980000  0.47330000  1.0 -0.098696444
C  C49  1  0.27260000  0.69770000  0.95130000  1.0 -0.1187196372
C  C50  1  0.22740000  0.80230000  0.45130000  1.0 -0.1187196372
C  C51  1  0.22740000  0.19770000  0.04870000  1.0 -0.1187196372
C  C52  1  0.27260000  0.30230000  0.54870000  1.0 -0.1187196372
C  C53  1  0.72740000  0.30230000  0.04870000  1.0 -0.1187196372
C  C54  1  0.77260000  0.19770000  0.54870000  1.0 -0.1187196372
C  C55  1  0.77260000  0.80230000  0.95130000  1.0 -0.1187196372
C  C56  1  0.72740000  0.69770000  0.45130000  1.0 -0.1187196372
C  C57  1  0.28000000  0.57980000  0.95860000  1.0 0.5585530514
C  C58  1  0.22000000  0.92020000  0.45860000  1.0 0.5585530514
C  C59  1  0.22000000  0.07980000  0.04140000  1.0 0.5585530514
C  C60  1  0.28000000  0.42020000  0.54140000  1.0 0.5585530514
C  C61  1  0.72000000  0.42020000  0.04140000  1.0 0.5585530514
C  C62  1  0.78000000  0.07980000  0.54140000  1.0 0.5585530514
C  C63  1  0.78000000  0.92020000  0.95860000  1.0 0.5585530514
C  C64  1  0.72000000  0.57980000  0.45860000  1.0 0.5585530514
C  C65  1  0.04170000  0.98970000  0.21790000  1.0 -0.1379925196
C  C66  1  0.45830000  0.51030000  0.71790000  1.0 -0.1379925196
C  C67  1  0.45830000  0.48970000  0.78210000  1.0 -0.1379925196
C  C68  1  0.04170000  0.01030000  0.28210000  1.0 -0.1379925196
C  C69  1  0.95830000  0.01030000  0.78210000  1.0 -0.1379925196
C  C70  1  0.54170000  0.48970000  0.28210000  1.0 -0.1379925196
C  C71  1  0.54170000  0.51030000  0.21790000  1.0 -0.1379925196
C  C72  1  0.95830000  0.98970000  0.71790000  1.0 -0.1379925196
C  C73  1  0.32400000  0.04780000  0.20560000  1.0 -0.1264632155
C  C74  1  0.17600000  0.45220000  0.70560000  1.0 -0.1264632155
C  C75  1  0.17600000  0.54780000  0.79440000  1.0 -0.1264632155
C  C76  1  0.32400000  0.95220000  0.29440000  1.0 -0.1264632155
C  C77  1  0.67600000  0.95220000  0.79440000  1.0 -0.1264632155
C  C78  1  0.82400000  0.54780000  0.29440000  1.0 -0.1264632155
C  C79  1  0.82400000  0.45220000  0.20560000  1.0 -0.1264632155
C  C80  1  0.67600000  0.04780000  0.70560000  1.0 -0.1264632155
C  C81  1  0.32800000  0.93800000  0.22820000  1.0 -0.1264632155
C  C82  1  0.17200000  0.56200000  0.72820000  1.0 -0.1264632155
C  C83  1  0.17200000  0.43800000  0.77180000  1.0 -0.1264632155
C  C84  1  0.32800000  0.06200000  0.27180000  1.0 -0.1264632155
C  C85  1  0.67200000  0.06200000  0.77180000  1.0 -0.1264632155
C  C86  1  0.82800000  0.43800000  0.27180000  1.0 -0.1264632155
C  C87  1  0.82800000  0.56200000  0.22820000  1.0 -0.1264632155
C  C88  1  0.67200000  0.93800000  0.72820000  1.0 -0.1264632155
S  S1  1  0.23670000  0.59094000  0.10096000  1.0 1.1843239854
S  S2  1  0.26330000  0.90906000  0.60096000  1.0 1.1843239854
S  S3  1  0.26330000  0.09094000  0.89904000  1.0 1.1843239854
S  S4  1  0.23670000  0.40906000  0.39904000  1.0 1.1843239854
S  S5  1  0.76330000  0.40906000  0.89904000  1.0 1.1843239854
S  S6  1  0.73670000  0.09094000  0.39904000  1.0 1.1843239854
S  S7  1  0.73670000  0.90906000  0.10096000  1.0 1.1843239854
S  S8  1  0.76330000  0.59094000  0.60096000  1.0 1.1843239854
N  N1  1  0.23600000  0.98540000  0.19400000  1.0 -0.1113147133
N  N2  1  0.26400000  0.51460000  0.69400000  1.0 -0.1113147133
N  N3  1  0.26400000  0.48540000  0.80600000  1.0 -0.1113147133
N  N4  1  0.23600000  0.01460000  0.30600000  1.0 -0.1113147133
N  N5  1  0.76400000  0.01460000  0.80600000  1.0 -0.1113147133
N  N6  1  0.73600000  0.48540000  0.30600000  1.0 -0.1113147133
N  N7  1  0.73600000  0.51460000  0.19400000  1.0 -0.1113147133
N  N8  1  0.76400000  0.98540000  0.69400000  1.0 -0.1113147133
O  O1  1  0.21610000  0.84580000  0.11030000  1.0 -0.5218857189
O  O2  1  0.28390000  0.65420000  0.61030000  1.0 -0.5218857189
O  O3  1  0.28390000  0.34580000  0.88970000  1.0 -0.5218857189
O  O4  1  0.21610000  0.15420000  0.38970000  1.0 -0.5218857189
O  O5  1  0.78390000  0.15420000  0.88970000  1.0 -0.5218857189
O  O6  1  0.71610000  0.34580000  0.38970000  1.0 -0.5218857189
O  O7  1  0.71610000  0.65420000  0.11030000  1.0 -0.5218857189
O  O8  1  0.78390000  0.84580000  0.61030000  1.0 -0.5218857189
O  O9  1  0.06030000  0.55510000  0.09550000  1.0 -0.685190316
O  O10  1  0.43970000  0.94490000  0.59550000  1.0 -0.685190316
O  O11  1  0.43970000  0.05510000  0.90450000  1.0 -0.685190316
O  O12  1  0.06030000  0.44490000  0.40450000  1.0 -0.685190316
O  O13  1  0.93970000  0.44490000  0.90450000  1.0 -0.685190316
O  O14  1  0.56030000  0.05510000  0.40450000  1.0 -0.685190316
O  O15  1  0.56030000  0.94490000  0.09550000  1.0 -0.685190316
O  O16  1  0.93970000  0.55510000  0.59550000  1.0 -0.685190316
O  O17  1  0.24010000  0.88390000  0.02160000  1.0 -0.6255275866
O  O18  1  0.25990000  0.61610000  0.52160000  1.0 -0.6255275866
O  O19  1  0.25990000  0.38390000  0.97840000  1.0 -0.6255275866
O  O20  1  0.24010000  0.11610000  0.47840000  1.0 -0.6255275866
O  O21  1  0.75990000  0.11610000  0.97840000  1.0 -0.6255275866
O  O22  1  0.74010000  0.38390000  0.47840000  1.0 -0.6255275866
O  O23  1  0.74010000  0.61610000  0.02160000  1.0 -0.6255275866
O  O24  1  0.75990000  0.88390000  0.52160000  1.0 -0.6255275866
O  O25  1  0.17200000  0.53580000  0.97000000  1.0 -0.6042119821
O  O26  1  0.32800000  0.96420000  0.47000000  1.0 -0.6042119821
O  O27  1  0.32800000  0.03580000  0.03000000  1.0 -0.6042119821
O  O28  1  0.17200000  0.46420000  0.53000000  1.0 -0.6042119821
O  O29  1  0.82800000  0.46420000  0.03000000  1.0 -0.6042119821
O  O30  1  0.67200000  0.03580000  0.53000000  1.0 -0.6042119821
O  O31  1  0.67200000  0.96420000  0.97000000  1.0 -0.6042119821
O  O32  1  0.82800000  0.53580000  0.47000000  1.0 -0.6042119821
O  O33  1  0.26350000  0.62120000  0.15620000  1.0 -0.5771410128
O  O34  1  0.23650000  0.87880000  0.65620000  1.0 -0.5771410128
O  O35  1  0.23650000  0.12120000  0.84380000  1.0 -0.5771410128
O  O36  1  0.26350000  0.37880000  0.34380000  1.0 -0.5771410128
O  O37  1  0.73650000  0.37880000  0.84380000  1.0 -0.5771410128
O  O38  1  0.76350000  0.12120000  0.34380000  1.0 -0.5771410128
O  O39  1  0.76350000  0.87880000  0.15620000  1.0 -0.5771410128
O  O40  1  0.73650000  0.62120000  0.65620000  1.0 -0.5771410128
O  O41  1  0.39080000  0.54720000  0.08490000  1.0 -0.6690567618
O  O42  1  0.10920000  0.95280000  0.58490000  1.0 -0.6690567618
O  O43  1  0.10920000  0.04720000  0.91510000  1.0 -0.6690567618
O  O44  1  0.39080000  0.45280000  0.41510000  1.0 -0.6690567618
O  O45  1  0.60920000  0.45280000  0.91510000  1.0 -0.6690567618
O  O46  1  0.89080000  0.04720000  0.41510000  1.0 -0.6690567618
O  O47  1  0.89080000  0.95280000  0.08490000  1.0 -0.6690567618
O  O48  1  0.60920000  0.54720000  0.58490000  1.0 -0.6690567618
O  O49  1  0.40510000  0.57280000  0.91890000  1.0 -0.5771410128
O  O50  1  0.09490000  0.92720000  0.41890000  1.0 -0.5771410128
O  O51  1  0.09490000  0.07280000  0.08110000  1.0 -0.5771410128
O  O52  1  0.40510000  0.42720000  0.58110000  1.0 -0.5771410128
O  O53  1  0.59490000  0.42720000  0.08110000  1.0 -0.5771410128
O  O54  1  0.90510000  0.07280000  0.58110000  1.0 -0.5771410128
O  O55  1  0.90510000  0.92720000  0.91890000  1.0 -0.5771410128
O  O56  1  0.59490000  0.57280000  0.41890000  1.0 -0.5771410128
