# DDEC6 charges by PACMAN v1.1 (https://github.com/mtap-research/PACMAN-charge/)
data_ADARAA_ASR_pacman
_symmetry_space_group_name_H-M   'P 1'
_cell_length_a   38.80500000
_cell_length_b   38.80500000
_cell_length_c   38.80500000
_cell_angle_alpha   90.00000000
_cell_angle_beta   90.00000000
_cell_angle_gamma   90.00000000
_symmetry_Int_Tables_number   1
_chemical_formula_structural   Co4H30C69Br8N6O11
_chemical_formula_sum   'Co96 H720 C1656 Br192 N144 O264'
_cell_volume   58433.65651013
_cell_formula_units_Z   24
loop_
 _symmetry_equiv_pos_site_id
 _symmetry_equiv_pos_as_xyz
  1  'x, y, z'
loop_
 _atom_site_type_symbol
 _atom_site_label
 _atom_site_symmetry_multiplicity
 _atom_site_fract_x
 _atom_site_fract_y
 _atom_site_fract_z
 _atom_site_occupancy
 _atom_site_charge
Co  Co1  1  0.04966000  0.63374000  0.02609000  1.0 1.1211016036
Co  Co2  1  0.45034000  0.36626000  0.52609000  1.0 1.1211016036
Co  Co3  1  0.95034000  0.13374000  0.47391000  1.0 1.1211016036
Co  Co4  1  0.54966000  0.86626000  0.97391000  1.0 1.1211016036
Co  Co5  1  0.02609000  0.04966000  0.63374000  1.0 1.1211016036
Co  Co6  1  0.52609000  0.45034000  0.36626000  1.0 1.1211016036
Co  Co7  1  0.47391000  0.95034000  0.13374000  1.0 1.1211016036
Co  Co8  1  0.97391000  0.54966000  0.86626000  1.0 1.1211016036
Co  Co9  1  0.63374000  0.02609000  0.04966000  1.0 1.1211016036
Co  Co10  1  0.36626000  0.52609000  0.45034000  1.0 1.1211016036
Co  Co11  1  0.13374000  0.47391000  0.95034000  1.0 1.1211016036
Co  Co12  1  0.86626000  0.97391000  0.54966000  1.0 1.1211016036
Co  Co13  1  0.95034000  0.36626000  0.97391000  1.0 1.1211016036
Co  Co14  1  0.54966000  0.63374000  0.47391000  1.0 1.1211016036
Co  Co15  1  0.04966000  0.86626000  0.52609000  1.0 1.1211016036
Co  Co16  1  0.45034000  0.13374000  0.02609000  1.0 1.1211016036
Co  Co17  1  0.97391000  0.95034000  0.36626000  1.0 1.1211016036
Co  Co18  1  0.47391000  0.54966000  0.63374000  1.0 1.1211016036
Co  Co19  1  0.52609000  0.04966000  0.86626000  1.0 1.1211016036
Co  Co20  1  0.02609000  0.45034000  0.13374000  1.0 1.1211016036
Co  Co21  1  0.36626000  0.97391000  0.95034000  1.0 1.1211016036
Co  Co22  1  0.63374000  0.47391000  0.54966000  1.0 1.1211016036
Co  Co23  1  0.86626000  0.52609000  0.04966000  1.0 1.1211016036
Co  Co24  1  0.13374000  0.02609000  0.45034000  1.0 1.1211016036
Co  Co25  1  0.04005000  0.77466000  0.53141000  1.0 0.7561645663
Co  Co26  1  0.45995000  0.22534000  0.03141000  1.0 0.7561645663
Co  Co27  1  0.95995000  0.27466000  0.96859000  1.0 0.7561645663
Co  Co28  1  0.54005000  0.72534000  0.46859000  1.0 0.7561645663
Co  Co29  1  0.53141000  0.04005000  0.77466000  1.0 0.7561645663
Co  Co30  1  0.03141000  0.45995000  0.22534000  1.0 0.7561645663
Co  Co31  1  0.96859000  0.95995000  0.27466000  1.0 0.7561645663
Co  Co32  1  0.46859000  0.54005000  0.72534000  1.0 0.7561645663
Co  Co33  1  0.77466000  0.53141000  0.04005000  1.0 0.7561645663
Co  Co34  1  0.22534000  0.03141000  0.45995000  1.0 0.7561645663
Co  Co35  1  0.27466000  0.96859000  0.95995000  1.0 0.7561645663
Co  Co36  1  0.72534000  0.46859000  0.54005000  1.0 0.7561645663
Co  Co37  1  0.95995000  0.22534000  0.46859000  1.0 0.7561645663
Co  Co38  1  0.54005000  0.77466000  0.96859000  1.0 0.7561645663
Co  Co39  1  0.04005000  0.72534000  0.03141000  1.0 0.7561645663
Co  Co40  1  0.45995000  0.27466000  0.53141000  1.0 0.7561645663
Co  Co41  1  0.46859000  0.95995000  0.22534000  1.0 0.7561645663
Co  Co42  1  0.96859000  0.54005000  0.77466000  1.0 0.7561645663
Co  Co43  1  0.03141000  0.04005000  0.72534000  1.0 0.7561645663
Co  Co44  1  0.53141000  0.45995000  0.27466000  1.0 0.7561645663
Co  Co45  1  0.22534000  0.46859000  0.95995000  1.0 0.7561645663
Co  Co46  1  0.77466000  0.96859000  0.54005000  1.0 0.7561645663
Co  Co47  1  0.72534000  0.03141000  0.04005000  1.0 0.7561645663
Co  Co48  1  0.27466000  0.53141000  0.45995000  1.0 0.7561645663
Co  Co49  1  0.03356000  0.68551000  0.29600000  1.0 0.4007287504
Co  Co50  1  0.46644000  0.31449000  0.79600000  1.0 0.4007287504
Co  Co51  1  0.96644000  0.18551000  0.20400000  1.0 0.4007287504
Co  Co52  1  0.53356000  0.81449000  0.70400000  1.0 0.4007287504
Co  Co53  1  0.29600000  0.03356000  0.68551000  1.0 0.4007287504
Co  Co54  1  0.79600000  0.46644000  0.31449000  1.0 0.4007287504
Co  Co55  1  0.20400000  0.96644000  0.18551000  1.0 0.4007287504
Co  Co56  1  0.70400000  0.53356000  0.81449000  1.0 0.4007287504
Co  Co57  1  0.68551000  0.29600000  0.03356000  1.0 0.4007287504
Co  Co58  1  0.31449000  0.79600000  0.46644000  1.0 0.4007287504
Co  Co59  1  0.18551000  0.20400000  0.96644000  1.0 0.4007287504
Co  Co60  1  0.81449000  0.70400000  0.53356000  1.0 0.4007287504
Co  Co61  1  0.96644000  0.31449000  0.70400000  1.0 0.4007287504
Co  Co62  1  0.53356000  0.68551000  0.20400000  1.0 0.4007287504
Co  Co63  1  0.03356000  0.81449000  0.79600000  1.0 0.4007287504
Co  Co64  1  0.46644000  0.18551000  0.29600000  1.0 0.4007287504
Co  Co65  1  0.70400000  0.96644000  0.31449000  1.0 0.4007287504
Co  Co66  1  0.20400000  0.53356000  0.68551000  1.0 0.4007287504
Co  Co67  1  0.79600000  0.03356000  0.81449000  1.0 0.4007287504
Co  Co68  1  0.29600000  0.46644000  0.18551000  1.0 0.4007287504
Co  Co69  1  0.31449000  0.70400000  0.96644000  1.0 0.4007287504
Co  Co70  1  0.68551000  0.20400000  0.53356000  1.0 0.4007287504
Co  Co71  1  0.81449000  0.79600000  0.03356000  1.0 0.4007287504
Co  Co72  1  0.18551000  0.29600000  0.46644000  1.0 0.4007287504
Co  Co73  1  0.09318000  0.71545000  0.01410000  1.0 0.7116414365
Co  Co74  1  0.40682000  0.28455000  0.51410000  1.0 0.7116414365
Co  Co75  1  0.90682000  0.21545000  0.48590000  1.0 0.7116414365
Co  Co76  1  0.59318000  0.78455000  0.98590000  1.0 0.7116414365
Co  Co77  1  0.01410000  0.09318000  0.71545000  1.0 0.7116414365
Co  Co78  1  0.51410000  0.40682000  0.28455000  1.0 0.7116414365
Co  Co79  1  0.48590000  0.90682000  0.21545000  1.0 0.7116414365
Co  Co80  1  0.98590000  0.59318000  0.78455000  1.0 0.7116414365
Co  Co81  1  0.71545000  0.01410000  0.09318000  1.0 0.7116414365
Co  Co82  1  0.28455000  0.51410000  0.40682000  1.0 0.7116414365
Co  Co83  1  0.21545000  0.48590000  0.90682000  1.0 0.7116414365
Co  Co84  1  0.78455000  0.98590000  0.59318000  1.0 0.7116414365
Co  Co85  1  0.90682000  0.28455000  0.98590000  1.0 0.7116414365
Co  Co86  1  0.59318000  0.71545000  0.48590000  1.0 0.7116414365
Co  Co87  1  0.09318000  0.78455000  0.51410000  1.0 0.7116414365
Co  Co88  1  0.40682000  0.21545000  0.01410000  1.0 0.7116414365
Co  Co89  1  0.98590000  0.90682000  0.28455000  1.0 0.7116414365
Co  Co90  1  0.48590000  0.59318000  0.71545000  1.0 0.7116414365
Co  Co91  1  0.51410000  0.09318000  0.78455000  1.0 0.7116414365
Co  Co92  1  0.01410000  0.40682000  0.21545000  1.0 0.7116414365
Co  Co93  1  0.28455000  0.98590000  0.90682000  1.0 0.7116414365
Co  Co94  1  0.71545000  0.48590000  0.59318000  1.0 0.7116414365
Co  Co95  1  0.78455000  0.51410000  0.09318000  1.0 0.7116414365
Co  Co96  1  0.21545000  0.01410000  0.40682000  1.0 0.7116414365
H  H1  1  0.01600000  0.86440000  0.42490000  1.0 0.1371518455
H  H2  1  0.48400000  0.13560000  0.92490000  1.0 0.1371518455
H  H3  1  0.98400000  0.36440000  0.07510000  1.0 0.1371518455
H  H4  1  0.51600000  0.63560000  0.57510000  1.0 0.1371518455
H  H5  1  0.42490000  0.01600000  0.86440000  1.0 0.1371518455
H  H6  1  0.92490000  0.48400000  0.13560000  1.0 0.1371518455
H  H7  1  0.07510000  0.98400000  0.36440000  1.0 0.1371518455
H  H8  1  0.57510000  0.51600000  0.63560000  1.0 0.1371518455
H  H9  1  0.86440000  0.42490000  0.01600000  1.0 0.1371518455
H  H10  1  0.13560000  0.92490000  0.48400000  1.0 0.1371518455
H  H11  1  0.36440000  0.07510000  0.98400000  1.0 0.1371518455
H  H12  1  0.63560000  0.57510000  0.51600000  1.0 0.1371518455
H  H13  1  0.98400000  0.13560000  0.57510000  1.0 0.1371518455
H  H14  1  0.51600000  0.86440000  0.07510000  1.0 0.1371518455
H  H15  1  0.01600000  0.63560000  0.92490000  1.0 0.1371518455
H  H16  1  0.48400000  0.36440000  0.42490000  1.0 0.1371518455
H  H17  1  0.57510000  0.98400000  0.13560000  1.0 0.1371518455
H  H18  1  0.07510000  0.51600000  0.86440000  1.0 0.1371518455
H  H19  1  0.92490000  0.01600000  0.63560000  1.0 0.1371518455
H  H20  1  0.42490000  0.48400000  0.36440000  1.0 0.1371518455
H  H21  1  0.13560000  0.57510000  0.98400000  1.0 0.1371518455
H  H22  1  0.86440000  0.07510000  0.51600000  1.0 0.1371518455
H  H23  1  0.63560000  0.92490000  0.01600000  1.0 0.1371518455
H  H24  1  0.36440000  0.42490000  0.48400000  1.0 0.1371518455
H  H25  1  0.03820000  0.76650000  0.41920000  1.0 0.1201448722
H  H26  1  0.46180000  0.23350000  0.91920000  1.0 0.1201448722
H  H27  1  0.96180000  0.26650000  0.08080000  1.0 0.1201448722
H  H28  1  0.53820000  0.73350000  0.58080000  1.0 0.1201448722
H  H29  1  0.41920000  0.03820000  0.76650000  1.0 0.1201448722
H  H30  1  0.91920000  0.46180000  0.23350000  1.0 0.1201448722
H  H31  1  0.08080000  0.96180000  0.26650000  1.0 0.1201448722
H  H32  1  0.58080000  0.53820000  0.73350000  1.0 0.1201448722
H  H33  1  0.76650000  0.41920000  0.03820000  1.0 0.1201448722
H  H34  1  0.23350000  0.91920000  0.46180000  1.0 0.1201448722
H  H35  1  0.26650000  0.08080000  0.96180000  1.0 0.1201448722
H  H36  1  0.73350000  0.58080000  0.53820000  1.0 0.1201448722
H  H37  1  0.96180000  0.23350000  0.58080000  1.0 0.1201448722
H  H38  1  0.53820000  0.76650000  0.08080000  1.0 0.1201448722
H  H39  1  0.03820000  0.73350000  0.91920000  1.0 0.1201448722
H  H40  1  0.46180000  0.26650000  0.41920000  1.0 0.1201448722
H  H41  1  0.58080000  0.96180000  0.23350000  1.0 0.1201448722
H  H42  1  0.08080000  0.53820000  0.76650000  1.0 0.1201448722
H  H43  1  0.91920000  0.03820000  0.73350000  1.0 0.1201448722
H  H44  1  0.41920000  0.46180000  0.26650000  1.0 0.1201448722
H  H45  1  0.23350000  0.58080000  0.96180000  1.0 0.1201448722
H  H46  1  0.76650000  0.08080000  0.53820000  1.0 0.1201448722
H  H47  1  0.73350000  0.91920000  0.03820000  1.0 0.1201448722
H  H48  1  0.26650000  0.41920000  0.46180000  1.0 0.1201448722
H  H49  1  0.00340000  0.81160000  0.33540000  1.0 0.1286797044
H  H50  1  0.49660000  0.18840000  0.83540000  1.0 0.1286797044
H  H51  1  0.99660000  0.31160000  0.16460000  1.0 0.1286797044
H  H52  1  0.50340000  0.68840000  0.66460000  1.0 0.1286797044
H  H53  1  0.33540000  0.00340000  0.81160000  1.0 0.1286797044
H  H54  1  0.83540000  0.49660000  0.18840000  1.0 0.1286797044
H  H55  1  0.16460000  0.99660000  0.31160000  1.0 0.1286797044
H  H56  1  0.66460000  0.50340000  0.68840000  1.0 0.1286797044
H  H57  1  0.81160000  0.33540000  0.00340000  1.0 0.1286797044
H  H58  1  0.18840000  0.83540000  0.49660000  1.0 0.1286797044
H  H59  1  0.31160000  0.16460000  0.99660000  1.0 0.1286797044
H  H60  1  0.68840000  0.66460000  0.50340000  1.0 0.1286797044
H  H61  1  0.99660000  0.18840000  0.66460000  1.0 0.1286797044
H  H62  1  0.50340000  0.81160000  0.16460000  1.0 0.1286797044
H  H63  1  0.00340000  0.68840000  0.83540000  1.0 0.1286797044
H  H64  1  0.49660000  0.31160000  0.33540000  1.0 0.1286797044
H  H65  1  0.66460000  0.99660000  0.18840000  1.0 0.1286797044
H  H66  1  0.16460000  0.50340000  0.81160000  1.0 0.1286797044
H  H67  1  0.83540000  0.00340000  0.68840000  1.0 0.1286797044
H  H68  1  0.33540000  0.49660000  0.31160000  1.0 0.1286797044
H  H69  1  0.18840000  0.66460000  0.99660000  1.0 0.1286797044
H  H70  1  0.81160000  0.16460000  0.50340000  1.0 0.1286797044
H  H71  1  0.68840000  0.83540000  0.00340000  1.0 0.1286797044
H  H72  1  0.31160000  0.33540000  0.49660000  1.0 0.1286797044
H  H73  1  0.06280000  0.64910000  0.16600000  1.0 0.1201448722
H  H74  1  0.43720000  0.35090000  0.66600000  1.0 0.1201448722
H  H75  1  0.93720000  0.14910000  0.33400000  1.0 0.1201448722
H  H76  1  0.56280000  0.85090000  0.83400000  1.0 0.1201448722
H  H77  1  0.16600000  0.06280000  0.64910000  1.0 0.1201448722
H  H78  1  0.66600000  0.43720000  0.35090000  1.0 0.1201448722
H  H79  1  0.33400000  0.93720000  0.14910000  1.0 0.1201448722
H  H80  1  0.83400000  0.56280000  0.85090000  1.0 0.1201448722
H  H81  1  0.64910000  0.16600000  0.06280000  1.0 0.1201448722
H  H82  1  0.35090000  0.66600000  0.43720000  1.0 0.1201448722
H  H83  1  0.14910000  0.33400000  0.93720000  1.0 0.1201448722
H  H84  1  0.85090000  0.83400000  0.56280000  1.0 0.1201448722
H  H85  1  0.93720000  0.35090000  0.83400000  1.0 0.1201448722
H  H86  1  0.56280000  0.64910000  0.33400000  1.0 0.1201448722
H  H87  1  0.06280000  0.85090000  0.66600000  1.0 0.1201448722
H  H88  1  0.43720000  0.14910000  0.16600000  1.0 0.1201448722
H  H89  1  0.83400000  0.93720000  0.35090000  1.0 0.1201448722
H  H90  1  0.33400000  0.56280000  0.64910000  1.0 0.1201448722
H  H91  1  0.66600000  0.06280000  0.85090000  1.0 0.1201448722
H  H92  1  0.16600000  0.43720000  0.14910000  1.0 0.1201448722
H  H93  1  0.35090000  0.83400000  0.93720000  1.0 0.1201448722
H  H94  1  0.64910000  0.33400000  0.56280000  1.0 0.1201448722
H  H95  1  0.85090000  0.66600000  0.06280000  1.0 0.1201448722
H  H96  1  0.14910000  0.16600000  0.43720000  1.0 0.1201448722
H  H97  1  0.05200000  0.55940000  0.11560000  1.0 0.1286797044
H  H98  1  0.44800000  0.44060000  0.61560000  1.0 0.1286797044
H  H99  1  0.94800000  0.05940000  0.38440000  1.0 0.1286797044
H  H100  1  0.55200000  0.94060000  0.88440000  1.0 0.1286797044
H  H101  1  0.11560000  0.05200000  0.55940000  1.0 0.1286797044
H  H102  1  0.61560000  0.44800000  0.44060000  1.0 0.1286797044
H  H103  1  0.38440000  0.94800000  0.05940000  1.0 0.1286797044
H  H104  1  0.88440000  0.55200000  0.94060000  1.0 0.1286797044
H  H105  1  0.55940000  0.11560000  0.05200000  1.0 0.1286797044
H  H106  1  0.44060000  0.61560000  0.44800000  1.0 0.1286797044
H  H107  1  0.05940000  0.38440000  0.94800000  1.0 0.1286797044
H  H108  1  0.94060000  0.88440000  0.55200000  1.0 0.1286797044
H  H109  1  0.94800000  0.44060000  0.88440000  1.0 0.1286797044
H  H110  1  0.55200000  0.55940000  0.38440000  1.0 0.1286797044
H  H111  1  0.05200000  0.94060000  0.61560000  1.0 0.1286797044
H  H112  1  0.44800000  0.05940000  0.11560000  1.0 0.1286797044
H  H113  1  0.88440000  0.94800000  0.44060000  1.0 0.1286797044
H  H114  1  0.38440000  0.55200000  0.55940000  1.0 0.1286797044
H  H115  1  0.61560000  0.05200000  0.94060000  1.0 0.1286797044
H  H116  1  0.11560000  0.44800000  0.05940000  1.0 0.1286797044
H  H117  1  0.44060000  0.88440000  0.94800000  1.0 0.1286797044
H  H118  1  0.55940000  0.38440000  0.55200000  1.0 0.1286797044
H  H119  1  0.94060000  0.61560000  0.05200000  1.0 0.1286797044
H  H120  1  0.05940000  0.11560000  0.44800000  1.0 0.1286797044
H  H121  1  0.04020000  0.56350000  0.21820000  1.0 0.1201448722
H  H122  1  0.45980000  0.43650000  0.71820000  1.0 0.1201448722
H  H123  1  0.95980000  0.06350000  0.28180000  1.0 0.1201448722
H  H124  1  0.54020000  0.93650000  0.78180000  1.0 0.1201448722
H  H125  1  0.21820000  0.04020000  0.56350000  1.0 0.1201448722
H  H126  1  0.71820000  0.45980000  0.43650000  1.0 0.1201448722
H  H127  1  0.28180000  0.95980000  0.06350000  1.0 0.1201448722
H  H128  1  0.78180000  0.54020000  0.93650000  1.0 0.1201448722
H  H129  1  0.56350000  0.21820000  0.04020000  1.0 0.1201448722
H  H130  1  0.43650000  0.71820000  0.45980000  1.0 0.1201448722
H  H131  1  0.06350000  0.28180000  0.95980000  1.0 0.1201448722
H  H132  1  0.93650000  0.78180000  0.54020000  1.0 0.1201448722
H  H133  1  0.95980000  0.43650000  0.78180000  1.0 0.1201448722
H  H134  1  0.54020000  0.56350000  0.28180000  1.0 0.1201448722
H  H135  1  0.04020000  0.93650000  0.71820000  1.0 0.1201448722
H  H136  1  0.45980000  0.06350000  0.21820000  1.0 0.1201448722
H  H137  1  0.78180000  0.95980000  0.43650000  1.0 0.1201448722
H  H138  1  0.28180000  0.54020000  0.56350000  1.0 0.1201448722
H  H139  1  0.71820000  0.04020000  0.93650000  1.0 0.1201448722
H  H140  1  0.21820000  0.45980000  0.06350000  1.0 0.1201448722
H  H141  1  0.43650000  0.78180000  0.95980000  1.0 0.1201448722
H  H142  1  0.56350000  0.28180000  0.54020000  1.0 0.1201448722
H  H143  1  0.93650000  0.71820000  0.04020000  1.0 0.1201448722
H  H144  1  0.06350000  0.21820000  0.45980000  1.0 0.1201448722
H  H145  1  0.10670000  0.59300000  0.23560000  1.0 0.0988467342
H  H146  1  0.39330000  0.40700000  0.73560000  1.0 0.0988467342
H  H147  1  0.89330000  0.09300000  0.26440000  1.0 0.0988467342
H  H148  1  0.60670000  0.90700000  0.76440000  1.0 0.0988467342
H  H149  1  0.23560000  0.10670000  0.59300000  1.0 0.0988467342
H  H150  1  0.73560000  0.39330000  0.40700000  1.0 0.0988467342
H  H151  1  0.26440000  0.89330000  0.09300000  1.0 0.0988467342
H  H152  1  0.76440000  0.60670000  0.90700000  1.0 0.0988467342
H  H153  1  0.59300000  0.23560000  0.10670000  1.0 0.0988467342
H  H154  1  0.40700000  0.73560000  0.39330000  1.0 0.0988467342
H  H155  1  0.09300000  0.26440000  0.89330000  1.0 0.0988467342
H  H156  1  0.90700000  0.76440000  0.60670000  1.0 0.0988467342
H  H157  1  0.89330000  0.40700000  0.76440000  1.0 0.0988467342
H  H158  1  0.60670000  0.59300000  0.26440000  1.0 0.0988467342
H  H159  1  0.10670000  0.90700000  0.73560000  1.0 0.0988467342
H  H160  1  0.39330000  0.09300000  0.23560000  1.0 0.0988467342
H  H161  1  0.76440000  0.89330000  0.40700000  1.0 0.0988467342
H  H162  1  0.26440000  0.60670000  0.59300000  1.0 0.0988467342
H  H163  1  0.73560000  0.10670000  0.90700000  1.0 0.0988467342
H  H164  1  0.23560000  0.39330000  0.09300000  1.0 0.0988467342
H  H165  1  0.40700000  0.76440000  0.89330000  1.0 0.0988467342
H  H166  1  0.59300000  0.26440000  0.60670000  1.0 0.0988467342
H  H167  1  0.90700000  0.73560000  0.10670000  1.0 0.0988467342
H  H168  1  0.09300000  0.23560000  0.39330000  1.0 0.0988467342
H  H169  1  0.14510000  0.61830000  0.28010000  1.0 0.089765146
H  H170  1  0.35490000  0.38170000  0.78010000  1.0 0.089765146
H  H171  1  0.85490000  0.11830000  0.21990000  1.0 0.089765146
H  H172  1  0.64510000  0.88170000  0.71990000  1.0 0.089765146
H  H173  1  0.28010000  0.14510000  0.61830000  1.0 0.089765146
H  H174  1  0.78010000  0.35490000  0.38170000  1.0 0.089765146
H  H175  1  0.21990000  0.85490000  0.11830000  1.0 0.089765146
H  H176  1  0.71990000  0.64510000  0.88170000  1.0 0.089765146
H  H177  1  0.61830000  0.28010000  0.14510000  1.0 0.089765146
H  H178  1  0.38170000  0.78010000  0.35490000  1.0 0.089765146
H  H179  1  0.11830000  0.21990000  0.85490000  1.0 0.089765146
H  H180  1  0.88170000  0.71990000  0.64510000  1.0 0.089765146
H  H181  1  0.85490000  0.38170000  0.71990000  1.0 0.089765146
H  H182  1  0.64510000  0.61830000  0.21990000  1.0 0.089765146
H  H183  1  0.14510000  0.88170000  0.78010000  1.0 0.089765146
H  H184  1  0.35490000  0.11830000  0.28010000  1.0 0.089765146
H  H185  1  0.71990000  0.85490000  0.38170000  1.0 0.089765146
H  H186  1  0.21990000  0.64510000  0.61830000  1.0 0.089765146
H  H187  1  0.78010000  0.14510000  0.88170000  1.0 0.089765146
H  H188  1  0.28010000  0.35490000  0.11830000  1.0 0.089765146
H  H189  1  0.38170000  0.71990000  0.85490000  1.0 0.089765146
H  H190  1  0.61830000  0.21990000  0.64510000  1.0 0.089765146
H  H191  1  0.88170000  0.78010000  0.14510000  1.0 0.089765146
H  H192  1  0.11830000  0.28010000  0.35490000  1.0 0.089765146
H  H193  1  0.13280000  0.71510000  0.37070000  1.0 0.089765146
H  H194  1  0.36720000  0.28490000  0.87070000  1.0 0.089765146
H  H195  1  0.86720000  0.21510000  0.12930000  1.0 0.089765146
H  H196  1  0.63280000  0.78490000  0.62930000  1.0 0.089765146
H  H197  1  0.37070000  0.13280000  0.71510000  1.0 0.089765146
H  H198  1  0.87070000  0.36720000  0.28490000  1.0 0.089765146
H  H199  1  0.12930000  0.86720000  0.21510000  1.0 0.089765146
H  H200  1  0.62930000  0.63280000  0.78490000  1.0 0.089765146
H  H201  1  0.71510000  0.37070000  0.13280000  1.0 0.089765146
H  H202  1  0.28490000  0.87070000  0.36720000  1.0 0.089765146
H  H203  1  0.21510000  0.12930000  0.86720000  1.0 0.089765146
H  H204  1  0.78490000  0.62930000  0.63280000  1.0 0.089765146
H  H205  1  0.86720000  0.28490000  0.62930000  1.0 0.089765146
H  H206  1  0.63280000  0.71510000  0.12930000  1.0 0.089765146
H  H207  1  0.13280000  0.78490000  0.87070000  1.0 0.089765146
H  H208  1  0.36720000  0.21510000  0.37070000  1.0 0.089765146
H  H209  1  0.62930000  0.86720000  0.28490000  1.0 0.089765146
H  H210  1  0.12930000  0.63280000  0.71510000  1.0 0.089765146
H  H211  1  0.87070000  0.13280000  0.78490000  1.0 0.089765146
H  H212  1  0.37070000  0.36720000  0.21510000  1.0 0.089765146
H  H213  1  0.28490000  0.62930000  0.86720000  1.0 0.089765146
H  H214  1  0.71510000  0.12930000  0.63280000  1.0 0.089765146
H  H215  1  0.78490000  0.87070000  0.13280000  1.0 0.089765146
H  H216  1  0.21510000  0.37070000  0.36720000  1.0 0.089765146
H  H217  1  0.09050000  0.75630000  0.39390000  1.0 0.1107285042
H  H218  1  0.40950000  0.24370000  0.89390000  1.0 0.1107285042
H  H219  1  0.90950000  0.25630000  0.10610000  1.0 0.1107285042
H  H220  1  0.59050000  0.74370000  0.60610000  1.0 0.1107285042
H  H221  1  0.39390000  0.09050000  0.75630000  1.0 0.1107285042
H  H222  1  0.89390000  0.40950000  0.24370000  1.0 0.1107285042
H  H223  1  0.10610000  0.90950000  0.25630000  1.0 0.1107285042
H  H224  1  0.60610000  0.59050000  0.74370000  1.0 0.1107285042
H  H225  1  0.75630000  0.39390000  0.09050000  1.0 0.1107285042
H  H226  1  0.24370000  0.89390000  0.40950000  1.0 0.1107285042
H  H227  1  0.25630000  0.10610000  0.90950000  1.0 0.1107285042
H  H228  1  0.74370000  0.60610000  0.59050000  1.0 0.1107285042
H  H229  1  0.90950000  0.24370000  0.60610000  1.0 0.1107285042
H  H230  1  0.59050000  0.75630000  0.10610000  1.0 0.1107285042
H  H231  1  0.09050000  0.74370000  0.89390000  1.0 0.1107285042
H  H232  1  0.40950000  0.25630000  0.39390000  1.0 0.1107285042
H  H233  1  0.60610000  0.90950000  0.24370000  1.0 0.1107285042
H  H234  1  0.10610000  0.59050000  0.75630000  1.0 0.1107285042
H  H235  1  0.89390000  0.09050000  0.74370000  1.0 0.1107285042
H  H236  1  0.39390000  0.40950000  0.25630000  1.0 0.1107285042
H  H237  1  0.24370000  0.60610000  0.90950000  1.0 0.1107285042
H  H238  1  0.75630000  0.10610000  0.59050000  1.0 0.1107285042
H  H239  1  0.74370000  0.89390000  0.09050000  1.0 0.1107285042
H  H240  1  0.25630000  0.39390000  0.40950000  1.0 0.1107285042
H  H241  1  0.19290000  0.61500000  0.38620000  1.0 0.1201448722
H  H242  1  0.30710000  0.38500000  0.88620000  1.0 0.1201448722
H  H243  1  0.80710000  0.11500000  0.11380000  1.0 0.1201448722
H  H244  1  0.69290000  0.88500000  0.61380000  1.0 0.1201448722
H  H245  1  0.38620000  0.19290000  0.61500000  1.0 0.1201448722
H  H246  1  0.88620000  0.30710000  0.38500000  1.0 0.1201448722
H  H247  1  0.11380000  0.80710000  0.11500000  1.0 0.1201448722
H  H248  1  0.61380000  0.69290000  0.88500000  1.0 0.1201448722
H  H249  1  0.61500000  0.38620000  0.19290000  1.0 0.1201448722
H  H250  1  0.38500000  0.88620000  0.30710000  1.0 0.1201448722
H  H251  1  0.11500000  0.11380000  0.80710000  1.0 0.1201448722
H  H252  1  0.88500000  0.61380000  0.69290000  1.0 0.1201448722
H  H253  1  0.80710000  0.38500000  0.61380000  1.0 0.1201448722
H  H254  1  0.69290000  0.61500000  0.11380000  1.0 0.1201448722
H  H255  1  0.19290000  0.88500000  0.88620000  1.0 0.1201448722
H  H256  1  0.30710000  0.11500000  0.38620000  1.0 0.1201448722
H  H257  1  0.61380000  0.80710000  0.38500000  1.0 0.1201448722
H  H258  1  0.11380000  0.69290000  0.61500000  1.0 0.1201448722
H  H259  1  0.88620000  0.19290000  0.88500000  1.0 0.1201448722
H  H260  1  0.38620000  0.30710000  0.11500000  1.0 0.1201448722
H  H261  1  0.38500000  0.61380000  0.80710000  1.0 0.1201448722
H  H262  1  0.61500000  0.11380000  0.69290000  1.0 0.1201448722
H  H263  1  0.88500000  0.88620000  0.19290000  1.0 0.1201448722
H  H264  1  0.11500000  0.38620000  0.30710000  1.0 0.1201448722
H  H265  1  0.24000000  0.63920000  0.35740000  1.0 0.1201448722
H  H266  1  0.26000000  0.36080000  0.85740000  1.0 0.1201448722
H  H267  1  0.76000000  0.13920000  0.14260000  1.0 0.1201448722
H  H268  1  0.74000000  0.86080000  0.64260000  1.0 0.1201448722
H  H269  1  0.35740000  0.24000000  0.63920000  1.0 0.1201448722
H  H270  1  0.85740000  0.26000000  0.36080000  1.0 0.1201448722
H  H271  1  0.14260000  0.76000000  0.13920000  1.0 0.1201448722
H  H272  1  0.64260000  0.74000000  0.86080000  1.0 0.1201448722
H  H273  1  0.63920000  0.35740000  0.24000000  1.0 0.1201448722
H  H274  1  0.36080000  0.85740000  0.26000000  1.0 0.1201448722
H  H275  1  0.13920000  0.14260000  0.76000000  1.0 0.1201448722
H  H276  1  0.86080000  0.64260000  0.74000000  1.0 0.1201448722
H  H277  1  0.76000000  0.36080000  0.64260000  1.0 0.1201448722
H  H278  1  0.74000000  0.63920000  0.14260000  1.0 0.1201448722
H  H279  1  0.24000000  0.86080000  0.85740000  1.0 0.1201448722
H  H280  1  0.26000000  0.13920000  0.35740000  1.0 0.1201448722
H  H281  1  0.64260000  0.76000000  0.36080000  1.0 0.1201448722
H  H282  1  0.14260000  0.74000000  0.63920000  1.0 0.1201448722
H  H283  1  0.85740000  0.24000000  0.86080000  1.0 0.1201448722
H  H284  1  0.35740000  0.26000000  0.13920000  1.0 0.1201448722
H  H285  1  0.36080000  0.64260000  0.76000000  1.0 0.1201448722
H  H286  1  0.63920000  0.14260000  0.74000000  1.0 0.1201448722
H  H287  1  0.86080000  0.85740000  0.24000000  1.0 0.1201448722
H  H288  1  0.13920000  0.35740000  0.26000000  1.0 0.1201448722
H  H289  1  0.23100000  0.68010000  0.31400000  1.0 0.089765146
H  H290  1  0.26900000  0.31990000  0.81400000  1.0 0.089765146
H  H291  1  0.76900000  0.18010000  0.18600000  1.0 0.089765146
H  H292  1  0.73100000  0.81990000  0.68600000  1.0 0.089765146
H  H293  1  0.31400000  0.23100000  0.68010000  1.0 0.089765146
H  H294  1  0.81400000  0.26900000  0.31990000  1.0 0.089765146
H  H295  1  0.18600000  0.76900000  0.18010000  1.0 0.089765146
H  H296  1  0.68600000  0.73100000  0.81990000  1.0 0.089765146
H  H297  1  0.68010000  0.31400000  0.23100000  1.0 0.089765146
H  H298  1  0.31990000  0.81400000  0.26900000  1.0 0.089765146
H  H299  1  0.18010000  0.18600000  0.76900000  1.0 0.089765146
H  H300  1  0.81990000  0.68600000  0.73100000  1.0 0.089765146
H  H301  1  0.76900000  0.31990000  0.68600000  1.0 0.089765146
H  H302  1  0.73100000  0.68010000  0.18600000  1.0 0.089765146
H  H303  1  0.23100000  0.81990000  0.81400000  1.0 0.089765146
H  H304  1  0.26900000  0.18010000  0.31400000  1.0 0.089765146
H  H305  1  0.68600000  0.76900000  0.31990000  1.0 0.089765146
H  H306  1  0.18600000  0.73100000  0.68010000  1.0 0.089765146
H  H307  1  0.81400000  0.23100000  0.81990000  1.0 0.089765146
H  H308  1  0.31400000  0.26900000  0.18010000  1.0 0.089765146
H  H309  1  0.31990000  0.68600000  0.76900000  1.0 0.089765146
H  H310  1  0.68010000  0.18600000  0.73100000  1.0 0.089765146
H  H311  1  0.81990000  0.81400000  0.23100000  1.0 0.089765146
H  H312  1  0.18010000  0.31400000  0.26900000  1.0 0.089765146
H  H313  1  0.95630000  0.77000000  0.36060000  1.0 0.1371518455
H  H314  1  0.54370000  0.23000000  0.86060000  1.0 0.1371518455
H  H315  1  0.04370000  0.27000000  0.13940000  1.0 0.1371518455
H  H316  1  0.45630000  0.73000000  0.63940000  1.0 0.1371518455
H  H317  1  0.36060000  0.95630000  0.77000000  1.0 0.1371518455
H  H318  1  0.86060000  0.54370000  0.23000000  1.0 0.1371518455
H  H319  1  0.13940000  0.04370000  0.27000000  1.0 0.1371518455
H  H320  1  0.63940000  0.45630000  0.73000000  1.0 0.1371518455
H  H321  1  0.77000000  0.36060000  0.95630000  1.0 0.1371518455
H  H322  1  0.23000000  0.86060000  0.54370000  1.0 0.1371518455
H  H323  1  0.27000000  0.13940000  0.04370000  1.0 0.1371518455
H  H324  1  0.73000000  0.63940000  0.45630000  1.0 0.1371518455
H  H325  1  0.04370000  0.23000000  0.63940000  1.0 0.1371518455
H  H326  1  0.45630000  0.77000000  0.13940000  1.0 0.1371518455
H  H327  1  0.95630000  0.73000000  0.86060000  1.0 0.1371518455
H  H328  1  0.54370000  0.27000000  0.36060000  1.0 0.1371518455
H  H329  1  0.63940000  0.04370000  0.23000000  1.0 0.1371518455
H  H330  1  0.13940000  0.45630000  0.77000000  1.0 0.1371518455
H  H331  1  0.86060000  0.95630000  0.73000000  1.0 0.1371518455
H  H332  1  0.36060000  0.54370000  0.27000000  1.0 0.1371518455
H  H333  1  0.23000000  0.63940000  0.04370000  1.0 0.1371518455
H  H334  1  0.77000000  0.13940000  0.45630000  1.0 0.1371518455
H  H335  1  0.73000000  0.86060000  0.95630000  1.0 0.1371518455
H  H336  1  0.27000000  0.36060000  0.54370000  1.0 0.1371518455
H  H337  1  0.91380000  0.73780000  0.32490000  1.0 0.1201448722
H  H338  1  0.58620000  0.26220000  0.82490000  1.0 0.1201448722
H  H339  1  0.08620000  0.23780000  0.17510000  1.0 0.1201448722
H  H340  1  0.41380000  0.76220000  0.67510000  1.0 0.1201448722
H  H341  1  0.32490000  0.91380000  0.73780000  1.0 0.1201448722
H  H342  1  0.82490000  0.58620000  0.26220000  1.0 0.1201448722
H  H343  1  0.17510000  0.08620000  0.23780000  1.0 0.1201448722
H  H344  1  0.67510000  0.41380000  0.76220000  1.0 0.1201448722
H  H345  1  0.73780000  0.32490000  0.91380000  1.0 0.1201448722
H  H346  1  0.26220000  0.82490000  0.58620000  1.0 0.1201448722
H  H347  1  0.23780000  0.17510000  0.08620000  1.0 0.1201448722
H  H348  1  0.76220000  0.67510000  0.41380000  1.0 0.1201448722
H  H349  1  0.08620000  0.26220000  0.67510000  1.0 0.1201448722
H  H350  1  0.41380000  0.73780000  0.17510000  1.0 0.1201448722
H  H351  1  0.91380000  0.76220000  0.82490000  1.0 0.1201448722
H  H352  1  0.58620000  0.23780000  0.32490000  1.0 0.1201448722
H  H353  1  0.67510000  0.08620000  0.26220000  1.0 0.1201448722
H  H354  1  0.17510000  0.41380000  0.73780000  1.0 0.1201448722
H  H355  1  0.82490000  0.91380000  0.76220000  1.0 0.1201448722
H  H356  1  0.32490000  0.58620000  0.23780000  1.0 0.1201448722
H  H357  1  0.26220000  0.67510000  0.08620000  1.0 0.1201448722
H  H358  1  0.73780000  0.17510000  0.41380000  1.0 0.1201448722
H  H359  1  0.76220000  0.82490000  0.91380000  1.0 0.1201448722
H  H360  1  0.23780000  0.32490000  0.58620000  1.0 0.1201448722
H  H361  1  0.93060000  0.65170000  0.22010000  1.0 0.1107285042
H  H362  1  0.56940000  0.34830000  0.72010000  1.0 0.1107285042
H  H363  1  0.06940000  0.15170000  0.27990000  1.0 0.1107285042
H  H364  1  0.43060000  0.84830000  0.77990000  1.0 0.1107285042
H  H365  1  0.22010000  0.93060000  0.65170000  1.0 0.1107285042
H  H366  1  0.72010000  0.56940000  0.34830000  1.0 0.1107285042
H  H367  1  0.27990000  0.06940000  0.15170000  1.0 0.1107285042
H  H368  1  0.77990000  0.43060000  0.84830000  1.0 0.1107285042
H  H369  1  0.65170000  0.22010000  0.93060000  1.0 0.1107285042
H  H370  1  0.34830000  0.72010000  0.56940000  1.0 0.1107285042
H  H371  1  0.15170000  0.27990000  0.06940000  1.0 0.1107285042
H  H372  1  0.84830000  0.77990000  0.43060000  1.0 0.1107285042
H  H373  1  0.06940000  0.34830000  0.77990000  1.0 0.1107285042
H  H374  1  0.43060000  0.65170000  0.27990000  1.0 0.1107285042
H  H375  1  0.93060000  0.84830000  0.72010000  1.0 0.1107285042
H  H376  1  0.56940000  0.15170000  0.22010000  1.0 0.1107285042
H  H377  1  0.77990000  0.06940000  0.34830000  1.0 0.1107285042
H  H378  1  0.27990000  0.43060000  0.65170000  1.0 0.1107285042
H  H379  1  0.72010000  0.93060000  0.84830000  1.0 0.1107285042
H  H380  1  0.22010000  0.56940000  0.15170000  1.0 0.1107285042
H  H381  1  0.34830000  0.77990000  0.06940000  1.0 0.1107285042
H  H382  1  0.65170000  0.27990000  0.43060000  1.0 0.1107285042
H  H383  1  0.84830000  0.72010000  0.93060000  1.0 0.1107285042
H  H384  1  0.15170000  0.22010000  0.56940000  1.0 0.1107285042
H  H385  1  0.98150000  0.62510000  0.19240000  1.0 0.1371518455
H  H386  1  0.51850000  0.37490000  0.69240000  1.0 0.1371518455
H  H387  1  0.01850000  0.12510000  0.30760000  1.0 0.1371518455
H  H388  1  0.48150000  0.87490000  0.80760000  1.0 0.1371518455
H  H389  1  0.19240000  0.98150000  0.62510000  1.0 0.1371518455
H  H390  1  0.69240000  0.51850000  0.37490000  1.0 0.1371518455
H  H391  1  0.30760000  0.01850000  0.12510000  1.0 0.1371518455
H  H392  1  0.80760000  0.48150000  0.87490000  1.0 0.1371518455
H  H393  1  0.62510000  0.19240000  0.98150000  1.0 0.1371518455
H  H394  1  0.37490000  0.69240000  0.51850000  1.0 0.1371518455
H  H395  1  0.12510000  0.30760000  0.01850000  1.0 0.1371518455
H  H396  1  0.87490000  0.80760000  0.48150000  1.0 0.1371518455
H  H397  1  0.01850000  0.37490000  0.80760000  1.0 0.1371518455
H  H398  1  0.48150000  0.62510000  0.30760000  1.0 0.1371518455
H  H399  1  0.98150000  0.87490000  0.69240000  1.0 0.1371518455
H  H400  1  0.51850000  0.12510000  0.19240000  1.0 0.1371518455
H  H401  1  0.80760000  0.01850000  0.37490000  1.0 0.1371518455
H  H402  1  0.30760000  0.48150000  0.62510000  1.0 0.1371518455
H  H403  1  0.69240000  0.98150000  0.87490000  1.0 0.1371518455
H  H404  1  0.19240000  0.51850000  0.12510000  1.0 0.1371518455
H  H405  1  0.37490000  0.80760000  0.01850000  1.0 0.1371518455
H  H406  1  0.62510000  0.30760000  0.48150000  1.0 0.1371518455
H  H407  1  0.87490000  0.69240000  0.98150000  1.0 0.1371518455
H  H408  1  0.12510000  0.19240000  0.51850000  1.0 0.1371518455
H  H409  1  0.84540000  0.72280000  0.23200000  1.0 0.0827789638
H  H410  1  0.65460000  0.27720000  0.73200000  1.0 0.0827789638
H  H411  1  0.15460000  0.22280000  0.26800000  1.0 0.0827789638
H  H412  1  0.34540000  0.77720000  0.76800000  1.0 0.0827789638
H  H413  1  0.23200000  0.84540000  0.72280000  1.0 0.0827789638
H  H414  1  0.73200000  0.65460000  0.27720000  1.0 0.0827789638
H  H415  1  0.26800000  0.15460000  0.22280000  1.0 0.0827789638
H  H416  1  0.76800000  0.34540000  0.77720000  1.0 0.0827789638
H  H417  1  0.72280000  0.23200000  0.84540000  1.0 0.0827789638
H  H418  1  0.27720000  0.73200000  0.65460000  1.0 0.0827789638
H  H419  1  0.22280000  0.26800000  0.15460000  1.0 0.0827789638
H  H420  1  0.77720000  0.76800000  0.34540000  1.0 0.0827789638
H  H421  1  0.15460000  0.27720000  0.76800000  1.0 0.0827789638
H  H422  1  0.34540000  0.72280000  0.26800000  1.0 0.0827789638
H  H423  1  0.84540000  0.77720000  0.73200000  1.0 0.0827789638
H  H424  1  0.65460000  0.22280000  0.23200000  1.0 0.0827789638
H  H425  1  0.76800000  0.15460000  0.27720000  1.0 0.0827789638
H  H426  1  0.26800000  0.34540000  0.72280000  1.0 0.0827789638
H  H427  1  0.73200000  0.84540000  0.77720000  1.0 0.0827789638
H  H428  1  0.23200000  0.65460000  0.22280000  1.0 0.0827789638
H  H429  1  0.27720000  0.76800000  0.15460000  1.0 0.0827789638
H  H430  1  0.72280000  0.26800000  0.34540000  1.0 0.0827789638
H  H431  1  0.77720000  0.73200000  0.84540000  1.0 0.0827789638
H  H432  1  0.22280000  0.23200000  0.65460000  1.0 0.0827789638
H  H433  1  0.81390000  0.67960000  0.26010000  1.0 0.0611793066
H  H434  1  0.68610000  0.32040000  0.76010000  1.0 0.0611793066
H  H435  1  0.18610000  0.17960000  0.23990000  1.0 0.0611793066
H  H436  1  0.31390000  0.82040000  0.73990000  1.0 0.0611793066
H  H437  1  0.26010000  0.81390000  0.67960000  1.0 0.0611793066
H  H438  1  0.76010000  0.68610000  0.32040000  1.0 0.0611793066
H  H439  1  0.23990000  0.18610000  0.17960000  1.0 0.0611793066
H  H440  1  0.73990000  0.31390000  0.82040000  1.0 0.0611793066
H  H441  1  0.67960000  0.26010000  0.81390000  1.0 0.0611793066
H  H442  1  0.32040000  0.76010000  0.68610000  1.0 0.0611793066
H  H443  1  0.17960000  0.23990000  0.18610000  1.0 0.0611793066
H  H444  1  0.82040000  0.73990000  0.31390000  1.0 0.0611793066
H  H445  1  0.18610000  0.32040000  0.73990000  1.0 0.0611793066
H  H446  1  0.31390000  0.67960000  0.23990000  1.0 0.0611793066
H  H447  1  0.81390000  0.82040000  0.76010000  1.0 0.0611793066
H  H448  1  0.68610000  0.17960000  0.26010000  1.0 0.0611793066
H  H449  1  0.73990000  0.18610000  0.32040000  1.0 0.0611793066
H  H450  1  0.23990000  0.31390000  0.67960000  1.0 0.0611793066
H  H451  1  0.76010000  0.81390000  0.82040000  1.0 0.0611793066
H  H452  1  0.26010000  0.68610000  0.17960000  1.0 0.0611793066
H  H453  1  0.32040000  0.73990000  0.18610000  1.0 0.0611793066
H  H454  1  0.67960000  0.23990000  0.31390000  1.0 0.0611793066
H  H455  1  0.82040000  0.76010000  0.81390000  1.0 0.0611793066
H  H456  1  0.17960000  0.26010000  0.68610000  1.0 0.0611793066
H  H457  1  0.84190000  0.64100000  0.29690000  1.0 0.0698539801
H  H458  1  0.65810000  0.35900000  0.79690000  1.0 0.0698539801
H  H459  1  0.15810000  0.14100000  0.20310000  1.0 0.0698539801
H  H460  1  0.34190000  0.85900000  0.70310000  1.0 0.0698539801
H  H461  1  0.29690000  0.84190000  0.64100000  1.0 0.0698539801
H  H462  1  0.79690000  0.65810000  0.35900000  1.0 0.0698539801
H  H463  1  0.20310000  0.15810000  0.14100000  1.0 0.0698539801
H  H464  1  0.70310000  0.34190000  0.85900000  1.0 0.0698539801
H  H465  1  0.64100000  0.29690000  0.84190000  1.0 0.0698539801
H  H466  1  0.35900000  0.79690000  0.65810000  1.0 0.0698539801
H  H467  1  0.14100000  0.20310000  0.15810000  1.0 0.0698539801
H  H468  1  0.85900000  0.70310000  0.34190000  1.0 0.0698539801
H  H469  1  0.15810000  0.35900000  0.70310000  1.0 0.0698539801
H  H470  1  0.34190000  0.64100000  0.20310000  1.0 0.0698539801
H  H471  1  0.84190000  0.85900000  0.79690000  1.0 0.0698539801
H  H472  1  0.65810000  0.14100000  0.29690000  1.0 0.0698539801
H  H473  1  0.70310000  0.15810000  0.35900000  1.0 0.0698539801
H  H474  1  0.20310000  0.34190000  0.64100000  1.0 0.0698539801
H  H475  1  0.79690000  0.84190000  0.85900000  1.0 0.0698539801
H  H476  1  0.29690000  0.65810000  0.14100000  1.0 0.0698539801
H  H477  1  0.35900000  0.70310000  0.15810000  1.0 0.0698539801
H  H478  1  0.64100000  0.20310000  0.34190000  1.0 0.0698539801
H  H479  1  0.85900000  0.79690000  0.84190000  1.0 0.0698539801
H  H480  1  0.14100000  0.29690000  0.65810000  1.0 0.0698539801
H  H481  1  0.11500000  0.61820000  0.21920000  1.0 0.0988467342
H  H482  1  0.38500000  0.38180000  0.71920000  1.0 0.0988467342
H  H483  1  0.88500000  0.11820000  0.28080000  1.0 0.0988467342
H  H484  1  0.61500000  0.88180000  0.78080000  1.0 0.0988467342
H  H485  1  0.21920000  0.11500000  0.61820000  1.0 0.0988467342
H  H486  1  0.71920000  0.38500000  0.38180000  1.0 0.0988467342
H  H487  1  0.28080000  0.88500000  0.11820000  1.0 0.0988467342
H  H488  1  0.78080000  0.61500000  0.88180000  1.0 0.0988467342
H  H489  1  0.61820000  0.21920000  0.11500000  1.0 0.0988467342
H  H490  1  0.38180000  0.71920000  0.38500000  1.0 0.0988467342
H  H491  1  0.11820000  0.28080000  0.88500000  1.0 0.0988467342
H  H492  1  0.88180000  0.78080000  0.61500000  1.0 0.0988467342
H  H493  1  0.88500000  0.38180000  0.78080000  1.0 0.0988467342
H  H494  1  0.61500000  0.61820000  0.28080000  1.0 0.0988467342
H  H495  1  0.11500000  0.88180000  0.71920000  1.0 0.0988467342
H  H496  1  0.38500000  0.11820000  0.21920000  1.0 0.0988467342
H  H497  1  0.78080000  0.88500000  0.38180000  1.0 0.0988467342
H  H498  1  0.28080000  0.61500000  0.61820000  1.0 0.0988467342
H  H499  1  0.71920000  0.11500000  0.88180000  1.0 0.0988467342
H  H500  1  0.21920000  0.38500000  0.11820000  1.0 0.0988467342
H  H501  1  0.38180000  0.78080000  0.88500000  1.0 0.0988467342
H  H502  1  0.61820000  0.28080000  0.61500000  1.0 0.0988467342
H  H503  1  0.88180000  0.71920000  0.11500000  1.0 0.0988467342
H  H504  1  0.11820000  0.21920000  0.38500000  1.0 0.0988467342
H  H505  1  0.15850000  0.64770000  0.25540000  1.0 0.089765146
H  H506  1  0.34150000  0.35230000  0.75540000  1.0 0.089765146
H  H507  1  0.84150000  0.14770000  0.24460000  1.0 0.089765146
H  H508  1  0.65850000  0.85230000  0.74460000  1.0 0.089765146
H  H509  1  0.25540000  0.15850000  0.64770000  1.0 0.089765146
H  H510  1  0.75540000  0.34150000  0.35230000  1.0 0.089765146
H  H511  1  0.24460000  0.84150000  0.14770000  1.0 0.089765146
H  H512  1  0.74460000  0.65850000  0.85230000  1.0 0.089765146
H  H513  1  0.64770000  0.25540000  0.15850000  1.0 0.089765146
H  H514  1  0.35230000  0.75540000  0.34150000  1.0 0.089765146
H  H515  1  0.14770000  0.24460000  0.84150000  1.0 0.089765146
H  H516  1  0.85230000  0.74460000  0.65850000  1.0 0.089765146
H  H517  1  0.84150000  0.35230000  0.74460000  1.0 0.089765146
H  H518  1  0.65850000  0.64770000  0.24460000  1.0 0.089765146
H  H519  1  0.15850000  0.85230000  0.75540000  1.0 0.089765146
H  H520  1  0.34150000  0.14770000  0.25540000  1.0 0.089765146
H  H521  1  0.74460000  0.84150000  0.35230000  1.0 0.089765146
H  H522  1  0.24460000  0.65850000  0.64770000  1.0 0.089765146
H  H523  1  0.75540000  0.15850000  0.85230000  1.0 0.089765146
H  H524  1  0.25540000  0.34150000  0.14770000  1.0 0.089765146
H  H525  1  0.35230000  0.74460000  0.84150000  1.0 0.089765146
H  H526  1  0.64770000  0.24460000  0.65850000  1.0 0.089765146
H  H527  1  0.85230000  0.75540000  0.15850000  1.0 0.089765146
H  H528  1  0.14770000  0.25540000  0.34150000  1.0 0.089765146
H  H529  1  0.14380000  0.73970000  0.35280000  1.0 0.089765146
H  H530  1  0.35620000  0.26030000  0.85280000  1.0 0.089765146
H  H531  1  0.85620000  0.23970000  0.14720000  1.0 0.089765146
H  H532  1  0.64380000  0.76030000  0.64720000  1.0 0.089765146
H  H533  1  0.35280000  0.14380000  0.73970000  1.0 0.089765146
H  H534  1  0.85280000  0.35620000  0.26030000  1.0 0.089765146
H  H535  1  0.14720000  0.85620000  0.23970000  1.0 0.089765146
H  H536  1  0.64720000  0.64380000  0.76030000  1.0 0.089765146
H  H537  1  0.73970000  0.35280000  0.14380000  1.0 0.089765146
H  H538  1  0.26030000  0.85280000  0.35620000  1.0 0.089765146
H  H539  1  0.23970000  0.14720000  0.85620000  1.0 0.089765146
H  H540  1  0.76030000  0.64720000  0.64380000  1.0 0.089765146
H  H541  1  0.85620000  0.26030000  0.64720000  1.0 0.089765146
H  H542  1  0.64380000  0.73970000  0.14720000  1.0 0.089765146
H  H543  1  0.14380000  0.76030000  0.85280000  1.0 0.089765146
H  H544  1  0.35620000  0.23970000  0.35280000  1.0 0.089765146
H  H545  1  0.64720000  0.85620000  0.26030000  1.0 0.089765146
H  H546  1  0.14720000  0.64380000  0.73970000  1.0 0.089765146
H  H547  1  0.85280000  0.14380000  0.76030000  1.0 0.089765146
H  H548  1  0.35280000  0.35620000  0.23970000  1.0 0.089765146
H  H549  1  0.26030000  0.64720000  0.85620000  1.0 0.089765146
H  H550  1  0.73970000  0.14720000  0.64380000  1.0 0.089765146
H  H551  1  0.76030000  0.85280000  0.14380000  1.0 0.089765146
H  H552  1  0.23970000  0.35280000  0.35620000  1.0 0.089765146
H  H553  1  0.09280000  0.76770000  0.37760000  1.0 0.1107285042
H  H554  1  0.40720000  0.23230000  0.87760000  1.0 0.1107285042
H  H555  1  0.90720000  0.26770000  0.12240000  1.0 0.1107285042
H  H556  1  0.59280000  0.73230000  0.62240000  1.0 0.1107285042
H  H557  1  0.37760000  0.09280000  0.76770000  1.0 0.1107285042
H  H558  1  0.87760000  0.40720000  0.23230000  1.0 0.1107285042
H  H559  1  0.12240000  0.90720000  0.26770000  1.0 0.1107285042
H  H560  1  0.62240000  0.59280000  0.73230000  1.0 0.1107285042
H  H561  1  0.76770000  0.37760000  0.09280000  1.0 0.1107285042
H  H562  1  0.23230000  0.87760000  0.40720000  1.0 0.1107285042
H  H563  1  0.26770000  0.12240000  0.90720000  1.0 0.1107285042
H  H564  1  0.73230000  0.62240000  0.59280000  1.0 0.1107285042
H  H565  1  0.90720000  0.23230000  0.62240000  1.0 0.1107285042
H  H566  1  0.59280000  0.76770000  0.12240000  1.0 0.1107285042
H  H567  1  0.09280000  0.73230000  0.87760000  1.0 0.1107285042
H  H568  1  0.40720000  0.26770000  0.37760000  1.0 0.1107285042
H  H569  1  0.62240000  0.90720000  0.23230000  1.0 0.1107285042
H  H570  1  0.12240000  0.59280000  0.76770000  1.0 0.1107285042
H  H571  1  0.87760000  0.09280000  0.73230000  1.0 0.1107285042
H  H572  1  0.37760000  0.40720000  0.26770000  1.0 0.1107285042
H  H573  1  0.23230000  0.62240000  0.90720000  1.0 0.1107285042
H  H574  1  0.76770000  0.12240000  0.59280000  1.0 0.1107285042
H  H575  1  0.73230000  0.87760000  0.09280000  1.0 0.1107285042
H  H576  1  0.26770000  0.37760000  0.40720000  1.0 0.1107285042
H  H577  1  0.23610000  0.72830000  0.27670000  1.0 0.1107285042
H  H578  1  0.26390000  0.27170000  0.77670000  1.0 0.1107285042
H  H579  1  0.76390000  0.22830000  0.22330000  1.0 0.1107285042
H  H580  1  0.73610000  0.77170000  0.72330000  1.0 0.1107285042
H  H581  1  0.27670000  0.23610000  0.72830000  1.0 0.1107285042
H  H582  1  0.77670000  0.26390000  0.27170000  1.0 0.1107285042
H  H583  1  0.22330000  0.76390000  0.22830000  1.0 0.1107285042
H  H584  1  0.72330000  0.73610000  0.77170000  1.0 0.1107285042
H  H585  1  0.72830000  0.27670000  0.23610000  1.0 0.1107285042
H  H586  1  0.27170000  0.77670000  0.26390000  1.0 0.1107285042
H  H587  1  0.22830000  0.22330000  0.76390000  1.0 0.1107285042
H  H588  1  0.77170000  0.72330000  0.73610000  1.0 0.1107285042
H  H589  1  0.76390000  0.27170000  0.72330000  1.0 0.1107285042
H  H590  1  0.73610000  0.72830000  0.22330000  1.0 0.1107285042
H  H591  1  0.23610000  0.77170000  0.77670000  1.0 0.1107285042
H  H592  1  0.26390000  0.22830000  0.27670000  1.0 0.1107285042
H  H593  1  0.72330000  0.76390000  0.27170000  1.0 0.1107285042
H  H594  1  0.22330000  0.73610000  0.72830000  1.0 0.1107285042
H  H595  1  0.77670000  0.23610000  0.77170000  1.0 0.1107285042
H  H596  1  0.27670000  0.26390000  0.22830000  1.0 0.1107285042
H  H597  1  0.27170000  0.72330000  0.76390000  1.0 0.1107285042
H  H598  1  0.72830000  0.22330000  0.73610000  1.0 0.1107285042
H  H599  1  0.77170000  0.77670000  0.23610000  1.0 0.1107285042
H  H600  1  0.22830000  0.27670000  0.26390000  1.0 0.1107285042
H  H601  1  0.26110000  0.69640000  0.32130000  1.0 0.089765146
H  H602  1  0.23890000  0.30360000  0.82130000  1.0 0.089765146
H  H603  1  0.73890000  0.19640000  0.17870000  1.0 0.089765146
H  H604  1  0.76110000  0.80360000  0.67870000  1.0 0.089765146
H  H605  1  0.32130000  0.26110000  0.69640000  1.0 0.089765146
H  H606  1  0.82130000  0.23890000  0.30360000  1.0 0.089765146
H  H607  1  0.17870000  0.73890000  0.19640000  1.0 0.089765146
H  H608  1  0.67870000  0.76110000  0.80360000  1.0 0.089765146
H  H609  1  0.69640000  0.32130000  0.26110000  1.0 0.089765146
H  H610  1  0.30360000  0.82130000  0.23890000  1.0 0.089765146
H  H611  1  0.19640000  0.17870000  0.73890000  1.0 0.089765146
H  H612  1  0.80360000  0.67870000  0.76110000  1.0 0.089765146
H  H613  1  0.73890000  0.30360000  0.67870000  1.0 0.089765146
H  H614  1  0.76110000  0.69640000  0.17870000  1.0 0.089765146
H  H615  1  0.26110000  0.80360000  0.82130000  1.0 0.089765146
H  H616  1  0.23890000  0.19640000  0.32130000  1.0 0.089765146
H  H617  1  0.67870000  0.73890000  0.30360000  1.0 0.089765146
H  H618  1  0.17870000  0.76110000  0.69640000  1.0 0.089765146
H  H619  1  0.82130000  0.26110000  0.80360000  1.0 0.089765146
H  H620  1  0.32130000  0.23890000  0.19640000  1.0 0.089765146
H  H621  1  0.30360000  0.67870000  0.73890000  1.0 0.089765146
H  H622  1  0.69640000  0.17870000  0.76110000  1.0 0.089765146
H  H623  1  0.80360000  0.82130000  0.26110000  1.0 0.089765146
H  H624  1  0.19640000  0.32130000  0.23890000  1.0 0.089765146
H  H625  1  0.22660000  0.66170000  0.35660000  1.0 0.0988467342
H  H626  1  0.27340000  0.33830000  0.85660000  1.0 0.0988467342
H  H627  1  0.77340000  0.16170000  0.14340000  1.0 0.0988467342
H  H628  1  0.72660000  0.83830000  0.64340000  1.0 0.0988467342
H  H629  1  0.35660000  0.22660000  0.66170000  1.0 0.0988467342
H  H630  1  0.85660000  0.27340000  0.33830000  1.0 0.0988467342
H  H631  1  0.14340000  0.77340000  0.16170000  1.0 0.0988467342
H  H632  1  0.64340000  0.72660000  0.83830000  1.0 0.0988467342
H  H633  1  0.66170000  0.35660000  0.22660000  1.0 0.0988467342
H  H634  1  0.33830000  0.85660000  0.27340000  1.0 0.0988467342
H  H635  1  0.16170000  0.14340000  0.77340000  1.0 0.0988467342
H  H636  1  0.83830000  0.64340000  0.72660000  1.0 0.0988467342
H  H637  1  0.77340000  0.33830000  0.64340000  1.0 0.0988467342
H  H638  1  0.72660000  0.66170000  0.14340000  1.0 0.0988467342
H  H639  1  0.22660000  0.83830000  0.85660000  1.0 0.0988467342
H  H640  1  0.27340000  0.16170000  0.35660000  1.0 0.0988467342
H  H641  1  0.64340000  0.77340000  0.33830000  1.0 0.0988467342
H  H642  1  0.14340000  0.72660000  0.66170000  1.0 0.0988467342
H  H643  1  0.85660000  0.22660000  0.83830000  1.0 0.0988467342
H  H644  1  0.35660000  0.27340000  0.16170000  1.0 0.0988467342
H  H645  1  0.33830000  0.64340000  0.77340000  1.0 0.0988467342
H  H646  1  0.66170000  0.14340000  0.72660000  1.0 0.0988467342
H  H647  1  0.83830000  0.85660000  0.22660000  1.0 0.0988467342
H  H648  1  0.16170000  0.35660000  0.27340000  1.0 0.0988467342
H  H649  1  0.83210000  0.65810000  0.27760000  1.0 0.0827789638
H  H650  1  0.66790000  0.34190000  0.77760000  1.0 0.0827789638
H  H651  1  0.16790000  0.15810000  0.22240000  1.0 0.0827789638
H  H652  1  0.33210000  0.84190000  0.72240000  1.0 0.0827789638
H  H653  1  0.27760000  0.83210000  0.65810000  1.0 0.0827789638
H  H654  1  0.77760000  0.66790000  0.34190000  1.0 0.0827789638
H  H655  1  0.22240000  0.16790000  0.15810000  1.0 0.0827789638
H  H656  1  0.72240000  0.33210000  0.84190000  1.0 0.0827789638
H  H657  1  0.65810000  0.27760000  0.83210000  1.0 0.0827789638
H  H658  1  0.34190000  0.77760000  0.66790000  1.0 0.0827789638
H  H659  1  0.15810000  0.22240000  0.16790000  1.0 0.0827789638
H  H660  1  0.84190000  0.72240000  0.33210000  1.0 0.0827789638
H  H661  1  0.16790000  0.34190000  0.72240000  1.0 0.0827789638
H  H662  1  0.33210000  0.65810000  0.22240000  1.0 0.0827789638
H  H663  1  0.83210000  0.84190000  0.77760000  1.0 0.0827789638
H  H664  1  0.66790000  0.15810000  0.27760000  1.0 0.0827789638
H  H665  1  0.72240000  0.16790000  0.34190000  1.0 0.0827789638
H  H666  1  0.22240000  0.33210000  0.65810000  1.0 0.0827789638
H  H667  1  0.77760000  0.83210000  0.84190000  1.0 0.0827789638
H  H668  1  0.27760000  0.66790000  0.15810000  1.0 0.0827789638
H  H669  1  0.34190000  0.72240000  0.16790000  1.0 0.0827789638
H  H670  1  0.65810000  0.22240000  0.33210000  1.0 0.0827789638
H  H671  1  0.84190000  0.77760000  0.83210000  1.0 0.0827789638
H  H672  1  0.15810000  0.27760000  0.66790000  1.0 0.0827789638
H  H673  1  0.81800000  0.70530000  0.24290000  1.0 0.0698539801
H  H674  1  0.68200000  0.29470000  0.74290000  1.0 0.0698539801
H  H675  1  0.18200000  0.20530000  0.25710000  1.0 0.0698539801
H  H676  1  0.31800000  0.79470000  0.75710000  1.0 0.0698539801
H  H677  1  0.24290000  0.81800000  0.70530000  1.0 0.0698539801
H  H678  1  0.74290000  0.68200000  0.29470000  1.0 0.0698539801
H  H679  1  0.25710000  0.18200000  0.20530000  1.0 0.0698539801
H  H680  1  0.75710000  0.31800000  0.79470000  1.0 0.0698539801
H  H681  1  0.70530000  0.24290000  0.81800000  1.0 0.0698539801
H  H682  1  0.29470000  0.74290000  0.68200000  1.0 0.0698539801
H  H683  1  0.20530000  0.25710000  0.18200000  1.0 0.0698539801
H  H684  1  0.79470000  0.75710000  0.31800000  1.0 0.0698539801
H  H685  1  0.18200000  0.29470000  0.75710000  1.0 0.0698539801
H  H686  1  0.31800000  0.70530000  0.25710000  1.0 0.0698539801
H  H687  1  0.81800000  0.79470000  0.74290000  1.0 0.0698539801
H  H688  1  0.68200000  0.20530000  0.24290000  1.0 0.0698539801
H  H689  1  0.75710000  0.18200000  0.29470000  1.0 0.0698539801
H  H690  1  0.25710000  0.31800000  0.70530000  1.0 0.0698539801
H  H691  1  0.74290000  0.81800000  0.79470000  1.0 0.0698539801
H  H692  1  0.24290000  0.68200000  0.20530000  1.0 0.0698539801
H  H693  1  0.29470000  0.75710000  0.18200000  1.0 0.0698539801
H  H694  1  0.70530000  0.25710000  0.31800000  1.0 0.0698539801
H  H695  1  0.79470000  0.74290000  0.81800000  1.0 0.0698539801
H  H696  1  0.20530000  0.24290000  0.68200000  1.0 0.0698539801
H  H697  1  0.86090000  0.74420000  0.22610000  1.0 0.0698539801
H  H698  1  0.63910000  0.25580000  0.72610000  1.0 0.0698539801
H  H699  1  0.13910000  0.24420000  0.27390000  1.0 0.0698539801
H  H700  1  0.36090000  0.75580000  0.77390000  1.0 0.0698539801
H  H701  1  0.22610000  0.86090000  0.74420000  1.0 0.0698539801
H  H702  1  0.72610000  0.63910000  0.25580000  1.0 0.0698539801
H  H703  1  0.27390000  0.13910000  0.24420000  1.0 0.0698539801
H  H704  1  0.77390000  0.36090000  0.75580000  1.0 0.0698539801
H  H705  1  0.74420000  0.22610000  0.86090000  1.0 0.0698539801
H  H706  1  0.25580000  0.72610000  0.63910000  1.0 0.0698539801
H  H707  1  0.24420000  0.27390000  0.13910000  1.0 0.0698539801
H  H708  1  0.75580000  0.77390000  0.36090000  1.0 0.0698539801
H  H709  1  0.13910000  0.25580000  0.77390000  1.0 0.0698539801
H  H710  1  0.36090000  0.74420000  0.27390000  1.0 0.0698539801
H  H711  1  0.86090000  0.75580000  0.72610000  1.0 0.0698539801
H  H712  1  0.63910000  0.24420000  0.22610000  1.0 0.0698539801
H  H713  1  0.77390000  0.13910000  0.25580000  1.0 0.0698539801
H  H714  1  0.27390000  0.36090000  0.74420000  1.0 0.0698539801
H  H715  1  0.72610000  0.86090000  0.75580000  1.0 0.0698539801
H  H716  1  0.22610000  0.63910000  0.24420000  1.0 0.0698539801
H  H717  1  0.25580000  0.77390000  0.13910000  1.0 0.0698539801
H  H718  1  0.74420000  0.27390000  0.36090000  1.0 0.0698539801
H  H719  1  0.75580000  0.72610000  0.86090000  1.0 0.0698539801
H  H720  1  0.24420000  0.22610000  0.63910000  1.0 0.0698539801
C  C1  1  0.03850000  0.81710000  0.46520000  1.0 0.6093192157
C  C2  1  0.46150000  0.18290000  0.96520000  1.0 0.6093192157
C  C3  1  0.96150000  0.31710000  0.03480000  1.0 0.6093192157
C  C4  1  0.53850000  0.68290000  0.53480000  1.0 0.6093192157
C  C5  1  0.46520000  0.03850000  0.81710000  1.0 0.6093192157
C  C6  1  0.96520000  0.46150000  0.18290000  1.0 0.6093192157
C  C7  1  0.03480000  0.96150000  0.31710000  1.0 0.6093192157
C  C8  1  0.53480000  0.53850000  0.68290000  1.0 0.6093192157
C  C9  1  0.81710000  0.46520000  0.03850000  1.0 0.6093192157
C  C10  1  0.18290000  0.96520000  0.46150000  1.0 0.6093192157
C  C11  1  0.31710000  0.03480000  0.96150000  1.0 0.6093192157
C  C12  1  0.68290000  0.53480000  0.53850000  1.0 0.6093192157
C  C13  1  0.96150000  0.18290000  0.53480000  1.0 0.6093192157
C  C14  1  0.53850000  0.81710000  0.03480000  1.0 0.6093192157
C  C15  1  0.03850000  0.68290000  0.96520000  1.0 0.6093192157
C  C16  1  0.46150000  0.31710000  0.46520000  1.0 0.6093192157
C  C17  1  0.53480000  0.96150000  0.18290000  1.0 0.6093192157
C  C18  1  0.03480000  0.53850000  0.81710000  1.0 0.6093192157
C  C19  1  0.96520000  0.03850000  0.68290000  1.0 0.6093192157
C  C20  1  0.46520000  0.46150000  0.31710000  1.0 0.6093192157
C  C21  1  0.18290000  0.53480000  0.96150000  1.0 0.6093192157
C  C22  1  0.81710000  0.03480000  0.53850000  1.0 0.6093192157
C  C23  1  0.68290000  0.96520000  0.03850000  1.0 0.6093192157
C  C24  1  0.31710000  0.46520000  0.46150000  1.0 0.6093192157
C  C25  1  0.99370000  0.87520000  0.35930000  1.0 0.5812639303
C  C26  1  0.50630000  0.12480000  0.85930000  1.0 0.5812639303
C  C27  1  0.00630000  0.37520000  0.14070000  1.0 0.5812639303
C  C28  1  0.49370000  0.62480000  0.64070000  1.0 0.5812639303
C  C29  1  0.35930000  0.99370000  0.87520000  1.0 0.5812639303
C  C30  1  0.85930000  0.50630000  0.12480000  1.0 0.5812639303
C  C31  1  0.14070000  0.00630000  0.37520000  1.0 0.5812639303
C  C32  1  0.64070000  0.49370000  0.62480000  1.0 0.5812639303
C  C33  1  0.87520000  0.35930000  0.99370000  1.0 0.5812639303
C  C34  1  0.12480000  0.85930000  0.50630000  1.0 0.5812639303
C  C35  1  0.37520000  0.14070000  0.00630000  1.0 0.5812639303
C  C36  1  0.62480000  0.64070000  0.49370000  1.0 0.5812639303
C  C37  1  0.00630000  0.12480000  0.64070000  1.0 0.5812639303
C  C38  1  0.49370000  0.87520000  0.14070000  1.0 0.5812639303
C  C39  1  0.99370000  0.62480000  0.85930000  1.0 0.5812639303
C  C40  1  0.50630000  0.37520000  0.35930000  1.0 0.5812639303
C  C41  1  0.64070000  0.00630000  0.12480000  1.0 0.5812639303
C  C42  1  0.14070000  0.49370000  0.87520000  1.0 0.5812639303
C  C43  1  0.85930000  0.99370000  0.62480000  1.0 0.5812639303
C  C44  1  0.35930000  0.50630000  0.37520000  1.0 0.5812639303
C  C45  1  0.12480000  0.64070000  0.00630000  1.0 0.5812639303
C  C46  1  0.87520000  0.14070000  0.49370000  1.0 0.5812639303
C  C47  1  0.62480000  0.85930000  0.99370000  1.0 0.5812639303
C  C48  1  0.37520000  0.35930000  0.50630000  1.0 0.5812639303
C  C49  1  0.00900000  0.84510000  0.37520000  1.0 -0.0370283658
C  C50  1  0.49100000  0.15490000  0.87520000  1.0 -0.0329171863
C  C51  1  0.99100000  0.34510000  0.12480000  1.0 -0.0370283658
C  C52  1  0.50900000  0.65490000  0.62480000  1.0 -0.0370283658
C  C53  1  0.37520000  0.00900000  0.84510000  1.0 -0.0370283658
C  C54  1  0.87520000  0.49100000  0.15490000  1.0 -0.0370283658
C  C55  1  0.12480000  0.99100000  0.34510000  1.0 -0.0370283658
C  C56  1  0.62480000  0.50900000  0.65490000  1.0 -0.0370283658
C  C57  1  0.84510000  0.37520000  0.00900000  1.0 -0.0370283658
C  C58  1  0.15490000  0.87520000  0.49100000  1.0 -0.0370283658
C  C59  1  0.34510000  0.12480000  0.99100000  1.0 -0.0370283658
C  C60  1  0.65490000  0.62480000  0.50900000  1.0 -0.0370283658
C  C61  1  0.99100000  0.15490000  0.62480000  1.0 -0.0370283658
C  C62  1  0.50900000  0.84510000  0.12480000  1.0 -0.0370283658
C  C63  1  0.00900000  0.65490000  0.87520000  1.0 -0.0370283658
C  C64  1  0.49100000  0.34510000  0.37520000  1.0 -0.0370283658
C  C65  1  0.62480000  0.99100000  0.15490000  1.0 -0.0370283658
C  C66  1  0.12480000  0.50900000  0.84510000  1.0 -0.0370283658
C  C67  1  0.87520000  0.00900000  0.65490000  1.0 -0.0370283658
C  C68  1  0.37520000  0.49100000  0.34510000  1.0 -0.0370283658
C  C69  1  0.15490000  0.62480000  0.99100000  1.0 -0.0370283658
C  C70  1  0.84510000  0.12480000  0.50900000  1.0 -0.0370283658
C  C71  1  0.65490000  0.87520000  0.00900000  1.0 -0.0370283658
C  C72  1  0.34510000  0.37520000  0.49100000  1.0 -0.0370283658
C  C73  1  0.01860000  0.84410000  0.41160000  1.0 -0.0995322472
C  C74  1  0.48140000  0.15590000  0.91160000  1.0 -0.0995322472
C  C75  1  0.98140000  0.34410000  0.08840000  1.0 -0.0995322472
C  C76  1  0.51860000  0.65590000  0.58840000  1.0 -0.0995322472
C  C77  1  0.41160000  0.01860000  0.84410000  1.0 -0.0995322472
C  C78  1  0.91160000  0.48140000  0.15590000  1.0 -0.0995322472
C  C79  1  0.08840000  0.98140000  0.34410000  1.0 -0.0995322472
C  C80  1  0.58840000  0.51860000  0.65590000  1.0 -0.0995322472
C  C81  1  0.84410000  0.41160000  0.01860000  1.0 -0.0995322472
C  C82  1  0.15590000  0.91160000  0.48140000  1.0 -0.0995322472
C  C83  1  0.34410000  0.08840000  0.98140000  1.0 -0.0995322472
C  C84  1  0.65590000  0.58840000  0.51860000  1.0 -0.0995322472
C  C85  1  0.98140000  0.15590000  0.58840000  1.0 -0.0995322472
C  C86  1  0.51860000  0.84410000  0.08840000  1.0 -0.0995322472
C  C87  1  0.01860000  0.65590000  0.91160000  1.0 -0.0995322472
C  C88  1  0.48140000  0.34410000  0.41160000  1.0 -0.0995322472
C  C89  1  0.58840000  0.98140000  0.15590000  1.0 -0.0995322472
C  C90  1  0.08840000  0.51860000  0.84410000  1.0 -0.0995322472
C  C91  1  0.91160000  0.01860000  0.65590000  1.0 -0.0995322472
C  C92  1  0.41160000  0.48140000  0.34410000  1.0 -0.0995322472
C  C93  1  0.15590000  0.58840000  0.98140000  1.0 -0.0995322472
C  C94  1  0.84410000  0.08840000  0.51860000  1.0 -0.0995322472
C  C95  1  0.65590000  0.91160000  0.01860000  1.0 -0.0995322472
C  C96  1  0.34410000  0.41160000  0.48140000  1.0 -0.0995322472
C  C97  1  0.03040000  0.81660000  0.42650000  1.0 0.0077969122
C  C98  1  0.46960000  0.18340000  0.92650000  1.0 0.0077969122
C  C99  1  0.96960000  0.31660000  0.07350000  1.0 0.0077969122
C  C100  1  0.53040000  0.68340000  0.57350000  1.0 0.0077969122
C  C101  1  0.42650000  0.03040000  0.81660000  1.0 0.0077969122
C  C102  1  0.92650000  0.46960000  0.18340000  1.0 0.0077969122
C  C103  1  0.07350000  0.96960000  0.31660000  1.0 0.0077969122
C  C104  1  0.57350000  0.53040000  0.68340000  1.0 0.0077969122
C  C105  1  0.81660000  0.42650000  0.03040000  1.0 0.0077969122
C  C106  1  0.18340000  0.92650000  0.46960000  1.0 0.0077969122
C  C107  1  0.31660000  0.07350000  0.96960000  1.0 0.0077969122
C  C108  1  0.68340000  0.57350000  0.53040000  1.0 0.0077969122
C  C109  1  0.96960000  0.18340000  0.57350000  1.0 0.0077969122
C  C110  1  0.53040000  0.81660000  0.07350000  1.0 0.0077969122
C  C111  1  0.03040000  0.68340000  0.92650000  1.0 0.0077969122
C  C112  1  0.46960000  0.31660000  0.42650000  1.0 0.0077969122
C  C113  1  0.57350000  0.96960000  0.18340000  1.0 0.0077969122
C  C114  1  0.07350000  0.53040000  0.81660000  1.0 0.0077969122
C  C115  1  0.92650000  0.03040000  0.68340000  1.0 0.0077969122
C  C116  1  0.42650000  0.46960000  0.31660000  1.0 0.0077969122
C  C117  1  0.18340000  0.57350000  0.96960000  1.0 0.0077969122
C  C118  1  0.81660000  0.07350000  0.53040000  1.0 0.0077969122
C  C119  1  0.68340000  0.92650000  0.03040000  1.0 0.0077969122
C  C120  1  0.31660000  0.42650000  0.46960000  1.0 0.0077969122
C  C121  1  0.03180000  0.78700000  0.40740000  1.0 -0.2098017707
C  C122  1  0.46820000  0.21300000  0.90740000  1.0 -0.2098017707
C  C123  1  0.96820000  0.28700000  0.09260000  1.0 -0.2098017707
C  C124  1  0.53180000  0.71300000  0.59260000  1.0 -0.2098017707
C  C125  1  0.40740000  0.03180000  0.78700000  1.0 -0.2098017707
C  C126  1  0.90740000  0.46820000  0.21300000  1.0 -0.2098017707
C  C127  1  0.09260000  0.96820000  0.28700000  1.0 -0.2098017707
C  C128  1  0.59260000  0.53180000  0.71300000  1.0 -0.2098017707
C  C129  1  0.78700000  0.40740000  0.03180000  1.0 -0.2098017707
C  C130  1  0.21300000  0.90740000  0.46820000  1.0 -0.2098017707
C  C131  1  0.28700000  0.09260000  0.96820000  1.0 -0.2098017707
C  C132  1  0.71300000  0.59260000  0.53180000  1.0 -0.2098017707
C  C133  1  0.96820000  0.21300000  0.59260000  1.0 -0.2098017707
C  C134  1  0.53180000  0.78700000  0.09260000  1.0 -0.2098017707
C  C135  1  0.03180000  0.71300000  0.90740000  1.0 -0.2098017707
C  C136  1  0.46820000  0.28700000  0.40740000  1.0 -0.2098017707
C  C137  1  0.59260000  0.96820000  0.21300000  1.0 -0.2098017707
C  C138  1  0.09260000  0.53180000  0.78700000  1.0 -0.2098017707
C  C139  1  0.90740000  0.03180000  0.71300000  1.0 -0.2098017707
C  C140  1  0.40740000  0.46820000  0.28700000  1.0 -0.2098017707
C  C141  1  0.21300000  0.59260000  0.96820000  1.0 -0.2098017707
C  C142  1  0.78700000  0.09260000  0.53180000  1.0 -0.2098017707
C  C143  1  0.71300000  0.90740000  0.03180000  1.0 -0.2098017707
C  C144  1  0.28700000  0.40740000  0.46820000  1.0 -0.2098017707
C  C145  1  0.02490000  0.78410000  0.37330000  1.0 0.0698539801
C  C146  1  0.47510000  0.21590000  0.87330000  1.0 0.0698539801
C  C147  1  0.97510000  0.28410000  0.12670000  1.0 0.0698539801
C  C148  1  0.52490000  0.71590000  0.62670000  1.0 0.0698539801
C  C149  1  0.37330000  0.02490000  0.78410000  1.0 0.0698539801
C  C150  1  0.87330000  0.47510000  0.21590000  1.0 0.0698539801
C  C151  1  0.12670000  0.97510000  0.28410000  1.0 0.0698539801
C  C152  1  0.62670000  0.52490000  0.71590000  1.0 0.0698539801
C  C153  1  0.78410000  0.37330000  0.02490000  1.0 0.0698539801
C  C154  1  0.21590000  0.87330000  0.47510000  1.0 0.0698539801
C  C155  1  0.28410000  0.12670000  0.97510000  1.0 0.0698539801
C  C156  1  0.71590000  0.62670000  0.52490000  1.0 0.0698539801
C  C157  1  0.97510000  0.21590000  0.62670000  1.0 0.0698539801
C  C158  1  0.52490000  0.78410000  0.12670000  1.0 0.0698539801
C  C159  1  0.02490000  0.71590000  0.87330000  1.0 0.0698539801
C  C160  1  0.47510000  0.28410000  0.37330000  1.0 0.0698539801
C  C161  1  0.62670000  0.97510000  0.21590000  1.0 0.0698539801
C  C162  1  0.12670000  0.52490000  0.78410000  1.0 0.0698539801
C  C163  1  0.87330000  0.02490000  0.71590000  1.0 0.0698539801
C  C164  1  0.37330000  0.47510000  0.28410000  1.0 0.0698539801
C  C165  1  0.21590000  0.62670000  0.97510000  1.0 0.0698539801
C  C166  1  0.78410000  0.12670000  0.52490000  1.0 0.0698539801
C  C167  1  0.71590000  0.87330000  0.02490000  1.0 0.0698539801
C  C168  1  0.28410000  0.37330000  0.47510000  1.0 0.0698539801
C  C169  1  0.01150000  0.81320000  0.35840000  1.0 -0.1579880586
C  C170  1  0.48850000  0.18680000  0.85840000  1.0 -0.1579880586
C  C171  1  0.98850000  0.31320000  0.14160000  1.0 -0.1579880586
C  C172  1  0.51150000  0.68680000  0.64160000  1.0 -0.1579880586
C  C173  1  0.35840000  0.01150000  0.81320000  1.0 -0.1579880586
C  C174  1  0.85840000  0.48850000  0.18680000  1.0 -0.1579880586
C  C175  1  0.14160000  0.98850000  0.31320000  1.0 -0.1579880586
C  C176  1  0.64160000  0.51150000  0.68680000  1.0 -0.1579880586
C  C177  1  0.81320000  0.35840000  0.01150000  1.0 -0.1579880586
C  C178  1  0.18680000  0.85840000  0.48850000  1.0 -0.1579880586
C  C179  1  0.31320000  0.14160000  0.98850000  1.0 -0.1579880586
C  C180  1  0.68680000  0.64160000  0.51150000  1.0 -0.1579880586
C  C181  1  0.98850000  0.18680000  0.64160000  1.0 -0.1579880586
C  C182  1  0.51150000  0.81320000  0.14160000  1.0 -0.1579880586
C  C183  1  0.01150000  0.68680000  0.85840000  1.0 -0.1579880586
C  C184  1  0.48850000  0.31320000  0.35840000  1.0 -0.1579880586
C  C185  1  0.64160000  0.98850000  0.18680000  1.0 -0.1579880586
C  C186  1  0.14160000  0.51150000  0.81320000  1.0 -0.1579880586
C  C187  1  0.85840000  0.01150000  0.68680000  1.0 -0.1579880586
C  C188  1  0.35840000  0.48850000  0.31320000  1.0 -0.1579880586
C  C189  1  0.18680000  0.64160000  0.98850000  1.0 -0.1579880586
C  C190  1  0.81320000  0.14160000  0.51150000  1.0 -0.1579880586
C  C191  1  0.68680000  0.85840000  0.01150000  1.0 -0.1579880586
C  C192  1  0.31320000  0.35840000  0.48850000  1.0 -0.1579880586
C  C193  1  0.04280000  0.51820000  0.16870000  1.0 0.5922595915
C  C194  1  0.45720000  0.48180000  0.66870000  1.0 0.5922595915
C  C195  1  0.95720000  0.01820000  0.33130000  1.0 0.5922595915
C  C196  1  0.54280000  0.98180000  0.83130000  1.0 0.5922595915
C  C197  1  0.16870000  0.04280000  0.51820000  1.0 0.5922595915
C  C198  1  0.66870000  0.45720000  0.48180000  1.0 0.5922595915
C  C199  1  0.33130000  0.95720000  0.01820000  1.0 0.5922595915
C  C200  1  0.83130000  0.54280000  0.98180000  1.0 0.5922595915
C  C201  1  0.51820000  0.16870000  0.04280000  1.0 0.5922595915
C  C202  1  0.48180000  0.66870000  0.45720000  1.0 0.5922595915
C  C203  1  0.01820000  0.33130000  0.95720000  1.0 0.5922595915
C  C204  1  0.98180000  0.83130000  0.54280000  1.0 0.5922595915
C  C205  1  0.95720000  0.48180000  0.83130000  1.0 0.5922595915
C  C206  1  0.54280000  0.51820000  0.33130000  1.0 0.5922595915
C  C207  1  0.04280000  0.98180000  0.66870000  1.0 0.5922595915
C  C208  1  0.45720000  0.01820000  0.16870000  1.0 0.5922595915
C  C209  1  0.83130000  0.95720000  0.48180000  1.0 0.5922595915
C  C210  1  0.33130000  0.54280000  0.51820000  1.0 0.5922595915
C  C211  1  0.66870000  0.04280000  0.98180000  1.0 0.5922595915
C  C212  1  0.16870000  0.45720000  0.01820000  1.0 0.5922595915
C  C213  1  0.48180000  0.83130000  0.95720000  1.0 0.5922595915
C  C214  1  0.51820000  0.33130000  0.54280000  1.0 0.5922595915
C  C215  1  0.98180000  0.66870000  0.04280000  1.0 0.5922595915
C  C216  1  0.01820000  0.16870000  0.45720000  1.0 0.5922595915
C  C217  1  0.06250000  0.62590000  0.10120000  1.0 0.5812639303
C  C218  1  0.43750000  0.37410000  0.60120000  1.0 0.5812639303
C  C219  1  0.93750000  0.12590000  0.39880000  1.0 0.5812639303
C  C220  1  0.56250000  0.87410000  0.89880000  1.0 0.5812639303
C  C221  1  0.10120000  0.06250000  0.62590000  1.0 0.5812639303
C  C222  1  0.60120000  0.43750000  0.37410000  1.0 0.5812639303
C  C223  1  0.39880000  0.93750000  0.12590000  1.0 0.5812639303
C  C224  1  0.89880000  0.56250000  0.87410000  1.0 0.5812639303
C  C225  1  0.62590000  0.10120000  0.06250000  1.0 0.5812639303
C  C226  1  0.37410000  0.60120000  0.43750000  1.0 0.5812639303
C  C227  1  0.12590000  0.39880000  0.93750000  1.0 0.5812639303
C  C228  1  0.87410000  0.89880000  0.56250000  1.0 0.5812639303
C  C229  1  0.93750000  0.37410000  0.89880000  1.0 0.5812639303
C  C230  1  0.56250000  0.62590000  0.39880000  1.0 0.5812639303
C  C231  1  0.06250000  0.87410000  0.60120000  1.0 0.5812639303
C  C232  1  0.43750000  0.12590000  0.10120000  1.0 0.5812639303
C  C233  1  0.89880000  0.93750000  0.37410000  1.0 0.5812639303
C  C234  1  0.39880000  0.56250000  0.62590000  1.0 0.5812639303
C  C235  1  0.60120000  0.06250000  0.87410000  1.0 0.5812639303
C  C236  1  0.10120000  0.43750000  0.12590000  1.0 0.5812639303
C  C237  1  0.37410000  0.89880000  0.93750000  1.0 0.5812639303
C  C238  1  0.62590000  0.39880000  0.56250000  1.0 0.5812639303
C  C239  1  0.87410000  0.60120000  0.06250000  1.0 0.5812639303
C  C240  1  0.12590000  0.10120000  0.43750000  1.0 0.5812639303
C  C241  1  0.05780000  0.62510000  0.16600000  1.0 -0.1707689588
C  C242  1  0.44220000  0.37490000  0.66600000  1.0 -0.1707689588
C  C243  1  0.94220000  0.12510000  0.33400000  1.0 -0.1707689588
C  C244  1  0.55780000  0.87490000  0.83400000  1.0 -0.1707689588
C  C245  1  0.16600000  0.05780000  0.62510000  1.0 -0.1707689588
C  C246  1  0.66600000  0.44220000  0.37490000  1.0 -0.1707689588
C  C247  1  0.33400000  0.94220000  0.12510000  1.0 -0.1707689588
C  C248  1  0.83400000  0.55780000  0.87490000  1.0 -0.1707689588
C  C249  1  0.62510000  0.16600000  0.05780000  1.0 -0.1707689588
C  C250  1  0.37490000  0.66600000  0.44220000  1.0 -0.1707689588
C  C251  1  0.12510000  0.33400000  0.94220000  1.0 -0.1707689588
C  C252  1  0.87490000  0.83400000  0.55780000  1.0 -0.1707689588
C  C253  1  0.94220000  0.37490000  0.83400000  1.0 -0.1707689588
C  C254  1  0.55780000  0.62510000  0.33400000  1.0 -0.1707689588
C  C255  1  0.05780000  0.87490000  0.66600000  1.0 -0.1707689588
C  C256  1  0.44220000  0.12510000  0.16600000  1.0 -0.1707689588
C  C257  1  0.83400000  0.94220000  0.37490000  1.0 -0.1707689588
C  C258  1  0.33400000  0.55780000  0.62510000  1.0 -0.1707689588
C  C259  1  0.66600000  0.05780000  0.87490000  1.0 -0.1707689588
C  C260  1  0.16600000  0.44220000  0.12510000  1.0 -0.1707689588
C  C261  1  0.37490000  0.83400000  0.94220000  1.0 -0.1707689588
C  C262  1  0.62510000  0.33400000  0.55780000  1.0 -0.1707689588
C  C263  1  0.87490000  0.66600000  0.05780000  1.0 -0.1707689588
C  C264  1  0.12510000  0.16600000  0.44220000  1.0 -0.1707689588
C  C265  1  0.05850000  0.60700000  0.13510000  1.0 0.0077969122
C  C266  1  0.44150000  0.39300000  0.63510000  1.0 0.0077969122
C  C267  1  0.94150000  0.10700000  0.36490000  1.0 0.0077969122
C  C268  1  0.55850000  0.89300000  0.86490000  1.0 0.0077969122
C  C269  1  0.13510000  0.05850000  0.60700000  1.0 0.0077969122
C  C270  1  0.63510000  0.44150000  0.39300000  1.0 0.0077969122
C  C271  1  0.36490000  0.94150000  0.10700000  1.0 0.0077969122
C  C272  1  0.86490000  0.55850000  0.89300000  1.0 0.0077969122
C  C273  1  0.60700000  0.13510000  0.05850000  1.0 0.0077969122
C  C274  1  0.39300000  0.63510000  0.44150000  1.0 0.0077969122
C  C275  1  0.10700000  0.36490000  0.94150000  1.0 0.0077969122
C  C276  1  0.89300000  0.86490000  0.55850000  1.0 0.0077969122
C  C277  1  0.94150000  0.39300000  0.86490000  1.0 0.0077969122
C  C278  1  0.55850000  0.60700000  0.36490000  1.0 0.0077969122
C  C279  1  0.05850000  0.89300000  0.63510000  1.0 0.0077969122
C  C280  1  0.44150000  0.10700000  0.13510000  1.0 0.0077969122
C  C281  1  0.86490000  0.94150000  0.39300000  1.0 0.0077969122
C  C282  1  0.36490000  0.55850000  0.60700000  1.0 0.0077969122
C  C283  1  0.63510000  0.05850000  0.89300000  1.0 0.0077969122
C  C284  1  0.13510000  0.44150000  0.10700000  1.0 0.0077969122
C  C285  1  0.39300000  0.86490000  0.94150000  1.0 0.0077969122
C  C286  1  0.60700000  0.36490000  0.55850000  1.0 0.0077969122
C  C287  1  0.89300000  0.63510000  0.05850000  1.0 0.0077969122
C  C288  1  0.10700000  0.13510000  0.44150000  1.0 0.0077969122
C  C289  1  0.05280000  0.57220000  0.13640000  1.0 -0.0995322472
C  C290  1  0.44720000  0.42780000  0.63640000  1.0 -0.0995322472
C  C291  1  0.94720000  0.07220000  0.36360000  1.0 -0.0995322472
C  C292  1  0.55280000  0.92780000  0.86360000  1.0 -0.0995322472
C  C293  1  0.13640000  0.05280000  0.57220000  1.0 -0.0995322472
C  C294  1  0.63640000  0.44720000  0.42780000  1.0 -0.0995322472
C  C295  1  0.36360000  0.94720000  0.07220000  1.0 -0.0995322472
C  C296  1  0.86360000  0.55280000  0.92780000  1.0 -0.0995322472
C  C297  1  0.57220000  0.13640000  0.05280000  1.0 -0.0995322472
C  C298  1  0.42780000  0.63640000  0.44720000  1.0 -0.0995322472
C  C299  1  0.07220000  0.36360000  0.94720000  1.0 -0.0995322472
C  C300  1  0.92780000  0.86360000  0.55280000  1.0 -0.0995322472
C  C301  1  0.94720000  0.42780000  0.86360000  1.0 -0.0995322472
C  C302  1  0.55280000  0.57220000  0.36360000  1.0 -0.0995322472
C  C303  1  0.05280000  0.92780000  0.63640000  1.0 -0.0995322472
C  C304  1  0.44720000  0.07220000  0.13640000  1.0 -0.0995322472
C  C305  1  0.86360000  0.94720000  0.42780000  1.0 -0.0995322472
C  C306  1  0.36360000  0.55280000  0.57220000  1.0 -0.0995322472
C  C307  1  0.63640000  0.05280000  0.92780000  1.0 -0.0995322472
C  C308  1  0.13640000  0.44720000  0.07220000  1.0 -0.0995322472
C  C309  1  0.42780000  0.86360000  0.94720000  1.0 -0.0995322472
C  C310  1  0.57220000  0.36360000  0.55280000  1.0 -0.0995322472
C  C311  1  0.92780000  0.63640000  0.05280000  1.0 -0.0995322472
C  C312  1  0.07220000  0.13640000  0.44720000  1.0 -0.0995322472
C  C313  1  0.04820000  0.55550000  0.16730000  1.0 -0.0329171863
C  C314  1  0.45180000  0.44450000  0.66730000  1.0 -0.0329171863
C  C315  1  0.95180000  0.05550000  0.33270000  1.0 -0.0329171863
C  C316  1  0.54820000  0.94450000  0.83270000  1.0 -0.0329171863
C  C317  1  0.16730000  0.04820000  0.55550000  1.0 -0.0329171863
C  C318  1  0.66730000  0.45180000  0.44450000  1.0 -0.0329171863
C  C319  1  0.33270000  0.95180000  0.05550000  1.0 -0.0329171863
C  C320  1  0.83270000  0.54820000  0.94450000  1.0 -0.0329171863
C  C321  1  0.55550000  0.16730000  0.04820000  1.0 -0.0329171863
C  C322  1  0.44450000  0.66730000  0.45180000  1.0 -0.0329171863
C  C323  1  0.05550000  0.33270000  0.95180000  1.0 -0.0329171863
C  C324  1  0.94450000  0.83270000  0.54820000  1.0 -0.0329171863
C  C325  1  0.95180000  0.44450000  0.83270000  1.0 -0.0329171863
C  C326  1  0.54820000  0.55550000  0.33270000  1.0 -0.0329171863
C  C327  1  0.04820000  0.94450000  0.66730000  1.0 -0.0329171863
C  C328  1  0.45180000  0.05550000  0.16730000  1.0 -0.0329171863
C  C329  1  0.83270000  0.95180000  0.44450000  1.0 -0.0329171863
C  C330  1  0.33270000  0.54820000  0.55550000  1.0 -0.0329171863
C  C331  1  0.66730000  0.04820000  0.94450000  1.0 -0.0329171863
C  C332  1  0.16730000  0.45180000  0.05550000  1.0 -0.0329171863
C  C333  1  0.44450000  0.83270000  0.95180000  1.0 -0.0329171863
C  C334  1  0.55550000  0.33270000  0.54820000  1.0 -0.0329171863
C  C335  1  0.94450000  0.66730000  0.04820000  1.0 -0.0329171863
C  C336  1  0.05550000  0.16730000  0.45180000  1.0 -0.0329171863
C  C337  1  0.04540000  0.57480000  0.19720000  1.0 -0.1579880586
C  C338  1  0.45460000  0.42520000  0.69720000  1.0 -0.1579880586
C  C339  1  0.95460000  0.07480000  0.30280000  1.0 -0.1579880586
C  C340  1  0.54540000  0.92520000  0.80280000  1.0 -0.1579880586
C  C341  1  0.19720000  0.04540000  0.57480000  1.0 -0.1579880586
C  C342  1  0.69720000  0.45460000  0.42520000  1.0 -0.1579880586
C  C343  1  0.30280000  0.95460000  0.07480000  1.0 -0.1579880586
C  C344  1  0.80280000  0.54540000  0.92520000  1.0 -0.1579880586
C  C345  1  0.57480000  0.19720000  0.04540000  1.0 -0.1579880586
C  C346  1  0.42520000  0.69720000  0.45460000  1.0 -0.1579880586
C  C347  1  0.07480000  0.30280000  0.95460000  1.0 -0.1579880586
C  C348  1  0.92520000  0.80280000  0.54540000  1.0 -0.1579880586
C  C349  1  0.95460000  0.42520000  0.80280000  1.0 -0.1579880586
C  C350  1  0.54540000  0.57480000  0.30280000  1.0 -0.1579880586
C  C351  1  0.04540000  0.92520000  0.69720000  1.0 -0.1579880586
C  C352  1  0.45460000  0.07480000  0.19720000  1.0 -0.1579880586
C  C353  1  0.80280000  0.95460000  0.42520000  1.0 -0.1579880586
C  C354  1  0.30280000  0.54540000  0.57480000  1.0 -0.1579880586
C  C355  1  0.69720000  0.04540000  0.92520000  1.0 -0.1579880586
C  C356  1  0.19720000  0.45460000  0.07480000  1.0 -0.1579880586
C  C357  1  0.42520000  0.80280000  0.95460000  1.0 -0.1579880586
C  C358  1  0.57480000  0.30280000  0.54540000  1.0 -0.1579880586
C  C359  1  0.92520000  0.69720000  0.04540000  1.0 -0.1579880586
C  C360  1  0.07480000  0.19720000  0.45460000  1.0 -0.1579880586
C  C361  1  0.04990000  0.60860000  0.19710000  1.0 0.0611793066
C  C362  1  0.45010000  0.39140000  0.69710000  1.0 0.0611793066
C  C363  1  0.95010000  0.10860000  0.30290000  1.0 0.0611793066
C  C364  1  0.54990000  0.89140000  0.80290000  1.0 0.0611793066
C  C365  1  0.19710000  0.04990000  0.60860000  1.0 0.0611793066
C  C366  1  0.69710000  0.45010000  0.39140000  1.0 0.0611793066
C  C367  1  0.30290000  0.95010000  0.10860000  1.0 0.0611793066
C  C368  1  0.80290000  0.54990000  0.89140000  1.0 0.0611793066
C  C369  1  0.60860000  0.19710000  0.04990000  1.0 0.0611793066
C  C370  1  0.39140000  0.69710000  0.45010000  1.0 0.0611793066
C  C371  1  0.10860000  0.30290000  0.95010000  1.0 0.0611793066
C  C372  1  0.89140000  0.80290000  0.54990000  1.0 0.0611793066
C  C373  1  0.95010000  0.39140000  0.80290000  1.0 0.0611793066
C  C374  1  0.54990000  0.60860000  0.30290000  1.0 0.0611793066
C  C375  1  0.04990000  0.89140000  0.69710000  1.0 0.0611793066
C  C376  1  0.45010000  0.10860000  0.19710000  1.0 0.0611793066
C  C377  1  0.80290000  0.95010000  0.39140000  1.0 0.0611793066
C  C378  1  0.30290000  0.54990000  0.60860000  1.0 0.0611793066
C  C379  1  0.69710000  0.04990000  0.89140000  1.0 0.0611793066
C  C380  1  0.19710000  0.45010000  0.10860000  1.0 0.0611793066
C  C381  1  0.39140000  0.80290000  0.95010000  1.0 0.0611793066
C  C382  1  0.60860000  0.30290000  0.54990000  1.0 0.0611793066
C  C383  1  0.89140000  0.69710000  0.04990000  1.0 0.0611793066
C  C384  1  0.10860000  0.19710000  0.45010000  1.0 0.0611793066
C  C385  1  0.04420000  0.63080000  0.22980000  1.0 -0.1079180169
C  C386  1  0.45580000  0.36920000  0.72980000  1.0 -0.1079180169
C  C387  1  0.95580000  0.13080000  0.27020000  1.0 -0.1079180169
C  C388  1  0.54420000  0.86920000  0.77020000  1.0 -0.1079180169
C  C389  1  0.22980000  0.04420000  0.63080000  1.0 -0.1079180169
C  C390  1  0.72980000  0.45580000  0.36920000  1.0 -0.1079180169
C  C391  1  0.27020000  0.95580000  0.13080000  1.0 -0.1079180169
C  C392  1  0.77020000  0.54420000  0.86920000  1.0 -0.1079180169
C  C393  1  0.63080000  0.22980000  0.04420000  1.0 -0.1079180169
C  C394  1  0.36920000  0.72980000  0.45580000  1.0 -0.1079180169
C  C395  1  0.13080000  0.27020000  0.95580000  1.0 -0.1079180169
C  C396  1  0.86920000  0.77020000  0.54420000  1.0 -0.1079180169
C  C397  1  0.95580000  0.36920000  0.77020000  1.0 -0.1079180169
C  C398  1  0.54420000  0.63080000  0.27020000  1.0 -0.1079180169
C  C399  1  0.04420000  0.86920000  0.72980000  1.0 -0.1079180169
C  C400  1  0.45580000  0.13080000  0.22980000  1.0 -0.1079180169
C  C401  1  0.77020000  0.95580000  0.36920000  1.0 -0.1079180169
C  C402  1  0.27020000  0.54420000  0.63080000  1.0 -0.1079180169
C  C403  1  0.72980000  0.04420000  0.86920000  1.0 -0.1079180169
C  C404  1  0.22980000  0.45580000  0.13080000  1.0 -0.1079180169
C  C405  1  0.36920000  0.77020000  0.95580000  1.0 -0.1079180169
C  C406  1  0.63080000  0.27020000  0.54420000  1.0 -0.1079180169
C  C407  1  0.86920000  0.72980000  0.04420000  1.0 -0.1079180169
C  C408  1  0.13080000  0.22980000  0.45580000  1.0 -0.1079180169
C  C409  1  0.06830000  0.62700000  0.25540000  1.0 0.0698539801
C  C410  1  0.43170000  0.37300000  0.75540000  1.0 0.0698539801
C  C411  1  0.93170000  0.12700000  0.24460000  1.0 0.0698539801
C  C412  1  0.56830000  0.87300000  0.74460000  1.0 0.0698539801
C  C413  1  0.25540000  0.06830000  0.62700000  1.0 0.0698539801
C  C414  1  0.75540000  0.43170000  0.37300000  1.0 0.0698539801
C  C415  1  0.24460000  0.93170000  0.12700000  1.0 0.0698539801
C  C416  1  0.74460000  0.56830000  0.87300000  1.0 0.0698539801
C  C417  1  0.62700000  0.25540000  0.06830000  1.0 0.0698539801
C  C418  1  0.37300000  0.75540000  0.43170000  1.0 0.0698539801
C  C419  1  0.12700000  0.24460000  0.93170000  1.0 0.0698539801
C  C420  1  0.87300000  0.74460000  0.56830000  1.0 0.0698539801
C  C421  1  0.93170000  0.37300000  0.74460000  1.0 0.0698539801
C  C422  1  0.56830000  0.62700000  0.24460000  1.0 0.0698539801
C  C423  1  0.06830000  0.87300000  0.75540000  1.0 0.0698539801
C  C424  1  0.43170000  0.12700000  0.25540000  1.0 0.0698539801
C  C425  1  0.74460000  0.93170000  0.37300000  1.0 0.0698539801
C  C426  1  0.24460000  0.56830000  0.62700000  1.0 0.0698539801
C  C427  1  0.75540000  0.06830000  0.87300000  1.0 0.0698539801
C  C428  1  0.25540000  0.43170000  0.12700000  1.0 0.0698539801
C  C429  1  0.37300000  0.74460000  0.93170000  1.0 0.0698539801
C  C430  1  0.62700000  0.24460000  0.56830000  1.0 0.0698539801
C  C431  1  0.87300000  0.75540000  0.06830000  1.0 0.0698539801
C  C432  1  0.12700000  0.25540000  0.43170000  1.0 0.0698539801
C  C433  1  0.10080000  0.61040000  0.25180000  1.0 -0.0920191334
C  C434  1  0.39920000  0.38960000  0.75180000  1.0 -0.0920191334
C  C435  1  0.89920000  0.11040000  0.24820000  1.0 -0.0920191334
C  C436  1  0.60080000  0.88960000  0.74820000  1.0 -0.0920191334
C  C437  1  0.25180000  0.10080000  0.61040000  1.0 -0.0920191334
C  C438  1  0.75180000  0.39920000  0.38960000  1.0 -0.0920191334
C  C439  1  0.24820000  0.89920000  0.11040000  1.0 -0.0920191334
C  C440  1  0.74820000  0.60080000  0.88960000  1.0 -0.0920191334
C  C441  1  0.61040000  0.25180000  0.10080000  1.0 -0.0920191334
C  C442  1  0.38960000  0.75180000  0.39920000  1.0 -0.0920191334
C  C443  1  0.11040000  0.24820000  0.89920000  1.0 -0.0920191334
C  C444  1  0.88960000  0.74820000  0.60080000  1.0 -0.0920191334
C  C445  1  0.89920000  0.38960000  0.74820000  1.0 -0.0920191334
C  C446  1  0.60080000  0.61040000  0.24820000  1.0 -0.0920191334
C  C447  1  0.10080000  0.88960000  0.75180000  1.0 -0.0920191334
C  C448  1  0.39920000  0.11040000  0.25180000  1.0 -0.0920191334
C  C449  1  0.74820000  0.89920000  0.38960000  1.0 -0.0920191334
C  C450  1  0.24820000  0.60080000  0.61040000  1.0 -0.0920191334
C  C451  1  0.75180000  0.10080000  0.88960000  1.0 -0.0920191334
C  C452  1  0.25180000  0.39920000  0.11040000  1.0 -0.0920191334
C  C453  1  0.38960000  0.74820000  0.89920000  1.0 -0.0920191334
C  C454  1  0.61040000  0.24820000  0.60080000  1.0 -0.0920191334
C  C455  1  0.88960000  0.75180000  0.10080000  1.0 -0.0920191334
C  C456  1  0.11040000  0.25180000  0.39920000  1.0 -0.0920191334
C  C457  1  0.12170000  0.62430000  0.27600000  1.0 -0.0995322472
C  C458  1  0.37830000  0.37570000  0.77600000  1.0 -0.0995322472
C  C459  1  0.87830000  0.12430000  0.22400000  1.0 -0.0995322472
C  C460  1  0.62170000  0.87570000  0.72400000  1.0 -0.0995322472
C  C461  1  0.27600000  0.12170000  0.62430000  1.0 -0.0995322472
C  C462  1  0.77600000  0.37830000  0.37570000  1.0 -0.0995322472
C  C463  1  0.22400000  0.87830000  0.12430000  1.0 -0.0995322472
C  C464  1  0.72400000  0.62170000  0.87570000  1.0 -0.0995322472
C  C465  1  0.62430000  0.27600000  0.12170000  1.0 -0.0995322472
C  C466  1  0.37570000  0.77600000  0.37830000  1.0 -0.0995322472
C  C467  1  0.12430000  0.22400000  0.87830000  1.0 -0.0995322472
C  C468  1  0.87570000  0.72400000  0.62170000  1.0 -0.0995322472
C  C469  1  0.87830000  0.37570000  0.72400000  1.0 -0.0995322472
C  C470  1  0.62170000  0.62430000  0.22400000  1.0 -0.0995322472
C  C471  1  0.12170000  0.87570000  0.77600000  1.0 -0.0995322472
C  C472  1  0.37830000  0.12430000  0.27600000  1.0 -0.0995322472
C  C473  1  0.72400000  0.87830000  0.37570000  1.0 -0.0995322472
C  C474  1  0.22400000  0.62170000  0.62430000  1.0 -0.0995322472
C  C475  1  0.77600000  0.12170000  0.87570000  1.0 -0.0995322472
C  C476  1  0.27600000  0.37830000  0.12430000  1.0 -0.0995322472
C  C477  1  0.37570000  0.72400000  0.87830000  1.0 -0.0995322472
C  C478  1  0.62430000  0.22400000  0.62170000  1.0 -0.0995322472
C  C479  1  0.87570000  0.77600000  0.12170000  1.0 -0.0995322472
C  C480  1  0.12430000  0.27600000  0.37830000  1.0 -0.0995322472
C  C481  1  0.10230000  0.64990000  0.29440000  1.0 0.0510037464
C  C482  1  0.39770000  0.35010000  0.79440000  1.0 0.0510037464
C  C483  1  0.89770000  0.14990000  0.20560000  1.0 0.0510037464
C  C484  1  0.60230000  0.85010000  0.70560000  1.0 0.0510037464
C  C485  1  0.29440000  0.10230000  0.64990000  1.0 0.0510037464
C  C486  1  0.79440000  0.39770000  0.35010000  1.0 0.0510037464
C  C487  1  0.20560000  0.89770000  0.14990000  1.0 0.0510037464
C  C488  1  0.70560000  0.60230000  0.85010000  1.0 0.0510037464
C  C489  1  0.64990000  0.29440000  0.10230000  1.0 0.0510037464
C  C490  1  0.35010000  0.79440000  0.39770000  1.0 0.0510037464
C  C491  1  0.14990000  0.20560000  0.89770000  1.0 0.0510037464
C  C492  1  0.85010000  0.70560000  0.60230000  1.0 0.0510037464
C  C493  1  0.89770000  0.35010000  0.70560000  1.0 0.0510037464
C  C494  1  0.60230000  0.64990000  0.20560000  1.0 0.0510037464
C  C495  1  0.10230000  0.85010000  0.79440000  1.0 0.0510037464
C  C496  1  0.39770000  0.14990000  0.29440000  1.0 0.0510037464
C  C497  1  0.70560000  0.89770000  0.35010000  1.0 0.0510037464
C  C498  1  0.20560000  0.60230000  0.64990000  1.0 0.0510037464
C  C499  1  0.79440000  0.10230000  0.85010000  1.0 0.0510037464
C  C500  1  0.29440000  0.39770000  0.14990000  1.0 0.0510037464
C  C501  1  0.35010000  0.70560000  0.89770000  1.0 0.0510037464
C  C502  1  0.64990000  0.20560000  0.60230000  1.0 0.0510037464
C  C503  1  0.85010000  0.79440000  0.10230000  1.0 0.0510037464
C  C504  1  0.14990000  0.29440000  0.39770000  1.0 0.0510037464
C  C505  1  0.11540000  0.67060000  0.32020000  1.0 -0.0175154155
C  C506  1  0.38460000  0.32940000  0.82020000  1.0 -0.0175154155
C  C507  1  0.88460000  0.17060000  0.17980000  1.0 -0.0175154155
C  C508  1  0.61540000  0.82940000  0.67980000  1.0 -0.0175154155
C  C509  1  0.32020000  0.11540000  0.67060000  1.0 -0.0175154155
C  C510  1  0.82020000  0.38460000  0.32940000  1.0 -0.0175154155
C  C511  1  0.17980000  0.88460000  0.17060000  1.0 -0.0175154155
C  C512  1  0.67980000  0.61540000  0.82940000  1.0 -0.0175154155
C  C513  1  0.67060000  0.32020000  0.11540000  1.0 -0.0175154155
C  C514  1  0.32940000  0.82020000  0.38460000  1.0 -0.0175154155
C  C515  1  0.17060000  0.17980000  0.88460000  1.0 -0.0175154155
C  C516  1  0.82940000  0.67980000  0.61540000  1.0 -0.0175154155
C  C517  1  0.88460000  0.32940000  0.67980000  1.0 -0.0175154155
C  C518  1  0.61540000  0.67060000  0.17980000  1.0 -0.0175154155
C  C519  1  0.11540000  0.82940000  0.82020000  1.0 -0.0175154155
C  C520  1  0.38460000  0.17060000  0.32020000  1.0 -0.0175154155
C  C521  1  0.67980000  0.88460000  0.32940000  1.0 -0.0175154155
C  C522  1  0.17980000  0.61540000  0.67060000  1.0 -0.0175154155
C  C523  1  0.82020000  0.11540000  0.82940000  1.0 -0.0175154155
C  C524  1  0.32020000  0.38460000  0.17060000  1.0 -0.0175154155
C  C525  1  0.32940000  0.67980000  0.88460000  1.0 -0.0175154155
C  C526  1  0.67060000  0.17980000  0.61540000  1.0 -0.0175154155
C  C527  1  0.82940000  0.82020000  0.11540000  1.0 -0.0175154155
C  C528  1  0.17060000  0.32020000  0.38460000  1.0 -0.0175154155
C  C529  1  0.09510000  0.69360000  0.33810000  1.0 0.0611793066
C  C530  1  0.40490000  0.30640000  0.83810000  1.0 0.0611793066
C  C531  1  0.90490000  0.19360000  0.16190000  1.0 0.0611793066
C  C532  1  0.59510000  0.80640000  0.66190000  1.0 0.0611793066
C  C533  1  0.33810000  0.09510000  0.69360000  1.0 0.0611793066
C  C534  1  0.83810000  0.40490000  0.30640000  1.0 0.0611793066
C  C535  1  0.16190000  0.90490000  0.19360000  1.0 0.0611793066
C  C536  1  0.66190000  0.59510000  0.80640000  1.0 0.0611793066
C  C537  1  0.69360000  0.33810000  0.09510000  1.0 0.0611793066
C  C538  1  0.30640000  0.83810000  0.40490000  1.0 0.0611793066
C  C539  1  0.19360000  0.16190000  0.90490000  1.0 0.0611793066
C  C540  1  0.80640000  0.66190000  0.59510000  1.0 0.0611793066
C  C541  1  0.90490000  0.30640000  0.66190000  1.0 0.0611793066
C  C542  1  0.59510000  0.69360000  0.16190000  1.0 0.0611793066
C  C543  1  0.09510000  0.80640000  0.83810000  1.0 0.0611793066
C  C544  1  0.40490000  0.19360000  0.33810000  1.0 0.0611793066
C  C545  1  0.66190000  0.90490000  0.30640000  1.0 0.0611793066
C  C546  1  0.16190000  0.59510000  0.69360000  1.0 0.0611793066
C  C547  1  0.83810000  0.09510000  0.80640000  1.0 0.0611793066
C  C548  1  0.33810000  0.40490000  0.19360000  1.0 0.0611793066
C  C549  1  0.30640000  0.66190000  0.90490000  1.0 0.0611793066
C  C550  1  0.69360000  0.16190000  0.59510000  1.0 0.0611793066
C  C551  1  0.80640000  0.83810000  0.09510000  1.0 0.0611793066
C  C552  1  0.19360000  0.33810000  0.40490000  1.0 0.0611793066
C  C553  1  0.10940000  0.71620000  0.36370000  1.0 -0.0920191334
C  C554  1  0.39060000  0.28380000  0.86370000  1.0 -0.0920191334
C  C555  1  0.89060000  0.21620000  0.13630000  1.0 -0.0920191334
C  C556  1  0.60940000  0.78380000  0.63630000  1.0 -0.0920191334
C  C557  1  0.36370000  0.10940000  0.71620000  1.0 -0.0920191334
C  C558  1  0.86370000  0.39060000  0.28380000  1.0 -0.0920191334
C  C559  1  0.13630000  0.89060000  0.21620000  1.0 -0.0920191334
C  C560  1  0.63630000  0.60940000  0.78380000  1.0 -0.0920191334
C  C561  1  0.71620000  0.36370000  0.10940000  1.0 -0.0920191334
C  C562  1  0.28380000  0.86370000  0.39060000  1.0 -0.0920191334
C  C563  1  0.21620000  0.13630000  0.89060000  1.0 -0.0920191334
C  C564  1  0.78380000  0.63630000  0.60940000  1.0 -0.0920191334
C  C565  1  0.89060000  0.28380000  0.63630000  1.0 -0.0920191334
C  C566  1  0.60940000  0.71620000  0.13630000  1.0 -0.0920191334
C  C567  1  0.10940000  0.78380000  0.86370000  1.0 -0.0920191334
C  C568  1  0.39060000  0.21620000  0.36370000  1.0 -0.0920191334
C  C569  1  0.63630000  0.89060000  0.28380000  1.0 -0.0920191334
C  C570  1  0.13630000  0.60940000  0.71620000  1.0 -0.0920191334
C  C571  1  0.86370000  0.10940000  0.78380000  1.0 -0.0920191334
C  C572  1  0.36370000  0.39060000  0.21620000  1.0 -0.0920191334
C  C573  1  0.28380000  0.63630000  0.89060000  1.0 -0.0920191334
C  C574  1  0.71620000  0.13630000  0.60940000  1.0 -0.0920191334
C  C575  1  0.78380000  0.86370000  0.10940000  1.0 -0.0920191334
C  C576  1  0.21620000  0.36370000  0.39060000  1.0 -0.0920191334
C  C577  1  0.08680000  0.73910000  0.37680000  1.0 -0.0767883532
C  C578  1  0.41320000  0.26090000  0.87680000  1.0 -0.0767883532
C  C579  1  0.91320000  0.23910000  0.12320000  1.0 -0.0767883532
C  C580  1  0.58680000  0.76090000  0.62320000  1.0 -0.0767883532
C  C581  1  0.37680000  0.08680000  0.73910000  1.0 -0.0767883532
C  C582  1  0.87680000  0.41320000  0.26090000  1.0 -0.0767883532
C  C583  1  0.12320000  0.91320000  0.23910000  1.0 -0.0767883532
C  C584  1  0.62320000  0.58680000  0.76090000  1.0 -0.0767883532
C  C585  1  0.73910000  0.37680000  0.08680000  1.0 -0.0767883532
C  C586  1  0.26090000  0.87680000  0.41320000  1.0 -0.0767883532
C  C587  1  0.23910000  0.12320000  0.91320000  1.0 -0.0767883532
C  C588  1  0.76090000  0.62320000  0.58680000  1.0 -0.0767883532
C  C589  1  0.91320000  0.26090000  0.62320000  1.0 -0.0767883532
C  C590  1  0.58680000  0.73910000  0.12320000  1.0 -0.0767883532
C  C591  1  0.08680000  0.76090000  0.87680000  1.0 -0.0767883532
C  C592  1  0.41320000  0.23910000  0.37680000  1.0 -0.0767883532
C  C593  1  0.62320000  0.91320000  0.26090000  1.0 -0.0767883532
C  C594  1  0.12320000  0.58680000  0.73910000  1.0 -0.0767883532
C  C595  1  0.87680000  0.08680000  0.76090000  1.0 -0.0767883532
C  C596  1  0.37680000  0.41320000  0.23910000  1.0 -0.0767883532
C  C597  1  0.26090000  0.62320000  0.91320000  1.0 -0.0767883532
C  C598  1  0.73910000  0.12320000  0.58680000  1.0 -0.0767883532
C  C599  1  0.76090000  0.87680000  0.08680000  1.0 -0.0767883532
C  C600  1  0.23910000  0.37680000  0.41320000  1.0 -0.0767883532
C  C601  1  0.05580000  0.73100000  0.35840000  1.0 0.089765146
C  C602  1  0.44420000  0.26900000  0.85840000  1.0 0.089765146
C  C603  1  0.94420000  0.23100000  0.14160000  1.0 0.089765146
C  C604  1  0.55580000  0.76900000  0.64160000  1.0 0.089765146
C  C605  1  0.35840000  0.05580000  0.73100000  1.0 0.089765146
C  C606  1  0.85840000  0.44420000  0.26900000  1.0 0.089765146
C  C607  1  0.14160000  0.94420000  0.23100000  1.0 0.089765146
C  C608  1  0.64160000  0.55580000  0.76900000  1.0 0.089765146
C  C609  1  0.73100000  0.35840000  0.05580000  1.0 0.089765146
C  C610  1  0.26900000  0.85840000  0.44420000  1.0 0.089765146
C  C611  1  0.23100000  0.14160000  0.94420000  1.0 0.089765146
C  C612  1  0.76900000  0.64160000  0.55580000  1.0 0.089765146
C  C613  1  0.94420000  0.26900000  0.64160000  1.0 0.089765146
C  C614  1  0.55580000  0.73100000  0.14160000  1.0 0.089765146
C  C615  1  0.05580000  0.76900000  0.85840000  1.0 0.089765146
C  C616  1  0.44420000  0.23100000  0.35840000  1.0 0.089765146
C  C617  1  0.64160000  0.94420000  0.26900000  1.0 0.089765146
C  C618  1  0.14160000  0.55580000  0.73100000  1.0 0.089765146
C  C619  1  0.85840000  0.05580000  0.76900000  1.0 0.089765146
C  C620  1  0.35840000  0.44420000  0.23100000  1.0 0.089765146
C  C621  1  0.26900000  0.64160000  0.94420000  1.0 0.089765146
C  C622  1  0.73100000  0.14160000  0.55580000  1.0 0.089765146
C  C623  1  0.76900000  0.85840000  0.05580000  1.0 0.089765146
C  C624  1  0.23100000  0.35840000  0.44420000  1.0 0.089765146
C  C625  1  0.15060000  0.66580000  0.33430000  1.0 0.0202531059
C  C626  1  0.34940000  0.33420000  0.83430000  1.0 0.0202531059
C  C627  1  0.84940000  0.16580000  0.16570000  1.0 0.0202531059
C  C628  1  0.65060000  0.83420000  0.66570000  1.0 0.0202531059
C  C629  1  0.33430000  0.15060000  0.66580000  1.0 0.0202531059
C  C630  1  0.83430000  0.34940000  0.33420000  1.0 0.0202531059
C  C631  1  0.16570000  0.84940000  0.16580000  1.0 0.0202531059
C  C632  1  0.66570000  0.65060000  0.83420000  1.0 0.0202531059
C  C633  1  0.66580000  0.33430000  0.15060000  1.0 0.0202531059
C  C634  1  0.33420000  0.83430000  0.34940000  1.0 0.0202531059
C  C635  1  0.16580000  0.16570000  0.84940000  1.0 0.0202531059
C  C636  1  0.83420000  0.66570000  0.65060000  1.0 0.0202531059
C  C637  1  0.84940000  0.33420000  0.66570000  1.0 0.0202531059
C  C638  1  0.65060000  0.66580000  0.16570000  1.0 0.0202531059
C  C639  1  0.15060000  0.83420000  0.83430000  1.0 0.0202531059
C  C640  1  0.34940000  0.16580000  0.33430000  1.0 0.0202531059
C  C641  1  0.66570000  0.84940000  0.33420000  1.0 0.0202531059
C  C642  1  0.16570000  0.65060000  0.66580000  1.0 0.0202531059
C  C643  1  0.83430000  0.15060000  0.83420000  1.0 0.0202531059
C  C644  1  0.33430000  0.34940000  0.16580000  1.0 0.0202531059
C  C645  1  0.33420000  0.66570000  0.84940000  1.0 0.0202531059
C  C646  1  0.66580000  0.16570000  0.65060000  1.0 0.0202531059
C  C647  1  0.83420000  0.83430000  0.15060000  1.0 0.0202531059
C  C648  1  0.16580000  0.33430000  0.34940000  1.0 0.0202531059
C  C649  1  0.15590000  0.64150000  0.36000000  1.0 -0.0920191334
C  C650  1  0.34410000  0.35850000  0.86000000  1.0 -0.0920191334
C  C651  1  0.84410000  0.14150000  0.14000000  1.0 -0.0920191334
C  C652  1  0.65590000  0.85850000  0.64000000  1.0 -0.0920191334
C  C653  1  0.36000000  0.15590000  0.64150000  1.0 -0.0920191334
C  C654  1  0.86000000  0.34410000  0.35850000  1.0 -0.0920191334
C  C655  1  0.14000000  0.84410000  0.14150000  1.0 -0.0920191334
C  C656  1  0.64000000  0.65590000  0.85850000  1.0 -0.0920191334
C  C657  1  0.64150000  0.36000000  0.15590000  1.0 -0.0920191334
C  C658  1  0.35850000  0.86000000  0.34410000  1.0 -0.0920191334
C  C659  1  0.14150000  0.14000000  0.84410000  1.0 -0.0920191334
C  C660  1  0.85850000  0.64000000  0.65590000  1.0 -0.0920191334
C  C661  1  0.84410000  0.35850000  0.64000000  1.0 -0.0920191334
C  C662  1  0.65590000  0.64150000  0.14000000  1.0 -0.0920191334
C  C663  1  0.15590000  0.85850000  0.86000000  1.0 -0.0920191334
C  C664  1  0.34410000  0.14150000  0.36000000  1.0 -0.0920191334
C  C665  1  0.64000000  0.84410000  0.35850000  1.0 -0.0920191334
C  C666  1  0.14000000  0.65590000  0.64150000  1.0 -0.0920191334
C  C667  1  0.86000000  0.15590000  0.85850000  1.0 -0.0920191334
C  C668  1  0.36000000  0.34410000  0.14150000  1.0 -0.0920191334
C  C669  1  0.35850000  0.64000000  0.84410000  1.0 -0.0920191334
C  C670  1  0.64150000  0.14000000  0.65590000  1.0 -0.0920191334
C  C671  1  0.85850000  0.86000000  0.15590000  1.0 -0.0920191334
C  C672  1  0.14150000  0.36000000  0.34410000  1.0 -0.0920191334
C  C673  1  0.18930000  0.63160000  0.36860000  1.0 -0.1188927971
C  C674  1  0.31070000  0.36840000  0.86860000  1.0 -0.1188927971
C  C675  1  0.81070000  0.13160000  0.13140000  1.0 -0.1188927971
C  C676  1  0.68930000  0.86840000  0.63140000  1.0 -0.1188927971
C  C677  1  0.36860000  0.18930000  0.63160000  1.0 -0.1188927971
C  C678  1  0.86860000  0.31070000  0.36840000  1.0 -0.1188927971
C  C679  1  0.13140000  0.81070000  0.13160000  1.0 -0.1188927971
C  C680  1  0.63140000  0.68930000  0.86840000  1.0 -0.1188927971
C  C681  1  0.63160000  0.36860000  0.18930000  1.0 -0.1188927971
C  C682  1  0.36840000  0.86860000  0.31070000  1.0 -0.1188927971
C  C683  1  0.13160000  0.13140000  0.81070000  1.0 -0.1188927971
C  C684  1  0.86840000  0.63140000  0.68930000  1.0 -0.1188927971
C  C685  1  0.81070000  0.36840000  0.63140000  1.0 -0.1188927971
C  C686  1  0.68930000  0.63160000  0.13140000  1.0 -0.1188927971
C  C687  1  0.18930000  0.86840000  0.86860000  1.0 -0.1188927971
C  C688  1  0.31070000  0.13160000  0.36860000  1.0 -0.1188927971
C  C689  1  0.63140000  0.81070000  0.36840000  1.0 -0.1188927971
C  C690  1  0.13140000  0.68930000  0.63160000  1.0 -0.1188927971
C  C691  1  0.86860000  0.18930000  0.86840000  1.0 -0.1188927971
C  C692  1  0.36860000  0.31070000  0.13160000  1.0 -0.1188927971
C  C693  1  0.36840000  0.63140000  0.81070000  1.0 -0.1188927971
C  C694  1  0.63160000  0.13140000  0.68930000  1.0 -0.1188927971
C  C695  1  0.86840000  0.86860000  0.18930000  1.0 -0.1188927971
C  C696  1  0.13160000  0.36860000  0.31070000  1.0 -0.1188927971
C  C697  1  0.21720000  0.64600000  0.35150000  1.0 -0.1538453046
C  C698  1  0.28280000  0.35400000  0.85150000  1.0 -0.1538453046
C  C699  1  0.78280000  0.14600000  0.14850000  1.0 -0.1538453046
C  C700  1  0.71720000  0.85400000  0.64850000  1.0 -0.1538453046
C  C701  1  0.35150000  0.21720000  0.64600000  1.0 -0.1538453046
C  C702  1  0.85150000  0.28280000  0.35400000  1.0 -0.1538453046
C  C703  1  0.14850000  0.78280000  0.14600000  1.0 -0.1538453046
C  C704  1  0.64850000  0.71720000  0.85400000  1.0 -0.1538453046
C  C705  1  0.64600000  0.35150000  0.21720000  1.0 -0.1538453046
C  C706  1  0.35400000  0.85150000  0.28280000  1.0 -0.1538453046
C  C707  1  0.14600000  0.14850000  0.78280000  1.0 -0.1538453046
C  C708  1  0.85400000  0.64850000  0.71720000  1.0 -0.1538453046
C  C709  1  0.78280000  0.35400000  0.64850000  1.0 -0.1538453046
C  C710  1  0.71720000  0.64600000  0.14850000  1.0 -0.1538453046
C  C711  1  0.21720000  0.85400000  0.85150000  1.0 -0.1538453046
C  C712  1  0.28280000  0.14600000  0.35150000  1.0 -0.1538453046
C  C713  1  0.64850000  0.78280000  0.35400000  1.0 -0.1538453046
C  C714  1  0.14850000  0.71720000  0.64600000  1.0 -0.1538453046
C  C715  1  0.85150000  0.21720000  0.85400000  1.0 -0.1538453046
C  C716  1  0.35150000  0.28280000  0.14600000  1.0 -0.1538453046
C  C717  1  0.35400000  0.64850000  0.78280000  1.0 -0.1538453046
C  C718  1  0.64600000  0.14850000  0.71720000  1.0 -0.1538453046
C  C719  1  0.85400000  0.85150000  0.21720000  1.0 -0.1538453046
C  C720  1  0.14600000  0.35150000  0.28280000  1.0 -0.1538453046
C  C721  1  0.21190000  0.67030000  0.32570000  1.0 -0.0503639372
C  C722  1  0.28810000  0.32970000  0.82570000  1.0 -0.0503639372
C  C723  1  0.78810000  0.17030000  0.17430000  1.0 -0.0503639372
C  C724  1  0.71190000  0.82970000  0.67430000  1.0 -0.0503639372
C  C725  1  0.32570000  0.21190000  0.67030000  1.0 -0.0503639372
C  C726  1  0.82570000  0.28810000  0.32970000  1.0 -0.0503639372
C  C727  1  0.17430000  0.78810000  0.17030000  1.0 -0.0503639372
C  C728  1  0.67430000  0.71190000  0.82970000  1.0 -0.0503639372
C  C729  1  0.67030000  0.32570000  0.21190000  1.0 -0.0503639372
C  C730  1  0.32970000  0.82570000  0.28810000  1.0 -0.0503639372
C  C731  1  0.17030000  0.17430000  0.78810000  1.0 -0.0503639372
C  C732  1  0.82970000  0.67430000  0.71190000  1.0 -0.0503639372
C  C733  1  0.78810000  0.32970000  0.67430000  1.0 -0.0503639372
C  C734  1  0.71190000  0.67030000  0.17430000  1.0 -0.0503639372
C  C735  1  0.21190000  0.82970000  0.82570000  1.0 -0.0503639372
C  C736  1  0.28810000  0.17030000  0.32570000  1.0 -0.0503639372
C  C737  1  0.67430000  0.78810000  0.32970000  1.0 -0.0503639372
C  C738  1  0.17430000  0.71190000  0.67030000  1.0 -0.0503639372
C  C739  1  0.82570000  0.21190000  0.82970000  1.0 -0.0503639372
C  C740  1  0.32570000  0.28810000  0.17030000  1.0 -0.0503639372
C  C741  1  0.32970000  0.67430000  0.78810000  1.0 -0.0503639372
C  C742  1  0.67030000  0.17430000  0.71190000  1.0 -0.0503639372
C  C743  1  0.82970000  0.82570000  0.21190000  1.0 -0.0503639372
C  C744  1  0.17030000  0.32570000  0.28810000  1.0 -0.0503639372
C  C745  1  0.17850000  0.68020000  0.31710000  1.0 -0.0086914845
C  C746  1  0.32150000  0.31980000  0.81710000  1.0 -0.0048789973
C  C747  1  0.82150000  0.18020000  0.18290000  1.0 -0.0048789973
C  C748  1  0.67850000  0.81980000  0.68290000  1.0 -0.0048789973
C  C749  1  0.31710000  0.17850000  0.68020000  1.0 -0.0048789973
C  C750  1  0.81710000  0.32150000  0.31980000  1.0 -0.0048789973
C  C751  1  0.18290000  0.82150000  0.18020000  1.0 -0.0086914845
C  C752  1  0.68290000  0.67850000  0.81980000  1.0 -0.0048789973
C  C753  1  0.68020000  0.31710000  0.17850000  1.0 -0.0048789973
C  C754  1  0.31980000  0.81710000  0.32150000  1.0 -0.0086914845
C  C755  1  0.18020000  0.18290000  0.82150000  1.0 -0.0048789973
C  C756  1  0.81980000  0.68290000  0.67850000  1.0 -0.0048789973
C  C757  1  0.82150000  0.31980000  0.68290000  1.0 -0.0048789973
C  C758  1  0.67850000  0.68020000  0.18290000  1.0 -0.0048789973
C  C759  1  0.17850000  0.81980000  0.81710000  1.0 -0.0086914845
C  C760  1  0.32150000  0.18020000  0.31710000  1.0 -0.0086914845
C  C761  1  0.68290000  0.82150000  0.31980000  1.0 -0.0048789973
C  C762  1  0.18290000  0.67850000  0.68020000  1.0 -0.0086914845
C  C763  1  0.81710000  0.17850000  0.81980000  1.0 -0.0048789973
C  C764  1  0.31710000  0.32150000  0.18020000  1.0 -0.0086914845
C  C765  1  0.31980000  0.68290000  0.82150000  1.0 -0.0086914845
C  C766  1  0.68020000  0.18290000  0.67850000  1.0 -0.0048789973
C  C767  1  0.81980000  0.81710000  0.17850000  1.0 -0.0048789973
C  C768  1  0.18020000  0.31710000  0.32150000  1.0 -0.0086914845
C  C769  1  0.02720000  0.75140000  0.35230000  1.0 -0.1079180169
C  C770  1  0.47280000  0.24860000  0.85230000  1.0 -0.1079180169
C  C771  1  0.97280000  0.25140000  0.14770000  1.0 -0.1079180169
C  C772  1  0.52720000  0.74860000  0.64770000  1.0 -0.1079180169
C  C773  1  0.35230000  0.02720000  0.75140000  1.0 -0.1079180169
C  C774  1  0.85230000  0.47280000  0.24860000  1.0 -0.1079180169
C  C775  1  0.14770000  0.97280000  0.25140000  1.0 -0.1079180169
C  C776  1  0.64770000  0.52720000  0.74860000  1.0 -0.1079180169
C  C777  1  0.75140000  0.35230000  0.02720000  1.0 -0.1079180169
C  C778  1  0.24860000  0.85230000  0.47280000  1.0 -0.1079180169
C  C779  1  0.25140000  0.14770000  0.97280000  1.0 -0.1079180169
C  C780  1  0.74860000  0.64770000  0.52720000  1.0 -0.1079180169
C  C781  1  0.97280000  0.24860000  0.64770000  1.0 -0.1079180169
C  C782  1  0.52720000  0.75140000  0.14770000  1.0 -0.1079180169
C  C783  1  0.02720000  0.74860000  0.85230000  1.0 -0.1079180169
C  C784  1  0.47280000  0.25140000  0.35230000  1.0 -0.1079180169
C  C785  1  0.64770000  0.97280000  0.24860000  1.0 -0.1079180169
C  C786  1  0.14770000  0.52720000  0.75140000  1.0 -0.1079180169
C  C787  1  0.85230000  0.02720000  0.74860000  1.0 -0.1079180169
C  C788  1  0.35230000  0.47280000  0.25140000  1.0 -0.1079180169
C  C789  1  0.24860000  0.64770000  0.97280000  1.0 -0.1079180169
C  C790  1  0.75140000  0.14770000  0.52720000  1.0 -0.1079180169
C  C791  1  0.74860000  0.85230000  0.02720000  1.0 -0.1079180169
C  C792  1  0.25140000  0.35230000  0.47280000  1.0 -0.1079180169
C  C793  1  0.99630000  0.73920000  0.33820000  1.0 0.1971509438
C  C794  1  0.50370000  0.26080000  0.83820000  1.0 0.1971509438
C  C795  1  0.00370000  0.23920000  0.16180000  1.0 0.1971509438
C  C796  1  0.49630000  0.76080000  0.66180000  1.0 0.1971509438
C  C797  1  0.33820000  0.99630000  0.73920000  1.0 0.1971509438
C  C798  1  0.83820000  0.50370000  0.26080000  1.0 0.1971509438
C  C799  1  0.16180000  0.00370000  0.23920000  1.0 0.1971509438
C  C800  1  0.66180000  0.49630000  0.76080000  1.0 0.1971509438
C  C801  1  0.73920000  0.33820000  0.99630000  1.0 0.1971509438
C  C802  1  0.26080000  0.83820000  0.50370000  1.0 0.1971509438
C  C803  1  0.23920000  0.16180000  0.00370000  1.0 0.1971509438
C  C804  1  0.76080000  0.66180000  0.49630000  1.0 0.1971509438
C  C805  1  0.00370000  0.26080000  0.66180000  1.0 0.1971509438
C  C806  1  0.49630000  0.73920000  0.16180000  1.0 0.1971509438
C  C807  1  0.99630000  0.76080000  0.83820000  1.0 0.1971509438
C  C808  1  0.50370000  0.23920000  0.33820000  1.0 0.1971509438
C  C809  1  0.66180000  0.00370000  0.26080000  1.0 0.1971509438
C  C810  1  0.16180000  0.49630000  0.73920000  1.0 0.1971509438
C  C811  1  0.83820000  0.99630000  0.76080000  1.0 0.1971509438
C  C812  1  0.33820000  0.50370000  0.23920000  1.0 0.1971509438
C  C813  1  0.26080000  0.66180000  0.00370000  1.0 0.1971509438
C  C814  1  0.73920000  0.16180000  0.49630000  1.0 0.1971509438
C  C815  1  0.76080000  0.83820000  0.99630000  1.0 0.1971509438
C  C816  1  0.23920000  0.33820000  0.50370000  1.0 0.1971509438
C  C817  1  0.96170000  0.75200000  0.34480000  1.0 -0.1707689588
C  C818  1  0.53830000  0.24800000  0.84480000  1.0 -0.1707689588
C  C819  1  0.03830000  0.25200000  0.15520000  1.0 -0.1707689588
C  C820  1  0.46170000  0.74800000  0.65520000  1.0 -0.1707689588
C  C821  1  0.34480000  0.96170000  0.75200000  1.0 -0.1707689588
C  C822  1  0.84480000  0.53830000  0.24800000  1.0 -0.1707689588
C  C823  1  0.15520000  0.03830000  0.25200000  1.0 -0.1707689588
C  C824  1  0.65520000  0.46170000  0.74800000  1.0 -0.1707689588
C  C825  1  0.75200000  0.34480000  0.96170000  1.0 -0.1707689588
C  C826  1  0.24800000  0.84480000  0.53830000  1.0 -0.1707689588
C  C827  1  0.25200000  0.15520000  0.03830000  1.0 -0.1707689588
C  C828  1  0.74800000  0.65520000  0.46170000  1.0 -0.1707689588
C  C829  1  0.03830000  0.24800000  0.65520000  1.0 -0.1707689588
C  C830  1  0.46170000  0.75200000  0.15520000  1.0 -0.1707689588
C  C831  1  0.96170000  0.74800000  0.84480000  1.0 -0.1707689588
C  C832  1  0.53830000  0.25200000  0.34480000  1.0 -0.1707689588
C  C833  1  0.65520000  0.03830000  0.24800000  1.0 -0.1707689588
C  C834  1  0.15520000  0.46170000  0.75200000  1.0 -0.1707689588
C  C835  1  0.84480000  0.96170000  0.74800000  1.0 -0.1707689588
C  C836  1  0.34480000  0.53830000  0.25200000  1.0 -0.1707689588
C  C837  1  0.24800000  0.65520000  0.03830000  1.0 -0.1707689588
C  C838  1  0.75200000  0.15520000  0.46170000  1.0 -0.1707689588
C  C839  1  0.74800000  0.84480000  0.96170000  1.0 -0.1707689588
C  C840  1  0.25200000  0.34480000  0.53830000  1.0 -0.1707689588
C  C841  1  0.93810000  0.73490000  0.32550000  1.0 -0.2324040687
C  C842  1  0.56190000  0.26510000  0.82550000  1.0 -0.2324040687
C  C843  1  0.06190000  0.23490000  0.17450000  1.0 -0.2324040687
C  C844  1  0.43810000  0.76510000  0.67450000  1.0 -0.2324040687
C  C845  1  0.32550000  0.93810000  0.73490000  1.0 -0.2324040687
C  C846  1  0.82550000  0.56190000  0.26510000  1.0 -0.2324040687
C  C847  1  0.17450000  0.06190000  0.23490000  1.0 -0.2324040687
C  C848  1  0.67450000  0.43810000  0.76510000  1.0 -0.2324040687
C  C849  1  0.73490000  0.32550000  0.93810000  1.0 -0.2324040687
C  C850  1  0.26510000  0.82550000  0.56190000  1.0 -0.2324040687
C  C851  1  0.23490000  0.17450000  0.06190000  1.0 -0.2324040687
C  C852  1  0.76510000  0.67450000  0.43810000  1.0 -0.2324040687
C  C853  1  0.06190000  0.26510000  0.67450000  1.0 -0.2324040687
C  C854  1  0.43810000  0.73490000  0.17450000  1.0 -0.2324040687
C  C855  1  0.93810000  0.76510000  0.82550000  1.0 -0.2324040687
C  C856  1  0.56190000  0.23490000  0.32550000  1.0 -0.2324040687
C  C857  1  0.67450000  0.06190000  0.26510000  1.0 -0.2324040687
C  C858  1  0.17450000  0.43810000  0.73490000  1.0 -0.2324040687
C  C859  1  0.82550000  0.93810000  0.76510000  1.0 -0.2324040687
C  C860  1  0.32550000  0.56190000  0.23490000  1.0 -0.2324040687
C  C861  1  0.26510000  0.67450000  0.06190000  1.0 -0.2324040687
C  C862  1  0.73490000  0.17450000  0.43810000  1.0 -0.2324040687
C  C863  1  0.76510000  0.82550000  0.93810000  1.0 -0.2324040687
C  C864  1  0.23490000  0.32550000  0.56190000  1.0 -0.2324040687
C  C865  1  0.95940000  0.71100000  0.30590000  1.0 0.1518366887
C  C866  1  0.54060000  0.28900000  0.80590000  1.0 0.1518366887
C  C867  1  0.04060000  0.21100000  0.19410000  1.0 0.1518366887
C  C868  1  0.45940000  0.78900000  0.69410000  1.0 0.1518366887
C  C869  1  0.30590000  0.95940000  0.71100000  1.0 0.1518366887
C  C870  1  0.80590000  0.54060000  0.28900000  1.0 0.1518366887
C  C871  1  0.19410000  0.04060000  0.21100000  1.0 0.1518366887
C  C872  1  0.69410000  0.45940000  0.78900000  1.0 0.1518366887
C  C873  1  0.71100000  0.30590000  0.95940000  1.0 0.1518366887
C  C874  1  0.28900000  0.80590000  0.54060000  1.0 0.1518366887
C  C875  1  0.21100000  0.19410000  0.04060000  1.0 0.1518366887
C  C876  1  0.78900000  0.69410000  0.45940000  1.0 0.1518366887
C  C877  1  0.04060000  0.28900000  0.69410000  1.0 0.1518366887
C  C878  1  0.45940000  0.71100000  0.19410000  1.0 0.1518366887
C  C879  1  0.95940000  0.78900000  0.80590000  1.0 0.1518366887
C  C880  1  0.54060000  0.21100000  0.30590000  1.0 0.1518366887
C  C881  1  0.69410000  0.04060000  0.28900000  1.0 0.1518366887
C  C882  1  0.19410000  0.45940000  0.71100000  1.0 0.1518366887
C  C883  1  0.80590000  0.95940000  0.78900000  1.0 0.1518366887
C  C884  1  0.30590000  0.54060000  0.21100000  1.0 0.1518366887
C  C885  1  0.28900000  0.69410000  0.04060000  1.0 0.1518366887
C  C886  1  0.71100000  0.19410000  0.45940000  1.0 0.1518366887
C  C887  1  0.78900000  0.80590000  0.95940000  1.0 0.1518366887
C  C888  1  0.21100000  0.30590000  0.54060000  1.0 0.1518366887
C  C889  1  0.94610000  0.68910000  0.28010000  1.0 -0.0503639372
C  C890  1  0.55390000  0.31090000  0.78010000  1.0 -0.0503639372
C  C891  1  0.05390000  0.18910000  0.21990000  1.0 -0.0503639372
C  C892  1  0.44610000  0.81090000  0.71990000  1.0 -0.0503639372
C  C893  1  0.28010000  0.94610000  0.68910000  1.0 -0.0503639372
C  C894  1  0.78010000  0.55390000  0.31090000  1.0 -0.0503639372
C  C895  1  0.21990000  0.05390000  0.18910000  1.0 -0.0503639372
C  C896  1  0.71990000  0.44610000  0.81090000  1.0 -0.0503639372
C  C897  1  0.68910000  0.28010000  0.94610000  1.0 -0.0503639372
C  C898  1  0.31090000  0.78010000  0.55390000  1.0 -0.0503639372
C  C899  1  0.18910000  0.21990000  0.05390000  1.0 -0.0503639372
C  C900  1  0.81090000  0.71990000  0.44610000  1.0 -0.0503639372
C  C901  1  0.05390000  0.31090000  0.71990000  1.0 -0.0503639372
C  C902  1  0.44610000  0.68910000  0.21990000  1.0 -0.0503639372
C  C903  1  0.94610000  0.81090000  0.78010000  1.0 -0.0503639372
C  C904  1  0.55390000  0.18910000  0.28010000  1.0 -0.0503639372
C  C905  1  0.71990000  0.05390000  0.31090000  1.0 -0.0503639372
C  C906  1  0.21990000  0.44610000  0.68910000  1.0 -0.0503639372
C  C907  1  0.78010000  0.94610000  0.81090000  1.0 -0.0503639372
C  C908  1  0.28010000  0.55390000  0.18910000  1.0 -0.0503639372
C  C909  1  0.31090000  0.71990000  0.05390000  1.0 -0.0503639372
C  C910  1  0.68910000  0.21990000  0.44610000  1.0 -0.0503639372
C  C911  1  0.81090000  0.78010000  0.94610000  1.0 -0.0503639372
C  C912  1  0.18910000  0.28010000  0.55390000  1.0 -0.0503639372
C  C913  1  0.96600000  0.66800000  0.25950000  1.0 0.1518366887
C  C914  1  0.53400000  0.33200000  0.75950000  1.0 0.1518366887
C  C915  1  0.03400000  0.16800000  0.24050000  1.0 0.1518366887
C  C916  1  0.46600000  0.83200000  0.74050000  1.0 0.1518366887
C  C917  1  0.25950000  0.96600000  0.66800000  1.0 0.1518366887
C  C918  1  0.75950000  0.53400000  0.33200000  1.0 0.1518366887
C  C919  1  0.24050000  0.03400000  0.16800000  1.0 0.1518366887
C  C920  1  0.74050000  0.46600000  0.83200000  1.0 0.1518366887
C  C921  1  0.66800000  0.25950000  0.96600000  1.0 0.1518366887
C  C922  1  0.33200000  0.75950000  0.53400000  1.0 0.1518366887
C  C923  1  0.16800000  0.24050000  0.03400000  1.0 0.1518366887
C  C924  1  0.83200000  0.74050000  0.46600000  1.0 0.1518366887
C  C925  1  0.03400000  0.33200000  0.74050000  1.0 0.1518366887
C  C926  1  0.46600000  0.66800000  0.24050000  1.0 0.1518366887
C  C927  1  0.96600000  0.83200000  0.75950000  1.0 0.1518366887
C  C928  1  0.53400000  0.16800000  0.25950000  1.0 0.1518366887
C  C929  1  0.74050000  0.03400000  0.33200000  1.0 0.1518366887
C  C930  1  0.24050000  0.46600000  0.66800000  1.0 0.1518366887
C  C931  1  0.75950000  0.96600000  0.83200000  1.0 0.1518366887
C  C932  1  0.25950000  0.53400000  0.16800000  1.0 0.1518366887
C  C933  1  0.33200000  0.74050000  0.03400000  1.0 0.1518366887
C  C934  1  0.66800000  0.24050000  0.46600000  1.0 0.1518366887
C  C935  1  0.83200000  0.75950000  0.96600000  1.0 0.1518366887
C  C936  1  0.16800000  0.25950000  0.53400000  1.0 0.1518366887
C  C937  1  0.95360000  0.65200000  0.22840000  1.0 -0.1707689588
C  C938  1  0.54640000  0.34800000  0.72840000  1.0 -0.1707689588
C  C939  1  0.04640000  0.15200000  0.27160000  1.0 -0.1707689588
C  C940  1  0.45360000  0.84800000  0.77160000  1.0 -0.1707689588
C  C941  1  0.22840000  0.95360000  0.65200000  1.0 -0.1707689588
C  C942  1  0.72840000  0.54640000  0.34800000  1.0 -0.1707689588
C  C943  1  0.27160000  0.04640000  0.15200000  1.0 -0.1707689588
C  C944  1  0.77160000  0.45360000  0.84800000  1.0 -0.1707689588
C  C945  1  0.65200000  0.22840000  0.95360000  1.0 -0.1707689588
C  C946  1  0.34800000  0.72840000  0.54640000  1.0 -0.1707689588
C  C947  1  0.15200000  0.27160000  0.04640000  1.0 -0.1707689588
C  C948  1  0.84800000  0.77160000  0.45360000  1.0 -0.1707689588
C  C949  1  0.04640000  0.34800000  0.77160000  1.0 -0.1707689588
C  C950  1  0.45360000  0.65200000  0.27160000  1.0 -0.1707689588
C  C951  1  0.95360000  0.84800000  0.72840000  1.0 -0.1707689588
C  C952  1  0.54640000  0.15200000  0.22840000  1.0 -0.1707689588
C  C953  1  0.77160000  0.04640000  0.34800000  1.0 -0.1707689588
C  C954  1  0.27160000  0.45360000  0.65200000  1.0 -0.1707689588
C  C955  1  0.72840000  0.95360000  0.84800000  1.0 -0.1707689588
C  C956  1  0.22840000  0.54640000  0.15200000  1.0 -0.1707689588
C  C957  1  0.34800000  0.77160000  0.04640000  1.0 -0.1707689588
C  C958  1  0.65200000  0.27160000  0.45360000  1.0 -0.1707689588
C  C959  1  0.84800000  0.72840000  0.95360000  1.0 -0.1707689588
C  C960  1  0.15200000  0.22840000  0.54640000  1.0 -0.1707689588
C  C961  1  0.98140000  0.63750000  0.21350000  1.0 -0.1579880586
C  C962  1  0.51860000  0.36250000  0.71350000  1.0 -0.1579880586
C  C963  1  0.01860000  0.13750000  0.28650000  1.0 -0.1579880586
C  C964  1  0.48140000  0.86250000  0.78650000  1.0 -0.1579880586
C  C965  1  0.21350000  0.98140000  0.63750000  1.0 -0.1579880586
C  C966  1  0.71350000  0.51860000  0.36250000  1.0 -0.1579880586
C  C967  1  0.28650000  0.01860000  0.13750000  1.0 -0.1579880586
C  C968  1  0.78650000  0.48140000  0.86250000  1.0 -0.1579880586
C  C969  1  0.63750000  0.21350000  0.98140000  1.0 -0.1579880586
C  C970  1  0.36250000  0.71350000  0.51860000  1.0 -0.1579880586
C  C971  1  0.13750000  0.28650000  0.01860000  1.0 -0.1579880586
C  C972  1  0.86250000  0.78650000  0.48140000  1.0 -0.1579880586
C  C973  1  0.01860000  0.36250000  0.78650000  1.0 -0.1579880586
C  C974  1  0.48140000  0.63750000  0.28650000  1.0 -0.1579880586
C  C975  1  0.98140000  0.86250000  0.71350000  1.0 -0.1579880586
C  C976  1  0.51860000  0.13750000  0.21350000  1.0 -0.1579880586
C  C977  1  0.78650000  0.01860000  0.36250000  1.0 -0.1579880586
C  C978  1  0.28650000  0.48140000  0.63750000  1.0 -0.1579880586
C  C979  1  0.71350000  0.98140000  0.86250000  1.0 -0.1579880586
C  C980  1  0.21350000  0.51860000  0.13750000  1.0 -0.1579880586
C  C981  1  0.36250000  0.78650000  0.01860000  1.0 -0.1579880586
C  C982  1  0.63750000  0.28650000  0.48140000  1.0 -0.1579880586
C  C983  1  0.86250000  0.71350000  0.98140000  1.0 -0.1579880586
C  C984  1  0.13750000  0.21350000  0.51860000  1.0 -0.1579880586
C  C985  1  0.01090000  0.64400000  0.23500000  1.0 0.1837075123
C  C986  1  0.48910000  0.35600000  0.73500000  1.0 0.1837075123
C  C987  1  0.98910000  0.14400000  0.26500000  1.0 0.1837075123
C  C988  1  0.51090000  0.85600000  0.76500000  1.0 0.1837075123
C  C989  1  0.23500000  0.01090000  0.64400000  1.0 0.1837075123
C  C990  1  0.73500000  0.48910000  0.35600000  1.0 0.1837075123
C  C991  1  0.26500000  0.98910000  0.14400000  1.0 0.1837075123
C  C992  1  0.76500000  0.51090000  0.85600000  1.0 0.1837075123
C  C993  1  0.64400000  0.23500000  0.01090000  1.0 0.1837075123
C  C994  1  0.35600000  0.73500000  0.48910000  1.0 0.1837075123
C  C995  1  0.14400000  0.26500000  0.98910000  1.0 0.1837075123
C  C996  1  0.85600000  0.76500000  0.51090000  1.0 0.1837075123
C  C997  1  0.98910000  0.35600000  0.76500000  1.0 0.1837075123
C  C998  1  0.51090000  0.64400000  0.26500000  1.0 0.1837075123
C  C999  1  0.01090000  0.85600000  0.73500000  1.0 0.1837075123
C  C1000  1  0.48910000  0.14400000  0.23500000  1.0 0.1837075123
C  C1001  1  0.76500000  0.98910000  0.35600000  1.0 0.1837075123
C  C1002  1  0.26500000  0.51090000  0.64400000  1.0 0.1837075123
C  C1003  1  0.73500000  0.01090000  0.85600000  1.0 0.1837075123
C  C1004  1  0.23500000  0.48910000  0.14400000  1.0 0.1837075123
C  C1005  1  0.35600000  0.76500000  0.98910000  1.0 0.1837075123
C  C1006  1  0.64400000  0.26500000  0.51090000  1.0 0.1837075123
C  C1007  1  0.85600000  0.73500000  0.01090000  1.0 0.1837075123
C  C1008  1  0.14400000  0.23500000  0.48910000  1.0 0.1837075123
C  C1009  1  0.85670000  0.70710000  0.24700000  1.0 0.0025215966
C  C1010  1  0.64330000  0.29290000  0.74700000  1.0 0.0025215966
C  C1011  1  0.14330000  0.20710000  0.25300000  1.0 0.0025215966
C  C1012  1  0.35670000  0.79290000  0.75300000  1.0 0.0025215966
C  C1013  1  0.24700000  0.85670000  0.70710000  1.0 0.0025215966
C  C1014  1  0.74700000  0.64330000  0.29290000  1.0 0.0025215966
C  C1015  1  0.25300000  0.14330000  0.20710000  1.0 0.0025215966
C  C1016  1  0.75300000  0.35670000  0.79290000  1.0 0.0025215966
C  C1017  1  0.70710000  0.24700000  0.85670000  1.0 0.0025215966
C  C1018  1  0.29290000  0.74700000  0.64330000  1.0 0.0025215966
C  C1019  1  0.20710000  0.25300000  0.14330000  1.0 0.0025215966
C  C1020  1  0.79290000  0.75300000  0.35670000  1.0 0.0025215966
C  C1021  1  0.14330000  0.29290000  0.75300000  1.0 0.0025215966
C  C1022  1  0.35670000  0.70710000  0.25300000  1.0 0.0025215966
C  C1023  1  0.85670000  0.79290000  0.74700000  1.0 0.0025215966
C  C1024  1  0.64330000  0.20710000  0.24700000  1.0 0.0025215966
C  C1025  1  0.75300000  0.14330000  0.29290000  1.0 0.0025215966
C  C1026  1  0.25300000  0.35670000  0.70710000  1.0 0.0025215966
C  C1027  1  0.74700000  0.85670000  0.79290000  1.0 0.0025215966
C  C1028  1  0.24700000  0.64330000  0.20710000  1.0 0.0025215966
C  C1029  1  0.29290000  0.75300000  0.14330000  1.0 0.0025215966
C  C1030  1  0.70710000  0.25300000  0.35670000  1.0 0.0025215966
C  C1031  1  0.79290000  0.74700000  0.85670000  1.0 0.0025215966
C  C1032  1  0.20710000  0.24700000  0.64330000  1.0 0.0025215966
C  C1033  1  0.83810000  0.68150000  0.26360000  1.0 -0.0677902526
C  C1034  1  0.66190000  0.31850000  0.76360000  1.0 -0.0677902526
C  C1035  1  0.16190000  0.18150000  0.23640000  1.0 -0.0677902526
C  C1036  1  0.33810000  0.81850000  0.73640000  1.0 -0.0677902526
C  C1037  1  0.26360000  0.83810000  0.68150000  1.0 -0.0677902526
C  C1038  1  0.76360000  0.66190000  0.31850000  1.0 -0.0677902526
C  C1039  1  0.23640000  0.16190000  0.18150000  1.0 -0.0677902526
C  C1040  1  0.73640000  0.33810000  0.81850000  1.0 -0.0677902526
C  C1041  1  0.68150000  0.26360000  0.83810000  1.0 -0.0677902526
C  C1042  1  0.31850000  0.76360000  0.66190000  1.0 -0.0677902526
C  C1043  1  0.18150000  0.23640000  0.16190000  1.0 -0.0677902526
C  C1044  1  0.81850000  0.73640000  0.33810000  1.0 -0.0677902526
C  C1045  1  0.16190000  0.31850000  0.73640000  1.0 -0.0677902526
C  C1046  1  0.33810000  0.68150000  0.23640000  1.0 -0.0677902526
C  C1047  1  0.83810000  0.81850000  0.76360000  1.0 -0.0677902526
C  C1048  1  0.66190000  0.18150000  0.26360000  1.0 -0.0677902526
C  C1049  1  0.73640000  0.16190000  0.31850000  1.0 -0.0677902526
C  C1050  1  0.23640000  0.33810000  0.68150000  1.0 -0.0677902526
C  C1051  1  0.76360000  0.83810000  0.81850000  1.0 -0.0677902526
C  C1052  1  0.26360000  0.66190000  0.18150000  1.0 -0.0677902526
C  C1053  1  0.31850000  0.73640000  0.16190000  1.0 -0.0677902526
C  C1054  1  0.68150000  0.23640000  0.33810000  1.0 -0.0677902526
C  C1055  1  0.81850000  0.76360000  0.83810000  1.0 -0.0677902526
C  C1056  1  0.18150000  0.26360000  0.66190000  1.0 -0.0677902526
C  C1057  1  0.85470000  0.65850000  0.28550000  1.0 -0.1188927971
C  C1058  1  0.64530000  0.34150000  0.78550000  1.0 -0.1188927971
C  C1059  1  0.14530000  0.15850000  0.21450000  1.0 -0.1188927971
C  C1060  1  0.35470000  0.84150000  0.71450000  1.0 -0.1188927971
C  C1061  1  0.28550000  0.85470000  0.65850000  1.0 -0.1188927971
C  C1062  1  0.78550000  0.64530000  0.34150000  1.0 -0.1188927971
C  C1063  1  0.21450000  0.14530000  0.15850000  1.0 -0.1188927971
C  C1064  1  0.71450000  0.35470000  0.84150000  1.0 -0.1188927971
C  C1065  1  0.65850000  0.28550000  0.85470000  1.0 -0.1188927971
C  C1066  1  0.34150000  0.78550000  0.64530000  1.0 -0.1188927971
C  C1067  1  0.15850000  0.21450000  0.14530000  1.0 -0.1188927971
C  C1068  1  0.84150000  0.71450000  0.35470000  1.0 -0.1188927971
C  C1069  1  0.14530000  0.34150000  0.71450000  1.0 -0.1188927971
C  C1070  1  0.35470000  0.65850000  0.21450000  1.0 -0.1188927971
C  C1071  1  0.85470000  0.84150000  0.78550000  1.0 -0.1188927971
C  C1072  1  0.64530000  0.15850000  0.28550000  1.0 -0.1188927971
C  C1073  1  0.71450000  0.14530000  0.34150000  1.0 -0.1188927971
C  C1074  1  0.21450000  0.35470000  0.65850000  1.0 -0.1188927971
C  C1075  1  0.78550000  0.85470000  0.84150000  1.0 -0.1188927971
C  C1076  1  0.28550000  0.64530000  0.15850000  1.0 -0.1188927971
C  C1077  1  0.34150000  0.71450000  0.14530000  1.0 -0.1188927971
C  C1078  1  0.65850000  0.21450000  0.35470000  1.0 -0.1188927971
C  C1079  1  0.84150000  0.78550000  0.85470000  1.0 -0.1188927971
C  C1080  1  0.15850000  0.28550000  0.64530000  1.0 -0.1188927971
C  C1081  1  0.89000000  0.66120000  0.29080000  1.0 0.0698539801
C  C1082  1  0.61000000  0.33880000  0.79080000  1.0 0.0698539801
C  C1083  1  0.11000000  0.16120000  0.20920000  1.0 0.0698539801
C  C1084  1  0.39000000  0.83880000  0.70920000  1.0 0.0698539801
C  C1085  1  0.29080000  0.89000000  0.66120000  1.0 0.0698539801
C  C1086  1  0.79080000  0.61000000  0.33880000  1.0 0.0698539801
C  C1087  1  0.20920000  0.11000000  0.16120000  1.0 0.0698539801
C  C1088  1  0.70920000  0.39000000  0.83880000  1.0 0.0698539801
C  C1089  1  0.66120000  0.29080000  0.89000000  1.0 0.0698539801
C  C1090  1  0.33880000  0.79080000  0.61000000  1.0 0.0698539801
C  C1091  1  0.16120000  0.20920000  0.11000000  1.0 0.0698539801
C  C1092  1  0.83880000  0.70920000  0.39000000  1.0 0.0698539801
C  C1093  1  0.11000000  0.33880000  0.70920000  1.0 0.0698539801
C  C1094  1  0.39000000  0.66120000  0.20920000  1.0 0.0698539801
C  C1095  1  0.89000000  0.83880000  0.79080000  1.0 0.0698539801
C  C1096  1  0.61000000  0.16120000  0.29080000  1.0 0.0698539801
C  C1097  1  0.70920000  0.11000000  0.33880000  1.0 0.0698539801
C  C1098  1  0.20920000  0.39000000  0.66120000  1.0 0.0698539801
C  C1099  1  0.79080000  0.89000000  0.83880000  1.0 0.0698539801
C  C1100  1  0.29080000  0.61000000  0.16120000  1.0 0.0698539801
C  C1101  1  0.33880000  0.70920000  0.11000000  1.0 0.0698539801
C  C1102  1  0.66120000  0.20920000  0.39000000  1.0 0.0698539801
C  C1103  1  0.83880000  0.79080000  0.89000000  1.0 0.0698539801
C  C1104  1  0.16120000  0.29080000  0.61000000  1.0 0.0698539801
C  C1105  1  0.90870000  0.68680000  0.27410000  1.0 -0.0677902526
C  C1106  1  0.59130000  0.31320000  0.77410000  1.0 -0.0677902526
C  C1107  1  0.09130000  0.18680000  0.22590000  1.0 -0.0677902526
C  C1108  1  0.40870000  0.81320000  0.72590000  1.0 -0.0677902526
C  C1109  1  0.27410000  0.90870000  0.68680000  1.0 -0.0677902526
C  C1110  1  0.77410000  0.59130000  0.31320000  1.0 -0.0677902526
C  C1111  1  0.22590000  0.09130000  0.18680000  1.0 -0.0677902526
C  C1112  1  0.72590000  0.40870000  0.81320000  1.0 -0.0677902526
C  C1113  1  0.68680000  0.27410000  0.90870000  1.0 -0.0677902526
C  C1114  1  0.31320000  0.77410000  0.59130000  1.0 -0.0677902526
C  C1115  1  0.18680000  0.22590000  0.09130000  1.0 -0.0677902526
C  C1116  1  0.81320000  0.72590000  0.40870000  1.0 -0.0677902526
C  C1117  1  0.09130000  0.31320000  0.72590000  1.0 -0.0677902526
C  C1118  1  0.40870000  0.68680000  0.22590000  1.0 -0.0677902526
C  C1119  1  0.90870000  0.81320000  0.77410000  1.0 -0.0677902526
C  C1120  1  0.59130000  0.18680000  0.27410000  1.0 -0.0583083535
C  C1121  1  0.72590000  0.09130000  0.31320000  1.0 -0.0583083535
C  C1122  1  0.22590000  0.40870000  0.68680000  1.0 -0.0677902526
C  C1123  1  0.77410000  0.90870000  0.81320000  1.0 -0.0677902526
C  C1124  1  0.27410000  0.59130000  0.18680000  1.0 -0.0677902526
C  C1125  1  0.31320000  0.72590000  0.09130000  1.0 -0.0677902526
C  C1126  1  0.68680000  0.22590000  0.40870000  1.0 -0.0583083535
C  C1127  1  0.81320000  0.77410000  0.90870000  1.0 -0.0677902526
C  C1128  1  0.18680000  0.27410000  0.59130000  1.0 -0.0677902526
C  C1129  1  0.89210000  0.70980000  0.25220000  1.0 0.0303850508
C  C1130  1  0.60790000  0.29020000  0.75220000  1.0 0.0303850508
C  C1131  1  0.10790000  0.20980000  0.24780000  1.0 0.0303850508
C  C1132  1  0.39210000  0.79020000  0.74780000  1.0 0.0303850508
C  C1133  1  0.25220000  0.89210000  0.70980000  1.0 0.0303850508
C  C1134  1  0.75220000  0.60790000  0.29020000  1.0 0.0303850508
C  C1135  1  0.24780000  0.10790000  0.20980000  1.0 0.0303850508
C  C1136  1  0.74780000  0.39210000  0.79020000  1.0 0.0303850508
C  C1137  1  0.70980000  0.25220000  0.89210000  1.0 0.0303850508
C  C1138  1  0.29020000  0.75220000  0.60790000  1.0 0.0303850508
C  C1139  1  0.20980000  0.24780000  0.10790000  1.0 0.0303850508
C  C1140  1  0.79020000  0.74780000  0.39210000  1.0 0.0303850508
C  C1141  1  0.10790000  0.29020000  0.74780000  1.0 0.0303850508
C  C1142  1  0.39210000  0.70980000  0.24780000  1.0 0.0303850508
C  C1143  1  0.89210000  0.79020000  0.75220000  1.0 0.0303850508
C  C1144  1  0.60790000  0.20980000  0.25220000  1.0 0.0303850508
C  C1145  1  0.74780000  0.10790000  0.29020000  1.0 0.0303850508
C  C1146  1  0.24780000  0.39210000  0.70980000  1.0 0.0303850508
C  C1147  1  0.75220000  0.89210000  0.79020000  1.0 0.0303850508
C  C1148  1  0.25220000  0.60790000  0.20980000  1.0 0.0303850508
C  C1149  1  0.29020000  0.74780000  0.10790000  1.0 0.0303850508
C  C1150  1  0.70980000  0.24780000  0.39210000  1.0 0.0303850508
C  C1151  1  0.79020000  0.75220000  0.89210000  1.0 0.0303850508
C  C1152  1  0.20980000  0.25220000  0.60790000  1.0 0.0303850508
C  C1153  1  0.07430000  0.64240000  0.24590000  1.0 0.089765146
C  C1154  1  0.42570000  0.35760000  0.74590000  1.0 0.089765146
C  C1155  1  0.92570000  0.14240000  0.25410000  1.0 0.089765146
C  C1156  1  0.57430000  0.85760000  0.75410000  1.0 0.089765146
C  C1157  1  0.24590000  0.07430000  0.64240000  1.0 0.089765146
C  C1158  1  0.74590000  0.42570000  0.35760000  1.0 0.089765146
C  C1159  1  0.25410000  0.92570000  0.14240000  1.0 0.089765146
C  C1160  1  0.75410000  0.57430000  0.85760000  1.0 0.089765146
C  C1161  1  0.64240000  0.24590000  0.07430000  1.0 0.089765146
C  C1162  1  0.35760000  0.74590000  0.42570000  1.0 0.089765146
C  C1163  1  0.14240000  0.25410000  0.92570000  1.0 0.089765146
C  C1164  1  0.85760000  0.75410000  0.57430000  1.0 0.089765146
C  C1165  1  0.92570000  0.35760000  0.75410000  1.0 0.089765146
C  C1166  1  0.57430000  0.64240000  0.25410000  1.0 0.089765146
C  C1167  1  0.07430000  0.85760000  0.74590000  1.0 0.089765146
C  C1168  1  0.42570000  0.14240000  0.24590000  1.0 0.089765146
C  C1169  1  0.75410000  0.92570000  0.35760000  1.0 0.089765146
C  C1170  1  0.25410000  0.57430000  0.64240000  1.0 0.089765146
C  C1171  1  0.74590000  0.07430000  0.85760000  1.0 0.089765146
C  C1172  1  0.24590000  0.42570000  0.14240000  1.0 0.089765146
C  C1173  1  0.35760000  0.75410000  0.92570000  1.0 0.089765146
C  C1174  1  0.64240000  0.25410000  0.57430000  1.0 0.089765146
C  C1175  1  0.85760000  0.74590000  0.07430000  1.0 0.089765146
C  C1176  1  0.14240000  0.24590000  0.42570000  1.0 0.089765146
C  C1177  1  0.10940000  0.63380000  0.23730000  1.0 -0.0503639372
C  C1178  1  0.39060000  0.36620000  0.73730000  1.0 -0.0503639372
C  C1179  1  0.89060000  0.13380000  0.26270000  1.0 -0.0503639372
C  C1180  1  0.60940000  0.86620000  0.76270000  1.0 -0.0503639372
C  C1181  1  0.23730000  0.10940000  0.63380000  1.0 -0.0503639372
C  C1182  1  0.73730000  0.39060000  0.36620000  1.0 -0.0503639372
C  C1183  1  0.26270000  0.89060000  0.13380000  1.0 -0.0503639372
C  C1184  1  0.76270000  0.60940000  0.86620000  1.0 -0.0503639372
C  C1185  1  0.63380000  0.23730000  0.10940000  1.0 -0.0503639372
C  C1186  1  0.36620000  0.73730000  0.39060000  1.0 -0.0503639372
C  C1187  1  0.13380000  0.26270000  0.89060000  1.0 -0.0503639372
C  C1188  1  0.86620000  0.76270000  0.60940000  1.0 -0.0503639372
C  C1189  1  0.89060000  0.36620000  0.76270000  1.0 -0.0503639372
C  C1190  1  0.60940000  0.63380000  0.26270000  1.0 -0.0503639372
C  C1191  1  0.10940000  0.86620000  0.73730000  1.0 -0.0503639372
C  C1192  1  0.39060000  0.13380000  0.23730000  1.0 -0.0503639372
C  C1193  1  0.76270000  0.89060000  0.36620000  1.0 -0.0503639372
C  C1194  1  0.26270000  0.60940000  0.63380000  1.0 -0.0503639372
C  C1195  1  0.73730000  0.10940000  0.86620000  1.0 -0.0503639372
C  C1196  1  0.23730000  0.39060000  0.13380000  1.0 -0.0503639372
C  C1197  1  0.36620000  0.76270000  0.89060000  1.0 -0.0503639372
C  C1198  1  0.63380000  0.26270000  0.60940000  1.0 -0.0503639372
C  C1199  1  0.86620000  0.73730000  0.10940000  1.0 -0.0503639372
C  C1200  1  0.13380000  0.23730000  0.39060000  1.0 -0.0503639372
C  C1201  1  0.13410000  0.64950000  0.25650000  1.0 -0.2098017707
C  C1202  1  0.36590000  0.35050000  0.75650000  1.0 -0.2098017707
C  C1203  1  0.86590000  0.14950000  0.24350000  1.0 -0.2098017707
C  C1204  1  0.63410000  0.85050000  0.74350000  1.0 -0.2098017707
C  C1205  1  0.25650000  0.13410000  0.64950000  1.0 -0.2098017707
C  C1206  1  0.75650000  0.36590000  0.35050000  1.0 -0.2098017707
C  C1207  1  0.24350000  0.86590000  0.14950000  1.0 -0.2098017707
C  C1208  1  0.74350000  0.63410000  0.85050000  1.0 -0.2098017707
C  C1209  1  0.64950000  0.25650000  0.13410000  1.0 -0.2098017707
C  C1210  1  0.35050000  0.75650000  0.36590000  1.0 -0.2098017707
C  C1211  1  0.14950000  0.24350000  0.86590000  1.0 -0.2098017707
C  C1212  1  0.85050000  0.74350000  0.63410000  1.0 -0.2098017707
C  C1213  1  0.86590000  0.35050000  0.74350000  1.0 -0.2098017707
C  C1214  1  0.63410000  0.64950000  0.24350000  1.0 -0.2098017707
C  C1215  1  0.13410000  0.85050000  0.75650000  1.0 -0.2098017707
C  C1216  1  0.36590000  0.14950000  0.25650000  1.0 -0.2098017707
C  C1217  1  0.74350000  0.86590000  0.35050000  1.0 -0.2098017707
C  C1218  1  0.24350000  0.63410000  0.64950000  1.0 -0.2098017707
C  C1219  1  0.75650000  0.13410000  0.85050000  1.0 -0.2098017707
C  C1220  1  0.25650000  0.36590000  0.14950000  1.0 -0.2098017707
C  C1221  1  0.35050000  0.74350000  0.86590000  1.0 -0.2098017707
C  C1222  1  0.64950000  0.24350000  0.63410000  1.0 -0.2098017707
C  C1223  1  0.85050000  0.75650000  0.13410000  1.0 -0.2098017707
C  C1224  1  0.14950000  0.25650000  0.36590000  1.0 -0.2098017707
C  C1225  1  0.11250000  0.66960000  0.27920000  1.0 0.0510037464
C  C1226  1  0.38750000  0.33040000  0.77920000  1.0 0.0510037464
C  C1227  1  0.88750000  0.16960000  0.22080000  1.0 0.0510037464
C  C1228  1  0.61250000  0.83040000  0.72080000  1.0 0.0510037464
C  C1229  1  0.27920000  0.11250000  0.66960000  1.0 0.0510037464
C  C1230  1  0.77920000  0.38750000  0.33040000  1.0 0.0510037464
C  C1231  1  0.22080000  0.88750000  0.16960000  1.0 0.0510037464
C  C1232  1  0.72080000  0.61250000  0.83040000  1.0 0.0510037464
C  C1233  1  0.66960000  0.27920000  0.11250000  1.0 0.0510037464
C  C1234  1  0.33040000  0.77920000  0.38750000  1.0 0.0510037464
C  C1235  1  0.16960000  0.22080000  0.88750000  1.0 0.0510037464
C  C1236  1  0.83040000  0.72080000  0.61250000  1.0 0.0510037464
C  C1237  1  0.88750000  0.33040000  0.72080000  1.0 0.0510037464
C  C1238  1  0.61250000  0.66960000  0.22080000  1.0 0.0510037464
C  C1239  1  0.11250000  0.83040000  0.77920000  1.0 0.0510037464
C  C1240  1  0.38750000  0.16960000  0.27920000  1.0 0.0510037464
C  C1241  1  0.72080000  0.88750000  0.33040000  1.0 0.0510037464
C  C1242  1  0.22080000  0.61250000  0.66960000  1.0 0.0510037464
C  C1243  1  0.77920000  0.11250000  0.83040000  1.0 0.0510037464
C  C1244  1  0.27920000  0.38750000  0.16960000  1.0 0.0510037464
C  C1245  1  0.33040000  0.72080000  0.88750000  1.0 0.0510037464
C  C1246  1  0.66960000  0.22080000  0.61250000  1.0 0.0510037464
C  C1247  1  0.83040000  0.77920000  0.11250000  1.0 0.0510037464
C  C1248  1  0.16960000  0.27920000  0.38750000  1.0 0.0510037464
C  C1249  1  0.12850000  0.69190000  0.30190000  1.0 -0.1079180169
C  C1250  1  0.37150000  0.30810000  0.80190000  1.0 -0.1079180169
C  C1251  1  0.87150000  0.19190000  0.19810000  1.0 -0.1079180169
C  C1252  1  0.62850000  0.80810000  0.69810000  1.0 -0.1079180169
C  C1253  1  0.30190000  0.12850000  0.69190000  1.0 -0.1079180169
C  C1254  1  0.80190000  0.37150000  0.30810000  1.0 -0.1079180169
C  C1255  1  0.19810000  0.87150000  0.19190000  1.0 -0.1079180169
C  C1256  1  0.69810000  0.62850000  0.80810000  1.0 -0.1079180169
C  C1257  1  0.69190000  0.30190000  0.12850000  1.0 -0.1079180169
C  C1258  1  0.30810000  0.80190000  0.37150000  1.0 -0.1079180169
C  C1259  1  0.19190000  0.19810000  0.87150000  1.0 -0.1079180169
C  C1260  1  0.80810000  0.69810000  0.62850000  1.0 -0.1079180169
C  C1261  1  0.87150000  0.30810000  0.69810000  1.0 -0.1079180169
C  C1262  1  0.62850000  0.69190000  0.19810000  1.0 -0.1079180169
C  C1263  1  0.12850000  0.80810000  0.80190000  1.0 -0.1079180169
C  C1264  1  0.37150000  0.19190000  0.30190000  1.0 -0.1079180169
C  C1265  1  0.69810000  0.87150000  0.30810000  1.0 -0.1079180169
C  C1266  1  0.19810000  0.62850000  0.69190000  1.0 -0.1079180169
C  C1267  1  0.80190000  0.12850000  0.80810000  1.0 -0.1079180169
C  C1268  1  0.30190000  0.37150000  0.19190000  1.0 -0.1079180169
C  C1269  1  0.30810000  0.69810000  0.87150000  1.0 -0.1079180169
C  C1270  1  0.69190000  0.19810000  0.62850000  1.0 -0.1079180169
C  C1271  1  0.80810000  0.80190000  0.12850000  1.0 -0.1079180169
C  C1272  1  0.19190000  0.30190000  0.37150000  1.0 -0.1079180169
C  C1273  1  0.10680000  0.71120000  0.32240000  1.0 0.0698539801
C  C1274  1  0.39320000  0.28880000  0.82240000  1.0 0.0698539801
C  C1275  1  0.89320000  0.21120000  0.17760000  1.0 0.0698539801
C  C1276  1  0.60680000  0.78880000  0.67760000  1.0 0.0698539801
C  C1277  1  0.32240000  0.10680000  0.71120000  1.0 0.0698539801
C  C1278  1  0.82240000  0.39320000  0.28880000  1.0 0.0698539801
C  C1279  1  0.17760000  0.89320000  0.21120000  1.0 0.0698539801
C  C1280  1  0.67760000  0.60680000  0.78880000  1.0 0.0698539801
C  C1281  1  0.71120000  0.32240000  0.10680000  1.0 0.0698539801
C  C1282  1  0.28880000  0.82240000  0.39320000  1.0 0.0698539801
C  C1283  1  0.21120000  0.17760000  0.89320000  1.0 0.0698539801
C  C1284  1  0.78880000  0.67760000  0.60680000  1.0 0.0698539801
C  C1285  1  0.89320000  0.28880000  0.67760000  1.0 0.0698539801
C  C1286  1  0.60680000  0.71120000  0.17760000  1.0 0.0698539801
C  C1287  1  0.10680000  0.78880000  0.82240000  1.0 0.0698539801
C  C1288  1  0.39320000  0.21120000  0.32240000  1.0 0.0698539801
C  C1289  1  0.67760000  0.89320000  0.28880000  1.0 0.0698539801
C  C1290  1  0.17760000  0.60680000  0.71120000  1.0 0.0698539801
C  C1291  1  0.82240000  0.10680000  0.78880000  1.0 0.0698539801
C  C1292  1  0.32240000  0.39320000  0.21120000  1.0 0.0698539801
C  C1293  1  0.28880000  0.67760000  0.89320000  1.0 0.0698539801
C  C1294  1  0.71120000  0.17760000  0.60680000  1.0 0.0698539801
C  C1295  1  0.78880000  0.82240000  0.10680000  1.0 0.0698539801
C  C1296  1  0.21120000  0.32240000  0.39320000  1.0 0.0698539801
C  C1297  1  0.12040000  0.73550000  0.34700000  1.0 -0.1188927971
C  C1298  1  0.37960000  0.26450000  0.84700000  1.0 -0.1188927971
C  C1299  1  0.87960000  0.23550000  0.15300000  1.0 -0.1188927971
C  C1300  1  0.62040000  0.76450000  0.65300000  1.0 -0.1188927971
C  C1301  1  0.34700000  0.12040000  0.73550000  1.0 -0.1188927971
C  C1302  1  0.84700000  0.37960000  0.26450000  1.0 -0.1188927971
C  C1303  1  0.15300000  0.87960000  0.23550000  1.0 -0.1188927971
C  C1304  1  0.65300000  0.62040000  0.76450000  1.0 -0.1188927971
C  C1305  1  0.73550000  0.34700000  0.12040000  1.0 -0.1188927971
C  C1306  1  0.26450000  0.84700000  0.37960000  1.0 -0.1188927971
C  C1307  1  0.23550000  0.15300000  0.87960000  1.0 -0.1188927971
C  C1308  1  0.76450000  0.65300000  0.62040000  1.0 -0.1188927971
C  C1309  1  0.87960000  0.26450000  0.65300000  1.0 -0.1188927971
C  C1310  1  0.62040000  0.73550000  0.15300000  1.0 -0.1188927971
C  C1311  1  0.12040000  0.76450000  0.84700000  1.0 -0.1188927971
C  C1312  1  0.37960000  0.23550000  0.34700000  1.0 -0.1188927971
C  C1313  1  0.65300000  0.87960000  0.26450000  1.0 -0.1188927971
C  C1314  1  0.15300000  0.62040000  0.73550000  1.0 -0.1188927971
C  C1315  1  0.84700000  0.12040000  0.76450000  1.0 -0.1188927971
C  C1316  1  0.34700000  0.37960000  0.23550000  1.0 -0.1188927971
C  C1317  1  0.26450000  0.65300000  0.87960000  1.0 -0.1188927971
C  C1318  1  0.73550000  0.15300000  0.62040000  1.0 -0.1188927971
C  C1319  1  0.76450000  0.84700000  0.12040000  1.0 -0.1188927971
C  C1320  1  0.23550000  0.34700000  0.37960000  1.0 -0.1188927971
C  C1321  1  0.09190000  0.75070000  0.35990000  1.0 -0.0677902526
C  C1322  1  0.40810000  0.24930000  0.85990000  1.0 -0.0677902526
C  C1323  1  0.90810000  0.25070000  0.14010000  1.0 -0.0677902526
C  C1324  1  0.59190000  0.74930000  0.64010000  1.0 -0.0677902526
C  C1325  1  0.35990000  0.09190000  0.75070000  1.0 -0.0677902526
C  C1326  1  0.85990000  0.40810000  0.24930000  1.0 -0.0677902526
C  C1327  1  0.14010000  0.90810000  0.25070000  1.0 -0.0677902526
C  C1328  1  0.64010000  0.59190000  0.74930000  1.0 -0.0677902526
C  C1329  1  0.75070000  0.35990000  0.09190000  1.0 -0.0677902526
C  C1330  1  0.24930000  0.85990000  0.40810000  1.0 -0.0677902526
C  C1331  1  0.25070000  0.14010000  0.90810000  1.0 -0.0677902526
C  C1332  1  0.74930000  0.64010000  0.59190000  1.0 -0.0677902526
C  C1333  1  0.90810000  0.24930000  0.64010000  1.0 -0.0677902526
C  C1334  1  0.59190000  0.75070000  0.14010000  1.0 -0.0677902526
C  C1335  1  0.09190000  0.74930000  0.85990000  1.0 -0.0677902526
C  C1336  1  0.40810000  0.25070000  0.35990000  1.0 -0.0677902526
C  C1337  1  0.64010000  0.90810000  0.24930000  1.0 -0.0677902526
C  C1338  1  0.14010000  0.59190000  0.75070000  1.0 -0.0677902526
C  C1339  1  0.85990000  0.09190000  0.74930000  1.0 -0.0677902526
C  C1340  1  0.35990000  0.40810000  0.25070000  1.0 -0.0677902526
C  C1341  1  0.24930000  0.64010000  0.90810000  1.0 -0.0677902526
C  C1342  1  0.75070000  0.14010000  0.59190000  1.0 -0.0677902526
C  C1343  1  0.74930000  0.85990000  0.09190000  1.0 -0.0677902526
C  C1344  1  0.25070000  0.35990000  0.40810000  1.0 -0.0677902526
C  C1345  1  0.06030000  0.73920000  0.34470000  1.0 0.089765146
C  C1346  1  0.43970000  0.26080000  0.84470000  1.0 0.089765146
C  C1347  1  0.93970000  0.23920000  0.15530000  1.0 0.089765146
C  C1348  1  0.56030000  0.76080000  0.65530000  1.0 0.089765146
C  C1349  1  0.34470000  0.06030000  0.73920000  1.0 0.089765146
C  C1350  1  0.84470000  0.43970000  0.26080000  1.0 0.089765146
C  C1351  1  0.15530000  0.93970000  0.23920000  1.0 0.089765146
C  C1352  1  0.65530000  0.56030000  0.76080000  1.0 0.089765146
C  C1353  1  0.73920000  0.34470000  0.06030000  1.0 0.089765146
C  C1354  1  0.26080000  0.84470000  0.43970000  1.0 0.089765146
C  C1355  1  0.23920000  0.15530000  0.93970000  1.0 0.089765146
C  C1356  1  0.76080000  0.65530000  0.56030000  1.0 0.089765146
C  C1357  1  0.93970000  0.26080000  0.65530000  1.0 0.089765146
C  C1358  1  0.56030000  0.73920000  0.15530000  1.0 0.089765146
C  C1359  1  0.06030000  0.76080000  0.84470000  1.0 0.089765146
C  C1360  1  0.43970000  0.23920000  0.34470000  1.0 0.089765146
C  C1361  1  0.65530000  0.93970000  0.26080000  1.0 0.089765146
C  C1362  1  0.15530000  0.56030000  0.73920000  1.0 0.089765146
C  C1363  1  0.84470000  0.06030000  0.76080000  1.0 0.089765146
C  C1364  1  0.34470000  0.43970000  0.23920000  1.0 0.089765146
C  C1365  1  0.26080000  0.65530000  0.93970000  1.0 0.089765146
C  C1366  1  0.73920000  0.15530000  0.56030000  1.0 0.089765146
C  C1367  1  0.76080000  0.84470000  0.06030000  1.0 0.089765146
C  C1368  1  0.23920000  0.34470000  0.43970000  1.0 0.089765146
C  C1369  1  0.16630000  0.69200000  0.30630000  1.0 0.0077969122
C  C1370  1  0.33370000  0.30800000  0.80630000  1.0 0.0077969122
C  C1371  1  0.83370000  0.19200000  0.19370000  1.0 0.0077969122
C  C1372  1  0.66630000  0.80800000  0.69370000  1.0 0.0077969122
C  C1373  1  0.30630000  0.16630000  0.69200000  1.0 0.0077969122
C  C1374  1  0.80630000  0.33370000  0.30800000  1.0 0.0077969122
C  C1375  1  0.19370000  0.83370000  0.19200000  1.0 0.0077969122
C  C1376  1  0.69370000  0.66630000  0.80800000  1.0 0.0077969122
C  C1377  1  0.69200000  0.30630000  0.16630000  1.0 0.0077969122
C  C1378  1  0.30800000  0.80630000  0.33370000  1.0 0.0077969122
C  C1379  1  0.19200000  0.19370000  0.83370000  1.0 0.0077969122
C  C1380  1  0.80800000  0.69370000  0.66630000  1.0 0.0077969122
C  C1381  1  0.83370000  0.30800000  0.69370000  1.0 0.0077969122
C  C1382  1  0.66630000  0.69200000  0.19370000  1.0 0.0077969122
C  C1383  1  0.16630000  0.80800000  0.80630000  1.0 0.0077969122
C  C1384  1  0.33370000  0.19200000  0.30630000  1.0 0.0077969122
C  C1385  1  0.69370000  0.83370000  0.30800000  1.0 0.0077969122
C  C1386  1  0.19370000  0.66630000  0.69200000  1.0 0.0077969122
C  C1387  1  0.80630000  0.16630000  0.80800000  1.0 0.0077969122
C  C1388  1  0.30630000  0.33370000  0.19200000  1.0 0.0077969122
C  C1389  1  0.30800000  0.69370000  0.83370000  1.0 0.0077969122
C  C1390  1  0.69200000  0.19370000  0.66630000  1.0 0.0077969122
C  C1391  1  0.80800000  0.80630000  0.16630000  1.0 0.0077969122
C  C1392  1  0.19200000  0.30630000  0.33370000  1.0 0.0077969122
C  C1393  1  0.18680000  0.71260000  0.28540000  1.0 0.0415743677
C  C1394  1  0.31320000  0.28740000  0.78540000  1.0 0.0510037464
C  C1395  1  0.81320000  0.21260000  0.21460000  1.0 0.0510037464
C  C1396  1  0.68680000  0.78740000  0.71460000  1.0 0.0510037464
C  C1397  1  0.28540000  0.18680000  0.71260000  1.0 0.0510037464
C  C1398  1  0.78540000  0.31320000  0.28740000  1.0 0.0510037464
C  C1399  1  0.21460000  0.81320000  0.21260000  1.0 0.0415743677
C  C1400  1  0.71460000  0.68680000  0.78740000  1.0 0.0510037464
C  C1401  1  0.71260000  0.28540000  0.18680000  1.0 0.0510037464
C  C1402  1  0.28740000  0.78540000  0.31320000  1.0 0.0415743677
C  C1403  1  0.21260000  0.21460000  0.81320000  1.0 0.0510037464
C  C1404  1  0.78740000  0.71460000  0.68680000  1.0 0.0510037464
C  C1405  1  0.81320000  0.28740000  0.71460000  1.0 0.0510037464
C  C1406  1  0.68680000  0.71260000  0.21460000  1.0 0.0415743677
C  C1407  1  0.18680000  0.78740000  0.78540000  1.0 0.0510037464
C  C1408  1  0.31320000  0.21260000  0.28540000  1.0 0.0510037464
C  C1409  1  0.71460000  0.81320000  0.28740000  1.0 0.0415743677
C  C1410  1  0.21460000  0.68680000  0.71260000  1.0 0.0510037464
C  C1411  1  0.78540000  0.18680000  0.78740000  1.0 0.0510037464
C  C1412  1  0.28540000  0.31320000  0.21260000  1.0 0.0510037464
C  C1413  1  0.28740000  0.71460000  0.81320000  1.0 0.0510037464
C  C1414  1  0.71260000  0.21460000  0.68680000  1.0 0.0510037464
C  C1415  1  0.78740000  0.78540000  0.18680000  1.0 0.0415743677
C  C1416  1  0.21260000  0.28540000  0.31320000  1.0 0.0510037464
C  C1417  1  0.22210000  0.71420000  0.29100000  1.0 -0.250858051
C  C1418  1  0.27790000  0.28580000  0.79100000  1.0 -0.250858051
C  C1419  1  0.77790000  0.21420000  0.20900000  1.0 -0.250858051
C  C1420  1  0.72210000  0.78580000  0.70900000  1.0 -0.250858051
C  C1421  1  0.29100000  0.22210000  0.71420000  1.0 -0.250858051
C  C1422  1  0.79100000  0.27790000  0.28580000  1.0 -0.250858051
C  C1423  1  0.20900000  0.77790000  0.21420000  1.0 -0.250858051
C  C1424  1  0.70900000  0.72210000  0.78580000  1.0 -0.250858051
C  C1425  1  0.71420000  0.29100000  0.22210000  1.0 -0.250858051
C  C1426  1  0.28580000  0.79100000  0.27790000  1.0 -0.250858051
C  C1427  1  0.21420000  0.20900000  0.77790000  1.0 -0.250858051
C  C1428  1  0.78580000  0.70900000  0.72210000  1.0 -0.250858051
C  C1429  1  0.77790000  0.28580000  0.70900000  1.0 -0.250858051
C  C1430  1  0.72210000  0.71420000  0.20900000  1.0 -0.250858051
C  C1431  1  0.22210000  0.78580000  0.79100000  1.0 -0.250858051
C  C1432  1  0.27790000  0.21420000  0.29100000  1.0 -0.250858051
C  C1433  1  0.70900000  0.77790000  0.28580000  1.0 -0.250858051
C  C1434  1  0.20900000  0.72210000  0.71420000  1.0 -0.250858051
C  C1435  1  0.79100000  0.22210000  0.78580000  1.0 -0.250858051
C  C1436  1  0.29100000  0.27790000  0.21420000  1.0 -0.250858051
C  C1437  1  0.28580000  0.70900000  0.77790000  1.0 -0.250858051
C  C1438  1  0.71420000  0.20900000  0.72210000  1.0 -0.250858051
C  C1439  1  0.78580000  0.79100000  0.22210000  1.0 -0.250858051
C  C1440  1  0.21420000  0.29100000  0.27790000  1.0 -0.250858051
C  C1441  1  0.23690000  0.69530000  0.31750000  1.0 -0.1707689588
C  C1442  1  0.26310000  0.30470000  0.81750000  1.0 -0.1707689588
C  C1443  1  0.76310000  0.19530000  0.18250000  1.0 -0.1707689588
C  C1444  1  0.73690000  0.80470000  0.68250000  1.0 -0.1707689588
C  C1445  1  0.31750000  0.23690000  0.69530000  1.0 -0.1707689588
C  C1446  1  0.81750000  0.26310000  0.30470000  1.0 -0.1707689588
C  C1447  1  0.18250000  0.76310000  0.19530000  1.0 -0.1707689588
C  C1448  1  0.68250000  0.73690000  0.80470000  1.0 -0.1707689588
C  C1449  1  0.69530000  0.31750000  0.23690000  1.0 -0.1707689588
C  C1450  1  0.30470000  0.81750000  0.26310000  1.0 -0.1707689588
C  C1451  1  0.19530000  0.18250000  0.76310000  1.0 -0.1707689588
C  C1452  1  0.80470000  0.68250000  0.73690000  1.0 -0.1707689588
C  C1453  1  0.76310000  0.30470000  0.68250000  1.0 -0.1707689588
C  C1454  1  0.73690000  0.69530000  0.18250000  1.0 -0.1707689588
C  C1455  1  0.23690000  0.80470000  0.81750000  1.0 -0.1707689588
C  C1456  1  0.26310000  0.19530000  0.31750000  1.0 -0.1707689588
C  C1457  1  0.68250000  0.76310000  0.30470000  1.0 -0.1707689588
C  C1458  1  0.18250000  0.73690000  0.69530000  1.0 -0.1707689588
C  C1459  1  0.81750000  0.23690000  0.80470000  1.0 -0.1707689588
C  C1460  1  0.31750000  0.26310000  0.19530000  1.0 -0.1707689588
C  C1461  1  0.30470000  0.68250000  0.76310000  1.0 -0.1707689588
C  C1462  1  0.69530000  0.18250000  0.73690000  1.0 -0.1707689588
C  C1463  1  0.80470000  0.81750000  0.23690000  1.0 -0.1707689588
C  C1464  1  0.19530000  0.31750000  0.26310000  1.0 -0.1707689588
C  C1465  1  0.21640000  0.67460000  0.33840000  1.0 -0.0086914845
C  C1466  1  0.28360000  0.32540000  0.83840000  1.0 -0.0086914845
C  C1467  1  0.78360000  0.17460000  0.16160000  1.0 -0.0086914845
C  C1468  1  0.71640000  0.82540000  0.66160000  1.0 -0.0086914845
C  C1469  1  0.33840000  0.21640000  0.67460000  1.0 -0.0086914845
C  C1470  1  0.83840000  0.28360000  0.32540000  1.0 -0.0086914845
C  C1471  1  0.16160000  0.78360000  0.17460000  1.0 -0.0086914845
C  C1472  1  0.66160000  0.71640000  0.82540000  1.0 -0.0086914845
C  C1473  1  0.67460000  0.33840000  0.21640000  1.0 -0.0086914845
C  C1474  1  0.32540000  0.83840000  0.28360000  1.0 -0.0086914845
C  C1475  1  0.17460000  0.16160000  0.78360000  1.0 -0.0086914845
C  C1476  1  0.82540000  0.66160000  0.71640000  1.0 -0.0086914845
C  C1477  1  0.78360000  0.32540000  0.66160000  1.0 -0.0086914845
C  C1478  1  0.71640000  0.67460000  0.16160000  1.0 -0.0086914845
C  C1479  1  0.21640000  0.82540000  0.83840000  1.0 -0.0086914845
C  C1480  1  0.28360000  0.17460000  0.33840000  1.0 -0.0086914845
C  C1481  1  0.66160000  0.78360000  0.32540000  1.0 -0.0086914845
C  C1482  1  0.16160000  0.71640000  0.67460000  1.0 -0.0086914845
C  C1483  1  0.83840000  0.21640000  0.82540000  1.0 -0.0086914845
C  C1484  1  0.33840000  0.28360000  0.17460000  1.0 -0.0086914845
C  C1485  1  0.32540000  0.66160000  0.78360000  1.0 -0.0086914845
C  C1486  1  0.67460000  0.16160000  0.71640000  1.0 -0.0086914845
C  C1487  1  0.82540000  0.83840000  0.21640000  1.0 -0.0086914845
C  C1488  1  0.17460000  0.33840000  0.28360000  1.0 -0.0086914845
C  C1489  1  0.18110000  0.67300000  0.33290000  1.0 -0.0329171863
C  C1490  1  0.31890000  0.32700000  0.83290000  1.0 -0.0329171863
C  C1491  1  0.81890000  0.17300000  0.16710000  1.0 -0.0370283658
C  C1492  1  0.68110000  0.82700000  0.66710000  1.0 -0.0329171863
C  C1493  1  0.33290000  0.18110000  0.67300000  1.0 -0.0370283658
C  C1494  1  0.83290000  0.31890000  0.32700000  1.0 -0.0329171863
C  C1495  1  0.16710000  0.81890000  0.17300000  1.0 -0.0329171863
C  C1496  1  0.66710000  0.68110000  0.82700000  1.0 -0.0329171863
C  C1497  1  0.67300000  0.33290000  0.18110000  1.0 -0.0329171863
C  C1498  1  0.32700000  0.83290000  0.31890000  1.0 -0.0329171863
C  C1499  1  0.17300000  0.16710000  0.81890000  1.0 -0.0370283658
C  C1500  1  0.82700000  0.66710000  0.68110000  1.0 -0.0329171863
C  C1501  1  0.81890000  0.32700000  0.66710000  1.0 -0.0329171863
C  C1502  1  0.68110000  0.67300000  0.16710000  1.0 -0.0329171863
C  C1503  1  0.18110000  0.82700000  0.83290000  1.0 -0.0329171863
C  C1504  1  0.31890000  0.17300000  0.33290000  1.0 -0.0370283658
C  C1505  1  0.66710000  0.81890000  0.32700000  1.0 -0.0329171863
C  C1506  1  0.16710000  0.68110000  0.67300000  1.0 -0.0329171863
C  C1507  1  0.83290000  0.18110000  0.82700000  1.0 -0.0329171863
C  C1508  1  0.33290000  0.31890000  0.17300000  1.0 -0.0370283658
C  C1509  1  0.32700000  0.66710000  0.81890000  1.0 -0.0329171863
C  C1510  1  0.67300000  0.16710000  0.68110000  1.0 -0.0370283658
C  C1511  1  0.82700000  0.83290000  0.18110000  1.0 -0.0329171863
C  C1512  1  0.17300000  0.33290000  0.31890000  1.0 -0.0370283658
C  C1513  1  0.90880000  0.69200000  0.27140000  1.0 -0.0503639372
C  C1514  1  0.59120000  0.30800000  0.77140000  1.0 -0.0503639372
C  C1515  1  0.09120000  0.19200000  0.22860000  1.0 -0.0503639372
C  C1516  1  0.40880000  0.80800000  0.72860000  1.0 -0.0503639372
C  C1517  1  0.27140000  0.90880000  0.69200000  1.0 -0.0503639372
C  C1518  1  0.77140000  0.59120000  0.30800000  1.0 -0.0503639372
C  C1519  1  0.22860000  0.09120000  0.19200000  1.0 -0.0503639372
C  C1520  1  0.72860000  0.40880000  0.80800000  1.0 -0.0503639372
C  C1521  1  0.69200000  0.27140000  0.90880000  1.0 -0.0503639372
C  C1522  1  0.30800000  0.77140000  0.59120000  1.0 -0.0503639372
C  C1523  1  0.19200000  0.22860000  0.09120000  1.0 -0.0503639372
C  C1524  1  0.80800000  0.72860000  0.40880000  1.0 -0.0503639372
C  C1525  1  0.09120000  0.30800000  0.72860000  1.0 -0.0503639372
C  C1526  1  0.40880000  0.69200000  0.22860000  1.0 -0.0503639372
C  C1527  1  0.90880000  0.80800000  0.77140000  1.0 -0.0503639372
C  C1528  1  0.59120000  0.19200000  0.27140000  1.0 -0.0503639372
C  C1529  1  0.72860000  0.09120000  0.30800000  1.0 -0.0503639372
C  C1530  1  0.22860000  0.40880000  0.69200000  1.0 -0.0503639372
C  C1531  1  0.77140000  0.90880000  0.80800000  1.0 -0.0503639372
C  C1532  1  0.27140000  0.59120000  0.19200000  1.0 -0.0503639372
C  C1533  1  0.30800000  0.72860000  0.09120000  1.0 -0.0503639372
C  C1534  1  0.69200000  0.22860000  0.40880000  1.0 -0.0503639372
C  C1535  1  0.80800000  0.77140000  0.90880000  1.0 -0.0503639372
C  C1536  1  0.19200000  0.27140000  0.59120000  1.0 -0.0503639372
C  C1537  1  0.88330000  0.66890000  0.28140000  1.0 0.0303850508
C  C1538  1  0.61670000  0.33110000  0.78140000  1.0 0.0303850508
C  C1539  1  0.11670000  0.16890000  0.21860000  1.0 0.0303850508
C  C1540  1  0.38330000  0.83110000  0.71860000  1.0 0.0303850508
C  C1541  1  0.28140000  0.88330000  0.66890000  1.0 0.0303850508
C  C1542  1  0.78140000  0.61670000  0.33110000  1.0 0.0303850508
C  C1543  1  0.21860000  0.11670000  0.16890000  1.0 0.0303850508
C  C1544  1  0.71860000  0.38330000  0.83110000  1.0 0.0303850508
C  C1545  1  0.66890000  0.28140000  0.88330000  1.0 0.0303850508
C  C1546  1  0.33110000  0.78140000  0.61670000  1.0 0.0303850508
C  C1547  1  0.16890000  0.21860000  0.11670000  1.0 0.0303850508
C  C1548  1  0.83110000  0.71860000  0.38330000  1.0 0.0303850508
C  C1549  1  0.11670000  0.33110000  0.71860000  1.0 0.0303850508
C  C1550  1  0.38330000  0.66890000  0.21860000  1.0 0.0303850508
C  C1551  1  0.88330000  0.83110000  0.78140000  1.0 0.0303850508
C  C1552  1  0.61670000  0.16890000  0.28140000  1.0 0.0303850508
C  C1553  1  0.71860000  0.11670000  0.33110000  1.0 0.0303850508
C  C1554  1  0.21860000  0.38330000  0.66890000  1.0 0.0303850508
C  C1555  1  0.78140000  0.88330000  0.83110000  1.0 0.0303850508
C  C1556  1  0.28140000  0.61670000  0.16890000  1.0 0.0303850508
C  C1557  1  0.33110000  0.71860000  0.11670000  1.0 0.0303850508
C  C1558  1  0.66890000  0.21860000  0.38330000  1.0 0.0303850508
C  C1559  1  0.83110000  0.78140000  0.88330000  1.0 0.0303850508
C  C1560  1  0.16890000  0.28140000  0.61670000  1.0 0.0303850508
C  C1561  1  0.84950000  0.67390000  0.27080000  1.0 0.0025215966
C  C1562  1  0.65050000  0.32610000  0.77080000  1.0 0.0025215966
C  C1563  1  0.15050000  0.17390000  0.22920000  1.0 0.0025215966
C  C1564  1  0.34950000  0.82610000  0.72920000  1.0 0.0025215966
C  C1565  1  0.27080000  0.84950000  0.67390000  1.0 0.0025215966
C  C1566  1  0.77080000  0.65050000  0.32610000  1.0 0.0025215966
C  C1567  1  0.22920000  0.15050000  0.17390000  1.0 0.0025215966
C  C1568  1  0.72920000  0.34950000  0.82610000  1.0 0.0025215966
C  C1569  1  0.67390000  0.27080000  0.84950000  1.0 0.0025215966
C  C1570  1  0.32610000  0.77080000  0.65050000  1.0 0.0025215966
C  C1571  1  0.17390000  0.22920000  0.15050000  1.0 0.0025215966
C  C1572  1  0.82610000  0.72920000  0.34950000  1.0 0.0025215966
C  C1573  1  0.15050000  0.32610000  0.72920000  1.0 0.0025215966
C  C1574  1  0.34950000  0.67390000  0.22920000  1.0 0.0025215966
C  C1575  1  0.84950000  0.82610000  0.77080000  1.0 0.0025215966
C  C1576  1  0.65050000  0.17390000  0.27080000  1.0 0.0025215966
C  C1577  1  0.72920000  0.15050000  0.32610000  1.0 0.0025215966
C  C1578  1  0.22920000  0.34950000  0.67390000  1.0 0.0025215966
C  C1579  1  0.77080000  0.84950000  0.82610000  1.0 0.0025215966
C  C1580  1  0.27080000  0.65050000  0.17390000  1.0 0.0025215966
C  C1581  1  0.32610000  0.72920000  0.15050000  1.0 0.0025215966
C  C1582  1  0.67390000  0.22920000  0.34950000  1.0 0.0025215966
C  C1583  1  0.82610000  0.77080000  0.84950000  1.0 0.0025215966
C  C1584  1  0.17390000  0.27080000  0.65050000  1.0 0.0025215966
C  C1585  1  0.84110000  0.70190000  0.25010000  1.0 -0.0677902526
C  C1586  1  0.65890000  0.29810000  0.75010000  1.0 -0.0677902526
C  C1587  1  0.15890000  0.20190000  0.24990000  1.0 -0.0677902526
C  C1588  1  0.34110000  0.79810000  0.74990000  1.0 -0.0677902526
C  C1589  1  0.25010000  0.84110000  0.70190000  1.0 -0.0677902526
C  C1590  1  0.75010000  0.65890000  0.29810000  1.0 -0.0677902526
C  C1591  1  0.24990000  0.15890000  0.20190000  1.0 -0.0677902526
C  C1592  1  0.74990000  0.34110000  0.79810000  1.0 -0.0677902526
C  C1593  1  0.70190000  0.25010000  0.84110000  1.0 -0.0677902526
C  C1594  1  0.29810000  0.75010000  0.65890000  1.0 -0.0677902526
C  C1595  1  0.20190000  0.24990000  0.15890000  1.0 -0.0677902526
C  C1596  1  0.79810000  0.74990000  0.34110000  1.0 -0.0677902526
C  C1597  1  0.15890000  0.29810000  0.74990000  1.0 -0.0677902526
C  C1598  1  0.34110000  0.70190000  0.24990000  1.0 -0.0677902526
C  C1599  1  0.84110000  0.79810000  0.75010000  1.0 -0.0677902526
C  C1600  1  0.65890000  0.20190000  0.25010000  1.0 -0.0677902526
C  C1601  1  0.74990000  0.15890000  0.29810000  1.0 -0.0677902526
C  C1602  1  0.24990000  0.34110000  0.70190000  1.0 -0.0677902526
C  C1603  1  0.75010000  0.84110000  0.79810000  1.0 -0.0677902526
C  C1604  1  0.25010000  0.65890000  0.20190000  1.0 -0.0677902526
C  C1605  1  0.29810000  0.74990000  0.15890000  1.0 -0.0677902526
C  C1606  1  0.70190000  0.24990000  0.34110000  1.0 -0.0677902526
C  C1607  1  0.79810000  0.75010000  0.84110000  1.0 -0.0677902526
C  C1608  1  0.20190000  0.25010000  0.65890000  1.0 -0.0677902526
C  C1609  1  0.86660000  0.72510000  0.24010000  1.0 -0.1538453046
C  C1610  1  0.63340000  0.27490000  0.74010000  1.0 -0.1538453046
C  C1611  1  0.13340000  0.22510000  0.25990000  1.0 -0.1538453046
C  C1612  1  0.36660000  0.77490000  0.75990000  1.0 -0.1538453046
C  C1613  1  0.24010000  0.86660000  0.72510000  1.0 -0.1538453046
C  C1614  1  0.74010000  0.63340000  0.27490000  1.0 -0.1538453046
C  C1615  1  0.25990000  0.13340000  0.22510000  1.0 -0.1538453046
C  C1616  1  0.75990000  0.36660000  0.77490000  1.0 -0.1538453046
C  C1617  1  0.72510000  0.24010000  0.86660000  1.0 -0.1538453046
C  C1618  1  0.27490000  0.74010000  0.63340000  1.0 -0.1538453046
C  C1619  1  0.22510000  0.25990000  0.13340000  1.0 -0.1538453046
C  C1620  1  0.77490000  0.75990000  0.36660000  1.0 -0.1538453046
C  C1621  1  0.13340000  0.27490000  0.75990000  1.0 -0.1538453046
C  C1622  1  0.36660000  0.72510000  0.25990000  1.0 -0.1538453046
C  C1623  1  0.86660000  0.77490000  0.74010000  1.0 -0.1538453046
C  C1624  1  0.63340000  0.22510000  0.24010000  1.0 -0.1538453046
C  C1625  1  0.75990000  0.13340000  0.27490000  1.0 -0.1538453046
C  C1626  1  0.25990000  0.36660000  0.72510000  1.0 -0.1538453046
C  C1627  1  0.74010000  0.86660000  0.77490000  1.0 -0.1538453046
C  C1628  1  0.24010000  0.63340000  0.22510000  1.0 -0.1538453046
C  C1629  1  0.27490000  0.75990000  0.13340000  1.0 -0.1538453046
C  C1630  1  0.72510000  0.25990000  0.36660000  1.0 -0.1538453046
C  C1631  1  0.77490000  0.74010000  0.86660000  1.0 -0.1538453046
C  C1632  1  0.22510000  0.24010000  0.63340000  1.0 -0.1538453046
C  C1633  1  0.90040000  0.72010000  0.25080000  1.0 0.0698539801
C  C1634  1  0.59960000  0.27990000  0.75080000  1.0 0.0698539801
C  C1635  1  0.09960000  0.22010000  0.24920000  1.0 0.0698539801
C  C1636  1  0.40040000  0.77990000  0.74920000  1.0 0.0698539801
C  C1637  1  0.25080000  0.90040000  0.72010000  1.0 0.0698539801
C  C1638  1  0.75080000  0.59960000  0.27990000  1.0 0.0698539801
C  C1639  1  0.24920000  0.09960000  0.22010000  1.0 0.0698539801
C  C1640  1  0.74920000  0.40040000  0.77990000  1.0 0.0698539801
C  C1641  1  0.72010000  0.25080000  0.90040000  1.0 0.0698539801
C  C1642  1  0.27990000  0.75080000  0.59960000  1.0 0.0698539801
C  C1643  1  0.22010000  0.24920000  0.09960000  1.0 0.0698539801
C  C1644  1  0.77990000  0.74920000  0.40040000  1.0 0.0698539801
C  C1645  1  0.09960000  0.27990000  0.74920000  1.0 0.0698539801
C  C1646  1  0.40040000  0.72010000  0.24920000  1.0 0.0698539801
C  C1647  1  0.90040000  0.77990000  0.75080000  1.0 0.0698539801
C  C1648  1  0.59960000  0.22010000  0.25080000  1.0 0.0698539801
C  C1649  1  0.74920000  0.09960000  0.27990000  1.0 0.0698539801
C  C1650  1  0.24920000  0.40040000  0.72010000  1.0 0.0698539801
C  C1651  1  0.75080000  0.90040000  0.77990000  1.0 0.0698539801
C  C1652  1  0.25080000  0.59960000  0.22010000  1.0 0.0698539801
C  C1653  1  0.27990000  0.74920000  0.09960000  1.0 0.0698539801
C  C1654  1  0.72010000  0.24920000  0.40040000  1.0 0.0698539801
C  C1655  1  0.77990000  0.75080000  0.90040000  1.0 0.0698539801
C  C1656  1  0.22010000  0.25080000  0.59960000  1.0 0.0698539801
Br  Br1  1  0.91550000  0.74430000  0.22830000  1.0 0.0510037464
Br  Br2  1  0.58450000  0.25570000  0.72830000  1.0 0.0510037464
Br  Br3  1  0.08450000  0.24430000  0.27170000  1.0 0.0510037464
Br  Br4  1  0.41550000  0.75570000  0.77170000  1.0 0.0510037464
Br  Br5  1  0.22830000  0.91550000  0.74430000  1.0 0.0510037464
Br  Br6  1  0.72830000  0.58450000  0.25570000  1.0 0.0510037464
Br  Br7  1  0.27170000  0.08450000  0.24430000  1.0 0.0510037464
Br  Br8  1  0.77170000  0.41550000  0.75570000  1.0 0.0510037464
Br  Br9  1  0.74430000  0.22830000  0.91550000  1.0 0.0510037464
Br  Br10  1  0.25570000  0.72830000  0.58450000  1.0 0.0510037464
Br  Br11  1  0.24430000  0.27170000  0.08450000  1.0 0.0510037464
Br  Br12  1  0.75570000  0.77170000  0.41550000  1.0 0.0510037464
Br  Br13  1  0.08450000  0.25570000  0.77170000  1.0 0.0510037464
Br  Br14  1  0.41550000  0.74430000  0.27170000  1.0 0.0510037464
Br  Br15  1  0.91550000  0.75570000  0.72830000  1.0 0.0510037464
Br  Br16  1  0.58450000  0.24430000  0.22830000  1.0 0.0510037464
Br  Br17  1  0.77170000  0.08450000  0.25570000  1.0 0.0510037464
Br  Br18  1  0.27170000  0.41550000  0.74430000  1.0 0.0510037464
Br  Br19  1  0.72830000  0.91550000  0.75570000  1.0 0.0510037464
Br  Br20  1  0.22830000  0.58450000  0.24430000  1.0 0.0510037464
Br  Br21  1  0.25570000  0.77170000  0.08450000  1.0 0.0510037464
Br  Br22  1  0.74430000  0.27170000  0.41550000  1.0 0.0510037464
Br  Br23  1  0.75570000  0.72830000  0.91550000  1.0 0.0510037464
Br  Br24  1  0.24430000  0.22830000  0.58450000  1.0 0.0510037464
Br  Br25  1  0.17290000  0.71070000  0.28070000  1.0 0.1201448722
Br  Br26  1  0.32710000  0.28930000  0.78070000  1.0 0.1201448722
Br  Br27  1  0.82710000  0.21070000  0.21930000  1.0 0.1201448722
Br  Br28  1  0.67290000  0.78930000  0.71930000  1.0 0.1201448722
Br  Br29  1  0.28070000  0.17290000  0.71070000  1.0 0.1201448722
Br  Br30  1  0.78070000  0.32710000  0.28930000  1.0 0.1201448722
Br  Br31  1  0.21930000  0.82710000  0.21070000  1.0 0.1201448722
Br  Br32  1  0.71930000  0.67290000  0.78930000  1.0 0.1201448722
Br  Br33  1  0.71070000  0.28070000  0.17290000  1.0 0.1201448722
Br  Br34  1  0.28930000  0.78070000  0.32710000  1.0 0.1201448722
Br  Br35  1  0.21070000  0.21930000  0.82710000  1.0 0.1201448722
Br  Br36  1  0.78930000  0.71930000  0.67290000  1.0 0.1201448722
Br  Br37  1  0.82710000  0.28930000  0.71930000  1.0 0.1201448722
Br  Br38  1  0.67290000  0.71070000  0.21930000  1.0 0.1201448722
Br  Br39  1  0.17290000  0.78930000  0.78070000  1.0 0.1201448722
Br  Br40  1  0.32710000  0.21070000  0.28070000  1.0 0.1201448722
Br  Br41  1  0.71930000  0.82710000  0.28930000  1.0 0.1201448722
Br  Br42  1  0.21930000  0.67290000  0.71070000  1.0 0.1201448722
Br  Br43  1  0.78070000  0.17290000  0.78930000  1.0 0.1201448722
Br  Br44  1  0.28070000  0.32710000  0.21070000  1.0 0.1201448722
Br  Br45  1  0.28930000  0.71930000  0.82710000  1.0 0.1201448722
Br  Br46  1  0.71070000  0.21930000  0.67290000  1.0 0.1201448722
Br  Br47  1  0.78930000  0.78070000  0.17290000  1.0 0.1286797044
Br  Br48  1  0.21070000  0.28070000  0.32710000  1.0 0.1201448722
Br  Br49  1  0.11909000  0.61721000  0.38007000  1.0 -0.0995322472
Br  Br50  1  0.38091000  0.38279000  0.88007000  1.0 -0.0995322472
Br  Br51  1  0.88091000  0.11721000  0.11993000  1.0 -0.0995322472
Br  Br52  1  0.61909000  0.88279000  0.61993000  1.0 -0.0995322472
Br  Br53  1  0.38007000  0.11909000  0.61721000  1.0 -0.0995322472
Br  Br54  1  0.88007000  0.38091000  0.38279000  1.0 -0.0995322472
Br  Br55  1  0.11993000  0.88091000  0.11721000  1.0 -0.0995322472
Br  Br56  1  0.61993000  0.61909000  0.88279000  1.0 -0.0995322472
Br  Br57  1  0.61721000  0.38007000  0.11909000  1.0 -0.0995322472
Br  Br58  1  0.38279000  0.88007000  0.38091000  1.0 -0.0995322472
Br  Br59  1  0.11721000  0.11993000  0.88091000  1.0 -0.0995322472
Br  Br60  1  0.88279000  0.61993000  0.61909000  1.0 -0.0995322472
Br  Br61  1  0.88091000  0.38279000  0.61993000  1.0 -0.0995322472
Br  Br62  1  0.61909000  0.61721000  0.11993000  1.0 -0.0995322472
Br  Br63  1  0.11909000  0.88279000  0.88007000  1.0 -0.0995322472
Br  Br64  1  0.38091000  0.11721000  0.38007000  1.0 -0.0995322472
Br  Br65  1  0.61993000  0.88091000  0.38279000  1.0 -0.0995322472
Br  Br66  1  0.11993000  0.61909000  0.61721000  1.0 -0.0995322472
Br  Br67  1  0.88007000  0.11909000  0.88279000  1.0 -0.0995322472
Br  Br68  1  0.38007000  0.38091000  0.11721000  1.0 -0.0995322472
Br  Br69  1  0.38279000  0.61993000  0.88091000  1.0 -0.0995322472
Br  Br70  1  0.61721000  0.11993000  0.61909000  1.0 -0.0995322472
Br  Br71  1  0.88279000  0.88007000  0.11909000  1.0 -0.0995322472
Br  Br72  1  0.11721000  0.38007000  0.38091000  1.0 -0.0995322472
Br  Br73  1  0.91180000  0.62970000  0.32180000  1.0 0.0077969122
Br  Br74  1  0.58820000  0.37030000  0.82180000  1.0 0.0077969122
Br  Br75  1  0.08820000  0.12970000  0.17820000  1.0 0.0077969122
Br  Br76  1  0.41180000  0.87030000  0.67820000  1.0 0.0077969122
Br  Br77  1  0.32180000  0.91180000  0.62970000  1.0 0.0077969122
Br  Br78  1  0.82180000  0.58820000  0.37030000  1.0 0.0077969122
Br  Br79  1  0.17820000  0.08820000  0.12970000  1.0 0.0077969122
Br  Br80  1  0.67820000  0.41180000  0.87030000  1.0 0.0077969122
Br  Br81  1  0.62970000  0.32180000  0.91180000  1.0 0.0077969122
Br  Br82  1  0.37030000  0.82180000  0.58820000  1.0 0.0077969122
Br  Br83  1  0.12970000  0.17820000  0.08820000  1.0 0.0077969122
Br  Br84  1  0.87030000  0.67820000  0.41180000  1.0 0.0077969122
Br  Br85  1  0.08820000  0.37030000  0.67820000  1.0 0.0077969122
Br  Br86  1  0.41180000  0.62970000  0.17820000  1.0 0.0077969122
Br  Br87  1  0.91180000  0.87030000  0.82180000  1.0 0.0077969122
Br  Br88  1  0.58820000  0.12970000  0.32180000  1.0 0.0077969122
Br  Br89  1  0.67820000  0.08820000  0.37030000  1.0 0.0077969122
Br  Br90  1  0.17820000  0.41180000  0.62970000  1.0 0.0077969122
Br  Br91  1  0.82180000  0.91180000  0.87030000  1.0 0.0077969122
Br  Br92  1  0.32180000  0.58820000  0.12970000  1.0 0.0077969122
Br  Br93  1  0.37030000  0.67820000  0.08820000  1.0 0.0077969122
Br  Br94  1  0.62970000  0.17820000  0.41180000  1.0 0.0077969122
Br  Br95  1  0.87030000  0.82180000  0.91180000  1.0 0.0077969122
Br  Br96  1  0.12970000  0.32180000  0.58820000  1.0 0.0077969122
Br  Br97  1  0.89770000  0.63070000  0.30450000  1.0 0.0611793066
Br  Br98  1  0.60230000  0.36930000  0.80450000  1.0 0.0611793066
Br  Br99  1  0.10230000  0.13070000  0.19550000  1.0 0.0611793066
Br  Br100  1  0.39770000  0.86930000  0.69550000  1.0 0.0611793066
Br  Br101  1  0.30450000  0.89770000  0.63070000  1.0 0.0611793066
Br  Br102  1  0.80450000  0.60230000  0.36930000  1.0 0.0611793066
Br  Br103  1  0.19550000  0.10230000  0.13070000  1.0 0.0611793066
Br  Br104  1  0.69550000  0.39770000  0.86930000  1.0 0.0611793066
Br  Br105  1  0.63070000  0.30450000  0.89770000  1.0 0.0611793066
Br  Br106  1  0.36930000  0.80450000  0.60230000  1.0 0.0611793066
Br  Br107  1  0.13070000  0.19550000  0.10230000  1.0 0.0611793066
Br  Br108  1  0.86930000  0.69550000  0.39770000  1.0 0.0611793066
Br  Br109  1  0.10230000  0.36930000  0.69550000  1.0 0.0611793066
Br  Br110  1  0.39770000  0.63070000  0.19550000  1.0 0.0611793066
Br  Br111  1  0.89770000  0.86930000  0.80450000  1.0 0.0611793066
Br  Br112  1  0.60230000  0.13070000  0.30450000  1.0 0.0611793066
Br  Br113  1  0.69550000  0.10230000  0.36930000  1.0 0.0611793066
Br  Br114  1  0.19550000  0.39770000  0.63070000  1.0 0.0611793066
Br  Br115  1  0.80450000  0.89770000  0.86930000  1.0 0.0611793066
Br  Br116  1  0.30450000  0.60230000  0.13070000  1.0 0.0611793066
Br  Br117  1  0.36930000  0.69550000  0.10230000  1.0 0.0611793066
Br  Br118  1  0.63070000  0.19550000  0.39770000  1.0 0.0611793066
Br  Br119  1  0.86930000  0.80450000  0.89770000  1.0 0.0611793066
Br  Br120  1  0.13070000  0.30450000  0.60230000  1.0 0.0611793066
Br  Br121  1  0.92190000  0.75820000  0.23520000  1.0 0.0202531059
Br  Br122  1  0.57810000  0.24180000  0.73520000  1.0 0.0202531059
Br  Br123  1  0.07810000  0.25820000  0.26480000  1.0 0.0202531059
Br  Br124  1  0.42190000  0.74180000  0.76480000  1.0 0.0202531059
Br  Br125  1  0.23520000  0.92190000  0.75820000  1.0 0.0202531059
Br  Br126  1  0.73520000  0.57810000  0.24180000  1.0 0.0202531059
Br  Br127  1  0.26480000  0.07810000  0.25820000  1.0 0.0202531059
Br  Br128  1  0.76480000  0.42190000  0.74180000  1.0 0.0202531059
Br  Br129  1  0.75820000  0.23520000  0.92190000  1.0 0.0202531059
Br  Br130  1  0.24180000  0.73520000  0.57810000  1.0 0.0202531059
Br  Br131  1  0.25820000  0.26480000  0.07810000  1.0 0.0202531059
Br  Br132  1  0.74180000  0.76480000  0.42190000  1.0 0.0202531059
Br  Br133  1  0.07810000  0.24180000  0.76480000  1.0 0.0202531059
Br  Br134  1  0.42190000  0.75820000  0.26480000  1.0 0.0202531059
Br  Br135  1  0.92190000  0.74180000  0.73520000  1.0 0.0202531059
Br  Br136  1  0.57810000  0.25820000  0.23520000  1.0 0.0202531059
Br  Br137  1  0.76480000  0.07810000  0.24180000  1.0 0.0202531059
Br  Br138  1  0.26480000  0.42190000  0.75820000  1.0 0.0202531059
Br  Br139  1  0.73520000  0.92190000  0.74180000  1.0 0.0202531059
Br  Br140  1  0.23520000  0.57810000  0.25820000  1.0 0.0202531059
Br  Br141  1  0.24180000  0.76480000  0.07810000  1.0 0.0202531059
Br  Br142  1  0.75820000  0.26480000  0.42190000  1.0 0.0202531059
Br  Br143  1  0.74180000  0.73520000  0.92190000  1.0 0.0202531059
Br  Br144  1  0.25820000  0.23520000  0.57810000  1.0 0.0202531059
Br  Br145  1  0.16970000  0.74820000  0.25830000  1.0 -0.0767883532
Br  Br146  1  0.33030000  0.25180000  0.75830000  1.0 -0.0767883532
Br  Br147  1  0.83030000  0.24820000  0.24170000  1.0 -0.0767883532
Br  Br148  1  0.66970000  0.75180000  0.74170000  1.0 -0.0767883532
Br  Br149  1  0.25830000  0.16970000  0.74820000  1.0 -0.0767883532
Br  Br150  1  0.75830000  0.33030000  0.25180000  1.0 -0.0767883532
Br  Br151  1  0.24170000  0.83030000  0.24820000  1.0 -0.0767883532
Br  Br152  1  0.74170000  0.66970000  0.75180000  1.0 -0.0767883532
Br  Br153  1  0.74820000  0.25830000  0.16970000  1.0 -0.0767883532
Br  Br154  1  0.25180000  0.75830000  0.33030000  1.0 -0.0767883532
Br  Br155  1  0.24820000  0.24170000  0.83030000  1.0 -0.0767883532
Br  Br156  1  0.75180000  0.74170000  0.66970000  1.0 -0.0767883532
Br  Br157  1  0.83030000  0.25180000  0.74170000  1.0 -0.0767883532
Br  Br158  1  0.66970000  0.74820000  0.24170000  1.0 -0.0767883532
Br  Br159  1  0.16970000  0.75180000  0.75830000  1.0 -0.0767883532
Br  Br160  1  0.33030000  0.24820000  0.25830000  1.0 -0.0767883532
Br  Br161  1  0.74170000  0.83030000  0.25180000  1.0 -0.0767883532
Br  Br162  1  0.24170000  0.66970000  0.74820000  1.0 -0.0767883532
Br  Br163  1  0.75830000  0.16970000  0.75180000  1.0 -0.0767883532
Br  Br164  1  0.25830000  0.33030000  0.24820000  1.0 -0.0767883532
Br  Br165  1  0.25180000  0.74170000  0.83030000  1.0 -0.0767883532
Br  Br166  1  0.74820000  0.24170000  0.66970000  1.0 -0.0767883532
Br  Br167  1  0.75180000  0.75830000  0.16970000  1.0 -0.0767883532
Br  Br168  1  0.24820000  0.25830000  0.33030000  1.0 -0.0767883532
Br  Br169  1  0.15740000  0.64000000  0.35690000  1.0 0.0415743677
Br  Br170  1  0.34260000  0.36000000  0.85690000  1.0 0.0415743677
Br  Br171  1  0.84260000  0.14000000  0.14310000  1.0 0.0415743677
Br  Br172  1  0.65740000  0.86000000  0.64310000  1.0 0.0415743677
Br  Br173  1  0.35690000  0.15740000  0.64000000  1.0 0.0415743677
Br  Br174  1  0.85690000  0.34260000  0.36000000  1.0 0.0415743677
Br  Br175  1  0.14310000  0.84260000  0.14000000  1.0 0.0415743677
Br  Br176  1  0.64310000  0.65740000  0.86000000  1.0 0.0415743677
Br  Br177  1  0.64000000  0.35690000  0.15740000  1.0 0.0415743677
Br  Br178  1  0.36000000  0.85690000  0.34260000  1.0 0.0415743677
Br  Br179  1  0.14000000  0.14310000  0.84260000  1.0 0.0415743677
Br  Br180  1  0.86000000  0.64310000  0.65740000  1.0 0.0415743677
Br  Br181  1  0.84260000  0.36000000  0.64310000  1.0 0.0415743677
Br  Br182  1  0.65740000  0.64000000  0.14310000  1.0 0.0415743677
Br  Br183  1  0.15740000  0.86000000  0.85690000  1.0 0.0415743677
Br  Br184  1  0.34260000  0.14000000  0.35690000  1.0 0.0415743677
Br  Br185  1  0.64310000  0.84260000  0.36000000  1.0 0.0415743677
Br  Br186  1  0.14310000  0.65740000  0.64000000  1.0 0.0415743677
Br  Br187  1  0.85690000  0.15740000  0.86000000  1.0 0.0415743677
Br  Br188  1  0.35690000  0.34260000  0.14000000  1.0 0.0415743677
Br  Br189  1  0.36000000  0.64310000  0.84260000  1.0 0.0415743677
Br  Br190  1  0.64000000  0.14310000  0.65740000  1.0 0.0415743677
Br  Br191  1  0.86000000  0.85690000  0.15740000  1.0 0.0415743677
Br  Br192  1  0.14000000  0.35690000  0.34260000  1.0 0.0415743677
N  N1  1  0.06960000  0.65090000  0.28130000  1.0 -0.0583083535
N  N2  1  0.43040000  0.34910000  0.78130000  1.0 -0.0583083535
N  N3  1  0.93040000  0.15090000  0.21870000  1.0 -0.0583083535
N  N4  1  0.56960000  0.84910000  0.71870000  1.0 -0.0583083535
N  N5  1  0.28130000  0.06960000  0.65090000  1.0 -0.0583083535
N  N6  1  0.78130000  0.43040000  0.34910000  1.0 -0.0583083535
N  N7  1  0.21870000  0.93040000  0.15090000  1.0 -0.0583083535
N  N8  1  0.71870000  0.56960000  0.84910000  1.0 -0.0583083535
N  N9  1  0.65090000  0.28130000  0.06960000  1.0 -0.0583083535
N  N10  1  0.34910000  0.78130000  0.43040000  1.0 -0.0583083535
N  N11  1  0.15090000  0.21870000  0.93040000  1.0 -0.0583083535
N  N12  1  0.84910000  0.71870000  0.56960000  1.0 -0.0583083535
N  N13  1  0.93040000  0.34910000  0.71870000  1.0 -0.0583083535
N  N14  1  0.56960000  0.65090000  0.21870000  1.0 -0.0583083535
N  N15  1  0.06960000  0.84910000  0.78130000  1.0 -0.0583083535
N  N16  1  0.43040000  0.15090000  0.28130000  1.0 -0.0583083535
N  N17  1  0.71870000  0.93040000  0.34910000  1.0 -0.0583083535
N  N18  1  0.21870000  0.56960000  0.65090000  1.0 -0.0583083535
N  N19  1  0.78130000  0.06960000  0.84910000  1.0 -0.0583083535
N  N20  1  0.28130000  0.43040000  0.15090000  1.0 -0.0583083535
N  N21  1  0.34910000  0.71870000  0.93040000  1.0 -0.0583083535
N  N22  1  0.65090000  0.21870000  0.56960000  1.0 -0.0583083535
N  N23  1  0.84910000  0.78130000  0.06960000  1.0 -0.0583083535
N  N24  1  0.15090000  0.28130000  0.43040000  1.0 -0.0583083535
N  N25  1  0.06150000  0.70400000  0.33600000  1.0 -0.0920191334
N  N26  1  0.43850000  0.29600000  0.83600000  1.0 -0.0920191334
N  N27  1  0.93850000  0.20400000  0.16400000  1.0 -0.0920191334
N  N28  1  0.56150000  0.79600000  0.66400000  1.0 -0.0920191334
N  N29  1  0.33600000  0.06150000  0.70400000  1.0 -0.0920191334
N  N30  1  0.83600000  0.43850000  0.29600000  1.0 -0.0920191334
N  N31  1  0.16400000  0.93850000  0.20400000  1.0 -0.0920191334
N  N32  1  0.66400000  0.56150000  0.79600000  1.0 -0.0920191334
N  N33  1  0.70400000  0.33600000  0.06150000  1.0 -0.0920191334
N  N34  1  0.29600000  0.83600000  0.43850000  1.0 -0.0920191334
N  N35  1  0.20400000  0.16400000  0.93850000  1.0 -0.0920191334
N  N36  1  0.79600000  0.66400000  0.56150000  1.0 -0.0920191334
N  N37  1  0.93850000  0.29600000  0.66400000  1.0 -0.0920191334
N  N38  1  0.56150000  0.70400000  0.16400000  1.0 -0.0920191334
N  N39  1  0.06150000  0.79600000  0.83600000  1.0 -0.0920191334
N  N40  1  0.43850000  0.20400000  0.33600000  1.0 -0.0920191334
N  N41  1  0.66400000  0.93850000  0.29600000  1.0 -0.0920191334
N  N42  1  0.16400000  0.56150000  0.70400000  1.0 -0.0920191334
N  N43  1  0.83600000  0.06150000  0.79600000  1.0 -0.0920191334
N  N44  1  0.33600000  0.43850000  0.20400000  1.0 -0.0920191334
N  N45  1  0.29600000  0.66400000  0.93850000  1.0 -0.0920191334
N  N46  1  0.70400000  0.16400000  0.56150000  1.0 -0.0920191334
N  N47  1  0.79600000  0.83600000  0.06150000  1.0 -0.0920191334
N  N48  1  0.20400000  0.33600000  0.43850000  1.0 -0.0920191334
N  N49  1  0.99410000  0.71260000  0.31390000  1.0 -0.3746996593
N  N50  1  0.50590000  0.28740000  0.81390000  1.0 -0.3746996593
N  N51  1  0.00590000  0.21260000  0.18610000  1.0 -0.3746996593
N  N52  1  0.49410000  0.78740000  0.68610000  1.0 -0.3746996593
N  N53  1  0.31390000  0.99410000  0.71260000  1.0 -0.3746996593
N  N54  1  0.81390000  0.50590000  0.28740000  1.0 -0.3746996593
N  N55  1  0.18610000  0.00590000  0.21260000  1.0 -0.3755012992
N  N56  1  0.68610000  0.49410000  0.78740000  1.0 -0.3746996593
N  N57  1  0.71260000  0.31390000  0.99410000  1.0 -0.3755012992
N  N58  1  0.28740000  0.81390000  0.50590000  1.0 -0.3746996593
N  N59  1  0.21260000  0.18610000  0.00590000  1.0 -0.3746996593
N  N60  1  0.78740000  0.68610000  0.49410000  1.0 -0.3746996593
N  N61  1  0.00590000  0.28740000  0.68610000  1.0 -0.3746996593
N  N62  1  0.49410000  0.71260000  0.18610000  1.0 -0.3746996593
N  N63  1  0.99410000  0.78740000  0.81390000  1.0 -0.3746996593
N  N64  1  0.50590000  0.21260000  0.31390000  1.0 -0.3746996593
N  N65  1  0.68610000  0.00590000  0.28740000  1.0 -0.3746996593
N  N66  1  0.18610000  0.49410000  0.71260000  1.0 -0.3746996593
N  N67  1  0.81390000  0.99410000  0.78740000  1.0 -0.3746996593
N  N68  1  0.31390000  0.50590000  0.21260000  1.0 -0.3746996593
N  N69  1  0.28740000  0.68610000  0.00590000  1.0 -0.3746996593
N  N70  1  0.71260000  0.18610000  0.49410000  1.0 -0.3746996593
N  N71  1  0.78740000  0.81390000  0.99410000  1.0 -0.3755012992
N  N72  1  0.21260000  0.31390000  0.50590000  1.0 -0.3746996593
N  N73  1  0.00130000  0.66440000  0.26260000  1.0 -0.3991585913
N  N74  1  0.49870000  0.33560000  0.76260000  1.0 -0.3991585913
N  N75  1  0.99870000  0.16440000  0.23740000  1.0 -0.3991585913
N  N76  1  0.50130000  0.83560000  0.73740000  1.0 -0.3991585913
N  N77  1  0.26260000  0.00130000  0.66440000  1.0 -0.3991585913
N  N78  1  0.76260000  0.49870000  0.33560000  1.0 -0.3991585913
N  N79  1  0.23740000  0.99870000  0.16440000  1.0 -0.3991585913
N  N80  1  0.73740000  0.50130000  0.83560000  1.0 -0.3991585913
N  N81  1  0.66440000  0.26260000  0.00130000  1.0 -0.3991585913
N  N82  1  0.33560000  0.76260000  0.49870000  1.0 -0.3991585913
N  N83  1  0.16440000  0.23740000  0.99870000  1.0 -0.3991585913
N  N84  1  0.83560000  0.73740000  0.50130000  1.0 -0.3991585913
N  N85  1  0.99870000  0.33560000  0.73740000  1.0 -0.3991585913
N  N86  1  0.50130000  0.66440000  0.23740000  1.0 -0.3991585913
N  N87  1  0.00130000  0.83560000  0.76260000  1.0 -0.3991585913
N  N88  1  0.49870000  0.16440000  0.26260000  1.0 -0.3991585913
N  N89  1  0.73740000  0.99870000  0.33560000  1.0 -0.3991585913
N  N90  1  0.23740000  0.50130000  0.66440000  1.0 -0.3991585913
N  N91  1  0.76260000  0.00130000  0.83560000  1.0 -0.3991585913
N  N92  1  0.26260000  0.49870000  0.16440000  1.0 -0.3991585913
N  N93  1  0.33560000  0.73740000  0.99870000  1.0 -0.3991585913
N  N94  1  0.66440000  0.23740000  0.50130000  1.0 -0.3991585913
N  N95  1  0.83560000  0.76260000  0.00130000  1.0 -0.3991585913
N  N96  1  0.16440000  0.26260000  0.49870000  1.0 -0.3991585913
N  N97  1  0.07100000  0.71380000  0.32110000  1.0 -0.0677902526
N  N98  1  0.42900000  0.28620000  0.82110000  1.0 -0.0677902526
N  N99  1  0.92900000  0.21380000  0.17890000  1.0 -0.0677902526
N  N100  1  0.57100000  0.78620000  0.67890000  1.0 -0.0677902526
N  N101  1  0.32110000  0.07100000  0.71380000  1.0 -0.0677902526
N  N102  1  0.82110000  0.42900000  0.28620000  1.0 -0.0677902526
N  N103  1  0.17890000  0.92900000  0.21380000  1.0 -0.0677902526
N  N104  1  0.67890000  0.57100000  0.78620000  1.0 -0.0677902526
N  N105  1  0.71380000  0.32110000  0.07100000  1.0 -0.0677902526
N  N106  1  0.28620000  0.82110000  0.42900000  1.0 -0.0677902526
N  N107  1  0.21380000  0.17890000  0.92900000  1.0 -0.0677902526
N  N108  1  0.78620000  0.67890000  0.57100000  1.0 -0.0677902526
N  N109  1  0.92900000  0.28620000  0.67890000  1.0 -0.0677902526
N  N110  1  0.57100000  0.71380000  0.17890000  1.0 -0.0677902526
N  N111  1  0.07100000  0.78620000  0.82110000  1.0 -0.0677902526
N  N112  1  0.42900000  0.21380000  0.32110000  1.0 -0.0677902526
N  N113  1  0.67890000  0.92900000  0.28620000  1.0 -0.0677902526
N  N114  1  0.17890000  0.57100000  0.71380000  1.0 -0.0677902526
N  N115  1  0.82110000  0.07100000  0.78620000  1.0 -0.0677902526
N  N116  1  0.32110000  0.42900000  0.21380000  1.0 -0.0677902526
N  N117  1  0.28620000  0.67890000  0.92900000  1.0 -0.0677902526
N  N118  1  0.71380000  0.17890000  0.57100000  1.0 -0.0677902526
N  N119  1  0.78620000  0.82110000  0.07100000  1.0 -0.0677902526
N  N120  1  0.21380000  0.32110000  0.42900000  1.0 -0.0677902526
N  N121  1  0.07720000  0.66580000  0.27330000  1.0 -0.0370283658
N  N122  1  0.42280000  0.33420000  0.77330000  1.0 -0.0370283658
N  N123  1  0.92280000  0.16580000  0.22670000  1.0 -0.0370283658
N  N124  1  0.57720000  0.83420000  0.72670000  1.0 -0.0370283658
N  N125  1  0.27330000  0.07720000  0.66580000  1.0 -0.0370283658
N  N126  1  0.77330000  0.42280000  0.33420000  1.0 -0.0370283658
N  N127  1  0.22670000  0.92280000  0.16580000  1.0 -0.0370283658
N  N128  1  0.72670000  0.57720000  0.83420000  1.0 -0.0370283658
N  N129  1  0.66580000  0.27330000  0.07720000  1.0 -0.0370283658
N  N130  1  0.33420000  0.77330000  0.42280000  1.0 -0.0370283658
N  N131  1  0.16580000  0.22670000  0.92280000  1.0 -0.0370283658
N  N132  1  0.83420000  0.72670000  0.57720000  1.0 -0.0370283658
N  N133  1  0.92280000  0.33420000  0.72670000  1.0 -0.0370283658
N  N134  1  0.57720000  0.66580000  0.22670000  1.0 -0.0370283658
N  N135  1  0.07720000  0.83420000  0.77330000  1.0 -0.0370283658
N  N136  1  0.42280000  0.16580000  0.27330000  1.0 -0.0370283658
N  N137  1  0.72670000  0.92280000  0.33420000  1.0 -0.0370283658
N  N138  1  0.22670000  0.57720000  0.66580000  1.0 -0.0370283658
N  N139  1  0.77330000  0.07720000  0.83420000  1.0 -0.0370283658
N  N140  1  0.27330000  0.42280000  0.16580000  1.0 -0.0370283658
N  N141  1  0.33420000  0.72670000  0.92280000  1.0 -0.0370283658
N  N142  1  0.66580000  0.22670000  0.57720000  1.0 -0.0370283658
N  N143  1  0.83420000  0.77330000  0.07720000  1.0 -0.0370283658
N  N144  1  0.16580000  0.27330000  0.42280000  1.0 -0.0370283658
O  O1  1  0.04770000  0.78860000  0.47882000  1.0 -0.554060081
O  O2  1  0.45230000  0.21140000  0.97882000  1.0 -0.554060081
O  O3  1  0.95230000  0.28860000  0.02118000  1.0 -0.554060081
O  O4  1  0.54770000  0.71140000  0.52118000  1.0 -0.554060081
O  O5  1  0.47882000  0.04770000  0.78860000  1.0 -0.554060081
O  O6  1  0.97882000  0.45230000  0.21140000  1.0 -0.554060081
O  O7  1  0.02118000  0.95230000  0.28860000  1.0 -0.554060081
O  O8  1  0.52118000  0.54770000  0.71140000  1.0 -0.554060081
O  O9  1  0.78860000  0.47882000  0.04770000  1.0 -0.554060081
O  O10  1  0.21140000  0.97882000  0.45230000  1.0 -0.554060081
O  O11  1  0.28860000  0.02118000  0.95230000  1.0 -0.554060081
O  O12  1  0.71140000  0.52118000  0.54770000  1.0 -0.554060081
O  O13  1  0.95230000  0.21140000  0.52118000  1.0 -0.554060081
O  O14  1  0.54770000  0.78860000  0.02118000  1.0 -0.554060081
O  O15  1  0.04770000  0.71140000  0.97882000  1.0 -0.554060081
O  O16  1  0.45230000  0.28860000  0.47882000  1.0 -0.554060081
O  O17  1  0.52118000  0.95230000  0.21140000  1.0 -0.554060081
O  O18  1  0.02118000  0.54770000  0.78860000  1.0 -0.554060081
O  O19  1  0.97882000  0.04770000  0.71140000  1.0 -0.554060081
O  O20  1  0.47882000  0.45230000  0.28860000  1.0 -0.554060081
O  O21  1  0.21140000  0.52118000  0.95230000  1.0 -0.554060081
O  O22  1  0.78860000  0.02118000  0.54770000  1.0 -0.554060081
O  O23  1  0.71140000  0.97882000  0.04770000  1.0 -0.554060081
O  O24  1  0.28860000  0.47882000  0.45230000  1.0 -0.554060081
O  O25  1  0.03828000  0.84546000  0.47867000  1.0 -0.4974753036
O  O26  1  0.46172000  0.15454000  0.97867000  1.0 -0.4974753036
O  O27  1  0.96172000  0.34546000  0.02133000  1.0 -0.4974753036
O  O28  1  0.53828000  0.65454000  0.52133000  1.0 -0.4974753036
O  O29  1  0.47867000  0.03828000  0.84546000  1.0 -0.4974753036
O  O30  1  0.97867000  0.46172000  0.15454000  1.0 -0.4974753036
O  O31  1  0.02133000  0.96172000  0.34546000  1.0 -0.4974753036
O  O32  1  0.52133000  0.53828000  0.65454000  1.0 -0.4974753036
O  O33  1  0.84546000  0.47867000  0.03828000  1.0 -0.4974753036
O  O34  1  0.15454000  0.97867000  0.46172000  1.0 -0.4974753036
O  O35  1  0.34546000  0.02133000  0.96172000  1.0 -0.4974753036
O  O36  1  0.65454000  0.52133000  0.53828000  1.0 -0.4974753036
O  O37  1  0.96172000  0.15454000  0.52133000  1.0 -0.4974753036
O  O38  1  0.53828000  0.84546000  0.02133000  1.0 -0.4974753036
O  O39  1  0.03828000  0.65454000  0.97867000  1.0 -0.4974753036
O  O40  1  0.46172000  0.34546000  0.47867000  1.0 -0.4974753036
O  O41  1  0.52133000  0.96172000  0.15454000  1.0 -0.4974753036
O  O42  1  0.02133000  0.53828000  0.84546000  1.0 -0.4974753036
O  O43  1  0.97867000  0.03828000  0.65454000  1.0 -0.4974753036
O  O44  1  0.47867000  0.46172000  0.34546000  1.0 -0.4974753036
O  O45  1  0.15454000  0.52133000  0.96172000  1.0 -0.4974753036
O  O46  1  0.84546000  0.02133000  0.53828000  1.0 -0.4974753036
O  O47  1  0.65454000  0.97867000  0.03828000  1.0 -0.4974753036
O  O48  1  0.34546000  0.47867000  0.46172000  1.0 -0.4974753036
O  O49  1  0.98928000  0.90140000  0.37805000  1.0 -0.5421330872
O  O50  1  0.51072000  0.09860000  0.87805000  1.0 -0.5421330872
O  O51  1  0.01072000  0.40140000  0.12195000  1.0 -0.5421330872
O  O52  1  0.48928000  0.59860000  0.62195000  1.0 -0.5421330872
O  O53  1  0.37805000  0.98928000  0.90140000  1.0 -0.5421330872
O  O54  1  0.87805000  0.51072000  0.09860000  1.0 -0.5421330872
O  O55  1  0.12195000  0.01072000  0.40140000  1.0 -0.5421330872
O  O56  1  0.62195000  0.48928000  0.59860000  1.0 -0.5421330872
O  O57  1  0.90140000  0.37805000  0.98928000  1.0 -0.5421330872
O  O58  1  0.09860000  0.87805000  0.51072000  1.0 -0.5421330872
O  O59  1  0.40140000  0.12195000  0.01072000  1.0 -0.5421330872
O  O60  1  0.59860000  0.62195000  0.48928000  1.0 -0.5421330872
O  O61  1  0.01072000  0.09860000  0.62195000  1.0 -0.5421330872
O  O62  1  0.48928000  0.90140000  0.12195000  1.0 -0.5421330872
O  O63  1  0.98928000  0.59860000  0.87805000  1.0 -0.5421330872
O  O64  1  0.51072000  0.40140000  0.37805000  1.0 -0.5421330872
O  O65  1  0.62195000  0.01072000  0.09860000  1.0 -0.5421330872
O  O66  1  0.12195000  0.48928000  0.90140000  1.0 -0.5421330872
O  O67  1  0.87805000  0.98928000  0.59860000  1.0 -0.5421330872
O  O68  1  0.37805000  0.51072000  0.40140000  1.0 -0.5421330872
O  O69  1  0.09860000  0.62195000  0.01072000  1.0 -0.5421330872
O  O70  1  0.90140000  0.12195000  0.48928000  1.0 -0.5421330872
O  O71  1  0.59860000  0.87805000  0.98928000  1.0 -0.5421330872
O  O72  1  0.40140000  0.37805000  0.51072000  1.0 -0.5421330872
O  O73  1  0.98780000  0.87360000  0.32830000  1.0 -0.4941578339
O  O74  1  0.51220000  0.12640000  0.82830000  1.0 -0.4941578339
O  O75  1  0.01220000  0.37360000  0.17170000  1.0 -0.4941578339
O  O76  1  0.48780000  0.62640000  0.67170000  1.0 -0.4941578339
O  O77  1  0.32830000  0.98780000  0.87360000  1.0 -0.4941578339
O  O78  1  0.82830000  0.51220000  0.12640000  1.0 -0.4941578339
O  O79  1  0.17170000  0.01220000  0.37360000  1.0 -0.4941578339
O  O80  1  0.67170000  0.48780000  0.62640000  1.0 -0.4941578339
O  O81  1  0.87360000  0.32830000  0.98780000  1.0 -0.4941578339
O  O82  1  0.12640000  0.82830000  0.51220000  1.0 -0.4941578339
O  O83  1  0.37360000  0.17170000  0.01220000  1.0 -0.4941578339
O  O84  1  0.62640000  0.67170000  0.48780000  1.0 -0.4941578339
O  O85  1  0.01220000  0.12640000  0.67170000  1.0 -0.4941578339
O  O86  1  0.48780000  0.87360000  0.17170000  1.0 -0.4941578339
O  O87  1  0.98780000  0.62640000  0.82830000  1.0 -0.4941578339
O  O88  1  0.51220000  0.37360000  0.32830000  1.0 -0.4941578339
O  O89  1  0.67170000  0.01220000  0.12640000  1.0 -0.4941578339
O  O90  1  0.17170000  0.48780000  0.87360000  1.0 -0.4941578339
O  O91  1  0.82830000  0.98780000  0.62640000  1.0 -0.4941578339
O  O92  1  0.32830000  0.51220000  0.37360000  1.0 -0.4941578339
O  O93  1  0.12640000  0.67170000  0.01220000  1.0 -0.4941578339
O  O94  1  0.87360000  0.17170000  0.48780000  1.0 -0.4941578339
O  O95  1  0.62640000  0.82830000  0.98780000  1.0 -0.4941578339
O  O96  1  0.37360000  0.32830000  0.51220000  1.0 -0.4941578339
O  O97  1  0.07360000  0.65760000  0.10389000  1.0 -0.4431953896
O  O98  1  0.42640000  0.34240000  0.60389000  1.0 -0.4431953896
O  O99  1  0.92640000  0.15760000  0.39611000  1.0 -0.4431953896
O  O100  1  0.57360000  0.84240000  0.89611000  1.0 -0.4431953896
O  O101  1  0.10389000  0.07360000  0.65760000  1.0 -0.4431953896
O  O102  1  0.60389000  0.42640000  0.34240000  1.0 -0.4431953896
O  O103  1  0.39611000  0.92640000  0.15760000  1.0 -0.4431953896
O  O104  1  0.89611000  0.57360000  0.84240000  1.0 -0.4431953896
O  O105  1  0.65760000  0.10389000  0.07360000  1.0 -0.4431953896
O  O106  1  0.34240000  0.60389000  0.42640000  1.0 -0.4431953896
O  O107  1  0.15760000  0.39611000  0.92640000  1.0 -0.4431953896
O  O108  1  0.84240000  0.89611000  0.57360000  1.0 -0.4431953896
O  O109  1  0.92640000  0.34240000  0.89611000  1.0 -0.4431953896
O  O110  1  0.57360000  0.65760000  0.39611000  1.0 -0.4431953896
O  O111  1  0.07360000  0.84240000  0.60389000  1.0 -0.4431953896
O  O112  1  0.42640000  0.15760000  0.10389000  1.0 -0.4431953896
O  O113  1  0.89611000  0.92640000  0.34240000  1.0 -0.4431953896
O  O114  1  0.39611000  0.57360000  0.65760000  1.0 -0.4431953896
O  O115  1  0.60389000  0.07360000  0.84240000  1.0 -0.4431953896
O  O116  1  0.10389000  0.42640000  0.15760000  1.0 -0.4431953896
O  O117  1  0.34240000  0.89611000  0.92640000  1.0 -0.4431953896
O  O118  1  0.65760000  0.39611000  0.57360000  1.0 -0.4431953896
O  O119  1  0.84240000  0.60389000  0.07360000  1.0 -0.4431953896
O  O120  1  0.15760000  0.10389000  0.42640000  1.0 -0.4431953896
O  O121  1  0.05811000  0.61122000  0.07419000  1.0 -0.4799477551
O  O122  1  0.44189000  0.38878000  0.57419000  1.0 -0.4799477551
O  O123  1  0.94189000  0.11122000  0.42581000  1.0 -0.4799477551
O  O124  1  0.55811000  0.88878000  0.92581000  1.0 -0.4799477551
O  O125  1  0.07419000  0.05811000  0.61122000  1.0 -0.4799477551
O  O126  1  0.57419000  0.44189000  0.38878000  1.0 -0.4799477551
O  O127  1  0.42581000  0.94189000  0.11122000  1.0 -0.4799477551
O  O128  1  0.92581000  0.55811000  0.88878000  1.0 -0.4799477551
O  O129  1  0.61122000  0.07419000  0.05811000  1.0 -0.4799477551
O  O130  1  0.38878000  0.57419000  0.44189000  1.0 -0.4799477551
O  O131  1  0.11122000  0.42581000  0.94189000  1.0 -0.4799477551
O  O132  1  0.88878000  0.92581000  0.55811000  1.0 -0.4799477551
O  O133  1  0.94189000  0.38878000  0.92581000  1.0 -0.4799477551
O  O134  1  0.55811000  0.61122000  0.42581000  1.0 -0.4799477551
O  O135  1  0.05811000  0.88878000  0.57419000  1.0 -0.4799477551
O  O136  1  0.44189000  0.11122000  0.07419000  1.0 -0.4799477551
O  O137  1  0.92581000  0.94189000  0.38878000  1.0 -0.4799477551
O  O138  1  0.42581000  0.55811000  0.61122000  1.0 -0.4799477551
O  O139  1  0.57419000  0.05811000  0.88878000  1.0 -0.4799477551
O  O140  1  0.07419000  0.44189000  0.11122000  1.0 -0.4799477551
O  O141  1  0.38878000  0.92581000  0.94189000  1.0 -0.4799477551
O  O142  1  0.61122000  0.42581000  0.55811000  1.0 -0.4799477551
O  O143  1  0.88878000  0.57419000  0.05811000  1.0 -0.4799477551
O  O144  1  0.11122000  0.07419000  0.44189000  1.0 -0.4799477551
O  O145  1  0.04121000  0.50123000  0.14133000  1.0 -0.5228854908
O  O146  1  0.45879000  0.49877000  0.64133000  1.0 -0.5228854908
O  O147  1  0.95879000  0.00123000  0.35867000  1.0 -0.5228854908
O  O148  1  0.54121000  0.99877000  0.85867000  1.0 -0.5228854908
O  O149  1  0.14133000  0.04121000  0.50123000  1.0 -0.5228854908
O  O150  1  0.64133000  0.45879000  0.49877000  1.0 -0.5228854908
O  O151  1  0.35867000  0.95879000  0.00123000  1.0 -0.5228854908
O  O152  1  0.85867000  0.54121000  0.99877000  1.0 -0.5228854908
O  O153  1  0.50123000  0.14133000  0.04121000  1.0 -0.5228854908
O  O154  1  0.49877000  0.64133000  0.45879000  1.0 -0.5228854908
O  O155  1  0.00123000  0.35867000  0.95879000  1.0 -0.5228854908
O  O156  1  0.99877000  0.85867000  0.54121000  1.0 -0.5228854908
O  O157  1  0.95879000  0.49877000  0.85867000  1.0 -0.5228854908
O  O158  1  0.54121000  0.50123000  0.35867000  1.0 -0.5228854908
O  O159  1  0.04121000  0.99877000  0.64133000  1.0 -0.5228854908
O  O160  1  0.45879000  0.00123000  0.14133000  1.0 -0.5228854908
O  O161  1  0.85867000  0.95879000  0.49877000  1.0 -0.5228854908
O  O162  1  0.35867000  0.54121000  0.50123000  1.0 -0.5228854908
O  O163  1  0.64133000  0.04121000  0.99877000  1.0 -0.5228854908
O  O164  1  0.14133000  0.45879000  0.00123000  1.0 -0.5228854908
O  O165  1  0.49877000  0.85867000  0.95879000  1.0 -0.5228854908
O  O166  1  0.50123000  0.35867000  0.54121000  1.0 -0.5228854908
O  O167  1  0.99877000  0.64133000  0.04121000  1.0 -0.5228854908
O  O168  1  0.00123000  0.14133000  0.45879000  1.0 -0.5228854908
O  O169  1  0.03950000  0.50577000  0.19786000  1.0 -0.4974753036
O  O170  1  0.46050000  0.49423000  0.69786000  1.0 -0.4974753036
O  O171  1  0.96050000  0.00577000  0.30214000  1.0 -0.4974753036
O  O172  1  0.53950000  0.99423000  0.80214000  1.0 -0.4974753036
O  O173  1  0.19786000  0.03950000  0.50577000  1.0 -0.4974753036
O  O174  1  0.69786000  0.46050000  0.49423000  1.0 -0.4974753036
O  O175  1  0.30214000  0.96050000  0.00577000  1.0 -0.4974753036
O  O176  1  0.80214000  0.53950000  0.99423000  1.0 -0.4974753036
O  O177  1  0.50577000  0.19786000  0.03950000  1.0 -0.4974753036
O  O178  1  0.49423000  0.69786000  0.46050000  1.0 -0.4974753036
O  O179  1  0.00577000  0.30214000  0.96050000  1.0 -0.4974753036
O  O180  1  0.99423000  0.80214000  0.53950000  1.0 -0.4974753036
O  O181  1  0.96050000  0.49423000  0.80214000  1.0 -0.4974753036
O  O182  1  0.53950000  0.50577000  0.30214000  1.0 -0.4974753036
O  O183  1  0.03950000  0.99423000  0.69786000  1.0 -0.4974753036
O  O184  1  0.46050000  0.00577000  0.19786000  1.0 -0.4974753036
O  O185  1  0.80214000  0.96050000  0.49423000  1.0 -0.4974753036
O  O186  1  0.30214000  0.53950000  0.50577000  1.0 -0.4974753036
O  O187  1  0.69786000  0.03950000  0.99423000  1.0 -0.4974753036
O  O188  1  0.19786000  0.46050000  0.00577000  1.0 -0.4974753036
O  O189  1  0.49423000  0.80214000  0.96050000  1.0 -0.4974753036
O  O190  1  0.50577000  0.30214000  0.53950000  1.0 -0.4974753036
O  O191  1  0.99423000  0.69786000  0.03950000  1.0 -0.4974753036
O  O192  1  0.00577000  0.19786000  0.46050000  1.0 -0.4974753036
O  O193  1  0.06652000  0.68320000  0.04384000  1.0 -0.8008745207
O  O194  1  0.43348000  0.31680000  0.54384000  1.0 -0.8008745207
O  O195  1  0.93348000  0.18320000  0.45616000  1.0 -0.8008745207
O  O196  1  0.56652000  0.81680000  0.95616000  1.0 -0.8008745207
O  O197  1  0.04384000  0.06652000  0.68320000  1.0 -0.8008745207
O  O198  1  0.54384000  0.43348000  0.31680000  1.0 -0.8008745207
O  O199  1  0.45616000  0.93348000  0.18320000  1.0 -0.8008745207
O  O200  1  0.95616000  0.56652000  0.81680000  1.0 -0.8008745207
O  O201  1  0.68320000  0.04384000  0.06652000  1.0 -0.8008745207
O  O202  1  0.31680000  0.54384000  0.43348000  1.0 -0.8008745207
O  O203  1  0.18320000  0.45616000  0.93348000  1.0 -0.8008745207
O  O204  1  0.81680000  0.95616000  0.56652000  1.0 -0.8008745207
O  O205  1  0.93348000  0.31680000  0.95616000  1.0 -0.8008745207
O  O206  1  0.56652000  0.68320000  0.45616000  1.0 -0.8008745207
O  O207  1  0.06652000  0.81680000  0.54384000  1.0 -0.8008745207
O  O208  1  0.43348000  0.18320000  0.04384000  1.0 -0.8008745207
O  O209  1  0.95616000  0.93348000  0.31680000  1.0 -0.8008745207
O  O210  1  0.45616000  0.56652000  0.68320000  1.0 -0.8008745207
O  O211  1  0.54384000  0.06652000  0.81680000  1.0 -0.8008745207
O  O212  1  0.04384000  0.43348000  0.18320000  1.0 -0.8008745207
O  O213  1  0.31680000  0.95616000  0.93348000  1.0 -0.8008745207
O  O214  1  0.68320000  0.45616000  0.56652000  1.0 -0.8008745207
O  O215  1  0.81680000  0.54384000  0.06652000  1.0 -0.8008745207
O  O216  1  0.18320000  0.04384000  0.43348000  1.0 -0.8008745207
O  O217  1  0.08470000  0.74230000  0.52520000  1.0 -0.0329171863
O  O218  1  0.41530000  0.25770000  0.02520000  1.0 -0.0329171863
O  O219  1  0.91530000  0.24230000  0.97480000  1.0 -0.0329171863
O  O220  1  0.58470000  0.75770000  0.47480000  1.0 -0.0329171863
O  O221  1  0.52520000  0.08470000  0.74230000  1.0 -0.0329171863
O  O222  1  0.02520000  0.41530000  0.25770000  1.0 -0.0329171863
O  O223  1  0.97480000  0.91530000  0.24230000  1.0 -0.0329171863
O  O224  1  0.47480000  0.58470000  0.75770000  1.0 -0.0329171863
O  O225  1  0.74230000  0.52520000  0.08470000  1.0 -0.0329171863
O  O226  1  0.25770000  0.02520000  0.41530000  1.0 -0.0329171863
O  O227  1  0.24230000  0.97480000  0.91530000  1.0 -0.0329171863
O  O228  1  0.75770000  0.47480000  0.58470000  1.0 -0.0329171863
O  O229  1  0.91530000  0.25770000  0.47480000  1.0 -0.0329171863
O  O230  1  0.58470000  0.74230000  0.97480000  1.0 -0.0329171863
O  O231  1  0.08470000  0.75770000  0.02520000  1.0 -0.0329171863
O  O232  1  0.41530000  0.24230000  0.52520000  1.0 -0.0329171863
O  O233  1  0.47480000  0.91530000  0.25770000  1.0 -0.0329171863
O  O234  1  0.97480000  0.58470000  0.74230000  1.0 -0.0329171863
O  O235  1  0.02520000  0.08470000  0.75770000  1.0 -0.0329171863
O  O236  1  0.52520000  0.41530000  0.24230000  1.0 -0.0329171863
O  O237  1  0.25770000  0.47480000  0.91530000  1.0 -0.0329171863
O  O238  1  0.74230000  0.97480000  0.58470000  1.0 -0.0329171863
O  O239  1  0.75770000  0.02520000  0.08470000  1.0 -0.0329171863
O  O240  1  0.24230000  0.52520000  0.41530000  1.0 -0.0329171863
O  O241  1  0.07150000  0.75990000  0.02890000  1.0 -0.0677902526
O  O242  1  0.42850000  0.24010000  0.52890000  1.0 -0.0677902526
O  O243  1  0.92850000  0.25990000  0.47110000  1.0 -0.0677902526
O  O244  1  0.57150000  0.74010000  0.97110000  1.0 -0.0677902526
O  O245  1  0.02890000  0.07150000  0.75990000  1.0 -0.0677902526
O  O246  1  0.52890000  0.42850000  0.24010000  1.0 -0.0677902526
O  O247  1  0.47110000  0.92850000  0.25990000  1.0 -0.0677902526
O  O248  1  0.97110000  0.57150000  0.74010000  1.0 -0.0677902526
O  O249  1  0.75990000  0.02890000  0.07150000  1.0 -0.0677902526
O  O250  1  0.24010000  0.52890000  0.42850000  1.0 -0.0677902526
O  O251  1  0.25990000  0.47110000  0.92850000  1.0 -0.0677902526
O  O252  1  0.74010000  0.97110000  0.57150000  1.0 -0.0677902526
O  O253  1  0.92850000  0.24010000  0.97110000  1.0 -0.0677902526
O  O254  1  0.57150000  0.75990000  0.47110000  1.0 -0.0677902526
O  O255  1  0.07150000  0.74010000  0.52890000  1.0 -0.0677902526
O  O256  1  0.42850000  0.25990000  0.02890000  1.0 -0.0677902526
O  O257  1  0.97110000  0.92850000  0.24010000  1.0 -0.0677902526
O  O258  1  0.47110000  0.57150000  0.75990000  1.0 -0.0677902526
O  O259  1  0.52890000  0.07150000  0.74010000  1.0 -0.0677902526
O  O260  1  0.02890000  0.42850000  0.25990000  1.0 -0.0677902526
O  O261  1  0.24010000  0.97110000  0.92850000  1.0 -0.0677902526
O  O262  1  0.75990000  0.47110000  0.57150000  1.0 -0.0677902526
O  O263  1  0.74010000  0.52890000  0.07150000  1.0 -0.0677902526
O  O264  1  0.25990000  0.02890000  0.42850000  1.0 -0.0677902526
