# DDEC6 charges by PACMAN v1.1 (https://github.com/mtap-research/PACMAN-charge/)
data_ADASUV_ASR_pacman
_symmetry_space_group_name_H-M   'P 1'
_cell_length_a   29.41880000
_cell_length_b   29.41880000
_cell_length_c   29.41880000
_cell_angle_alpha   120.05300000
_cell_angle_beta   120.05300000
_cell_angle_gamma   89.90750000
_symmetry_Int_Tables_number   1
_chemical_formula_structural   Co3H33C53NO19
_chemical_formula_sum   'Co24 H264 C424 N8 O152'
_cell_volume   17989.28721199
_cell_formula_units_Z   8
loop_
 _symmetry_equiv_pos_site_id
 _symmetry_equiv_pos_as_xyz
  1  'x, y, z'
loop_
 _atom_site_type_symbol
 _atom_site_label
 _atom_site_symmetry_multiplicity
 _atom_site_fract_x
 _atom_site_fract_y
 _atom_site_fract_z
 _atom_site_occupancy
 _atom_site_charge
Co  Co1  1  0.47792000  0.13437000  0.61229000  1.0 0.8786979094
Co  Co2  1  0.52208000  0.86563000  0.38771000  1.0 0.8786979094
Co  Co3  1  0.13437000  0.52208000  0.65645000  1.0 0.8786979094
Co  Co4  1  0.86563000  0.47792000  0.34355000  1.0 0.8786979094
Co  Co5  1  0.48117000  0.23314000  0.71431000  1.0 0.9586246088
Co  Co6  1  0.51883000  0.76686000  0.28569000  1.0 0.9586246088
Co  Co7  1  0.23314000  0.51883000  0.75197000  1.0 0.9586246088
Co  Co8  1  0.76686000  0.48117000  0.24803000  1.0 0.9586246088
Co  Co9  1  0.48940000  0.22208000  0.98054000  1.0 0.9704186842
Co  Co10  1  0.24154000  0.50886000  0.01946000  1.0 0.9704186842
Co  Co11  1  0.22208000  0.24154000  0.73268000  1.0 0.9704186842
Co  Co12  1  0.50886000  0.48940000  0.26732000  1.0 0.9704186842
Co  Co13  1  0.51060000  0.77792000  0.01946000  1.0 0.9704186842
Co  Co14  1  0.75846000  0.49114000  0.98054000  1.0 0.9704186842
Co  Co15  1  0.77792000  0.75846000  0.26732000  1.0 0.9704186842
Co  Co16  1  0.49114000  0.51060000  0.73268000  1.0 0.9704186842
Co  Co17  1  0.48869000  0.12191000  0.97756000  1.0 0.950264208
Co  Co18  1  0.14435000  0.51113000  0.02244000  1.0 0.950264208
Co  Co19  1  0.12191000  0.14435000  0.63322000  1.0 0.950264208
Co  Co20  1  0.51113000  0.48869000  0.36678000  1.0 0.950264208
Co  Co21  1  0.51131000  0.87809000  0.02244000  1.0 0.950264208
Co  Co22  1  0.85565000  0.48887000  0.97756000  1.0 0.950264208
Co  Co23  1  0.87809000  0.85565000  0.36678000  1.0 0.950264208
Co  Co24  1  0.48887000  0.51131000  0.63322000  1.0 0.950264208
H  H1  1  0.46690000  0.33770000  0.64680000  1.0 0.1428630718
H  H2  1  0.69090000  0.82010000  0.35320000  1.0 0.1428630718
H  H3  1  0.33770000  0.69090000  0.87080000  1.0 0.1428630718
H  H4  1  0.82010000  0.46690000  0.12920000  1.0 0.1428630718
H  H5  1  0.53310000  0.66230000  0.35320000  1.0 0.1428630718
H  H6  1  0.30910000  0.17990000  0.64680000  1.0 0.1428630718
H  H7  1  0.66230000  0.30910000  0.12920000  1.0 0.1428630718
H  H8  1  0.17990000  0.53310000  0.87080000  1.0 0.1428630718
H  H9  1  0.49870000  0.83070000  0.18040000  1.0 0.1428630718
H  H10  1  0.65030000  0.31830000  0.81960000  1.0 0.1428630718
H  H11  1  0.83070000  0.65030000  0.33200000  1.0 0.1428630718
H  H12  1  0.31830000  0.49870000  0.66800000  1.0 0.1428630718
H  H13  1  0.50130000  0.16930000  0.81960000  1.0 0.1428630718
H  H14  1  0.34970000  0.68170000  0.18040000  1.0 0.1428630718
H  H15  1  0.16930000  0.34970000  0.66800000  1.0 0.1428630718
H  H16  1  0.68170000  0.50130000  0.33200000  1.0 0.1428630718
H  H17  1  0.48630000  0.31450000  0.14240000  1.0 0.1428630718
H  H18  1  0.17210000  0.34390000  0.85760000  1.0 0.1428630718
H  H19  1  0.31450000  0.17210000  0.82820000  1.0 0.1428630718
H  H20  1  0.34390000  0.48630000  0.17180000  1.0 0.1428630718
H  H21  1  0.51370000  0.68550000  0.85760000  1.0 0.1428630718
H  H22  1  0.82790000  0.65610000  0.14240000  1.0 0.1428630718
H  H23  1  0.68550000  0.82790000  0.17180000  1.0 0.1428630718
H  H24  1  0.65610000  0.51370000  0.82820000  1.0 0.1428630718
H  H25  1  0.42150000  0.32250000  0.47960000  1.0 0.1012999917
H  H26  1  0.84290000  0.94190000  0.52040000  1.0 0.1012999917
H  H27  1  0.32250000  0.84290000  0.90100000  1.0 0.1012999917
H  H28  1  0.94190000  0.42150000  0.09900000  1.0 0.1012999917
H  H29  1  0.57850000  0.67750000  0.52040000  1.0 0.1012999917
H  H30  1  0.15710000  0.05810000  0.47960000  1.0 0.1012999917
H  H31  1  0.67750000  0.15710000  0.09900000  1.0 0.1012999917
H  H32  1  0.05810000  0.57850000  0.90100000  1.0 0.1012999917
H  H33  1  0.42870000  0.18910000  0.48780000  1.0 0.0788576491
H  H34  1  0.70130000  0.94090000  0.51220000  1.0 0.0788576491
H  H35  1  0.18910000  0.70130000  0.76040000  1.0 0.0788576491
H  H36  1  0.94090000  0.42870000  0.23960000  1.0 0.0788576491
H  H37  1  0.57130000  0.81090000  0.51220000  1.0 0.0788576491
H  H38  1  0.29870000  0.05910000  0.48780000  1.0 0.0788576491
H  H39  1  0.81090000  0.29870000  0.23960000  1.0 0.0788576491
H  H40  1  0.05910000  0.57130000  0.76040000  1.0 0.0788576491
H  H41  1  0.46790000  0.95560000  0.29390000  1.0 0.0916479051
H  H42  1  0.66170000  0.17400000  0.70610000  1.0 0.0916479051
H  H43  1  0.95560000  0.66170000  0.48770000  1.0 0.0916479051
H  H44  1  0.17400000  0.46790000  0.51230000  1.0 0.0916479051
H  H45  1  0.53210000  0.04440000  0.70610000  1.0 0.0916479051
H  H46  1  0.33830000  0.82600000  0.29390000  1.0 0.0916479051
H  H47  1  0.04440000  0.33830000  0.51230000  1.0 0.0916479051
H  H48  1  0.82600000  0.53210000  0.48770000  1.0 0.0916479051
H  H49  1  0.51340000  0.97310000  0.19010000  1.0 0.1012999917
H  H50  1  0.78300000  0.32330000  0.80990000  1.0 0.1012999917
H  H51  1  0.97310000  0.78300000  0.45970000  1.0 0.1012999917
H  H52  1  0.32330000  0.51340000  0.54030000  1.0 0.1012999917
H  H53  1  0.48660000  0.02690000  0.80990000  1.0 0.1012999917
H  H54  1  0.21700000  0.67670000  0.19010000  1.0 0.1012999917
H  H55  1  0.02690000  0.21700000  0.54030000  1.0 0.1012999917
H  H56  1  0.67670000  0.48660000  0.45970000  1.0 0.1012999917
H  H57  1  0.44160000  0.16650000  0.11470000  1.0 0.0916479051
H  H58  1  0.05180000  0.32690000  0.88530000  1.0 0.0916479051
H  H59  1  0.16650000  0.05180000  0.72490000  1.0 0.0916479051
H  H60  1  0.32690000  0.44160000  0.27510000  1.0 0.0916479051
H  H61  1  0.55840000  0.83350000  0.88530000  1.0 0.0916479051
H  H62  1  0.94820000  0.67310000  0.11470000  1.0 0.0916479051
H  H63  1  0.83350000  0.94820000  0.27510000  1.0 0.0916479051
H  H64  1  0.67310000  0.55840000  0.72490000  1.0 0.0916479051
H  H65  1  0.45110000  0.30690000  0.25580000  1.0 0.0788576491
H  H66  1  0.05110000  0.19530000  0.74420000  1.0 0.0788576491
H  H67  1  0.30690000  0.05110000  0.85580000  1.0 0.0788576491
H  H68  1  0.19530000  0.45110000  0.14420000  1.0 0.0788576491
H  H69  1  0.54890000  0.69310000  0.74420000  1.0 0.0788576491
H  H70  1  0.94890000  0.80470000  0.25580000  1.0 0.0788576491
H  H71  1  0.69310000  0.94890000  0.14420000  1.0 0.0788576491
H  H72  1  0.80470000  0.54890000  0.85580000  1.0 0.0788576491
H  H73  1  0.38440000  0.14460000  0.37140000  1.0 0.0592952588
H  H74  1  0.77320000  0.01300000  0.62860000  1.0 0.0592952588
H  H75  1  0.14460000  0.77320000  0.76020000  1.0 0.0592952588
H  H76  1  0.01300000  0.38440000  0.23980000  1.0 0.0592952588
H  H77  1  0.61560000  0.85540000  0.62860000  1.0 0.0592952588
H  H78  1  0.22680000  0.98700000  0.37140000  1.0 0.0592952588
H  H79  1  0.85540000  0.22680000  0.23980000  1.0 0.0592952588
H  H80  1  0.98700000  0.61560000  0.76020000  1.0 0.0592952588
H  H81  1  0.45110000  0.16360000  0.42030000  1.0 0.0788576491
H  H82  1  0.74330000  0.03080000  0.57970000  1.0 0.0788576491
H  H83  1  0.16360000  0.74330000  0.71250000  1.0 0.0788576491
H  H84  1  0.03080000  0.45110000  0.28750000  1.0 0.0788576491
H  H85  1  0.54890000  0.83640000  0.57970000  1.0 0.0788576491
H  H86  1  0.25670000  0.96920000  0.42030000  1.0 0.0788576491
H  H87  1  0.83640000  0.25670000  0.28750000  1.0 0.0788576491
H  H88  1  0.96920000  0.54890000  0.71250000  1.0 0.0788576491
H  H89  1  0.39200000  0.22820000  0.24020000  1.0 0.0222590196
H  H90  1  0.98800000  0.15180000  0.75980000  1.0 0.0222590196
H  H91  1  0.22820000  0.98800000  0.83620000  1.0 0.0222590196
H  H92  1  0.15180000  0.39200000  0.16380000  1.0 0.0222590196
H  H93  1  0.60800000  0.77180000  0.75980000  1.0 0.0222590196
H  H94  1  0.01200000  0.84820000  0.24020000  1.0 0.0222590196
H  H95  1  0.77180000  0.01200000  0.16380000  1.0 0.0222590196
H  H96  1  0.84820000  0.60800000  0.83620000  1.0 0.0222590196
H  H97  1  0.45800000  0.25850000  0.29250000  1.0 0.0916479051
H  H98  1  0.96600000  0.16550000  0.70750000  1.0 0.0916479051
H  H99  1  0.25850000  0.96600000  0.80050000  1.0 0.0916479051
H  H100  1  0.16550000  0.45800000  0.19950000  1.0 0.0916479051
H  H101  1  0.54200000  0.74150000  0.70750000  1.0 0.0916479051
H  H102  1  0.03400000  0.83450000  0.29250000  1.0 0.0916479051
H  H103  1  0.74150000  0.03400000  0.19950000  1.0 0.0916479051
H  H104  1  0.83450000  0.54200000  0.80050000  1.0 0.0916479051
H  H105  1  0.39780000  0.00880000  0.17340000  1.0 0.0696388219
H  H106  1  0.83540000  0.22440000  0.82660000  1.0 0.0696388219
H  H107  1  0.00880000  0.83540000  0.61100000  1.0 0.0696388219
H  H108  1  0.22440000  0.39780000  0.38900000  1.0 0.0696388219
H  H109  1  0.60220000  0.99120000  0.82660000  1.0 0.0696388219
H  H110  1  0.16460000  0.77560000  0.17340000  1.0 0.0696388219
H  H111  1  0.99120000  0.16460000  0.38900000  1.0 0.0696388219
H  H112  1  0.77560000  0.60220000  0.61100000  1.0 0.0696388219
H  H113  1  0.46030000  0.03610000  0.19940000  1.0 0.0696388219
H  H114  1  0.83670000  0.26090000  0.80060000  1.0 0.0696388219
H  H115  1  0.03610000  0.83670000  0.57580000  1.0 0.0696388219
H  H116  1  0.26090000  0.46030000  0.42420000  1.0 0.0696388219
H  H117  1  0.53970000  0.96390000  0.80060000  1.0 0.0696388219
H  H118  1  0.16330000  0.73910000  0.19940000  1.0 0.0696388219
H  H119  1  0.96390000  0.16330000  0.42420000  1.0 0.0696388219
H  H120  1  0.73910000  0.53970000  0.57580000  1.0 0.0696388219
H  H121  1  0.43810000  0.12390000  0.20560000  1.0 0.0440787701
H  H122  1  0.91830000  0.23250000  0.79440000  1.0 0.0440787701
H  H123  1  0.12390000  0.91830000  0.68580000  1.0 0.0440787701
H  H124  1  0.23250000  0.43810000  0.31420000  1.0 0.0440787701
H  H125  1  0.56190000  0.87610000  0.79440000  1.0 0.0440787701
H  H126  1  0.08170000  0.76750000  0.20560000  1.0 0.0440787701
H  H127  1  0.87610000  0.08170000  0.31420000  1.0 0.0440787701
H  H128  1  0.76750000  0.56190000  0.68580000  1.0 0.0440787701
H  H129  1  0.43340000  0.08320000  0.31660000  1.0 0.0524187156
H  H130  1  0.76660000  0.11680000  0.68340000  1.0 0.0524187156
H  H131  1  0.08320000  0.76660000  0.64980000  1.0 0.0524187156
H  H132  1  0.11680000  0.43340000  0.35020000  1.0 0.0524187156
H  H133  1  0.56660000  0.91680000  0.68340000  1.0 0.0524187156
H  H134  1  0.23340000  0.88320000  0.31660000  1.0 0.0524187156
H  H135  1  0.91680000  0.23340000  0.35020000  1.0 0.0524187156
H  H136  1  0.88320000  0.56660000  0.64980000  1.0 0.0524187156
H  H137  1  0.41700000  0.22940000  0.34300000  1.0 0.0592952588
H  H138  1  0.88640000  0.07400000  0.65700000  1.0 0.0592952588
H  H139  1  0.22940000  0.88640000  0.81240000  1.0 0.0592952588
H  H140  1  0.07400000  0.41700000  0.18760000  1.0 0.0592952588
H  H141  1  0.58300000  0.77060000  0.65700000  1.0 0.0592952588
H  H142  1  0.11360000  0.92600000  0.34300000  1.0 0.0592952588
H  H143  1  0.77060000  0.11360000  0.18760000  1.0 0.0592952588
H  H144  1  0.92600000  0.58300000  0.81240000  1.0 0.0592952588
H  H145  1  0.82830000  0.95460000  0.49190000  1.0 0.1012999917
H  H146  1  0.46270000  0.33640000  0.50810000  1.0 0.1012999917
H  H147  1  0.95460000  0.46270000  0.12630000  1.0 0.1012999917
H  H148  1  0.33640000  0.82830000  0.87370000  1.0 0.1012999917
H  H149  1  0.17170000  0.04540000  0.50810000  1.0 0.1012999917
H  H150  1  0.53730000  0.66360000  0.49190000  1.0 0.1012999917
H  H151  1  0.04540000  0.53730000  0.87370000  1.0 0.1012999917
H  H152  1  0.66360000  0.17170000  0.12630000  1.0 0.1012999917
H  H153  1  0.68720000  0.95380000  0.48300000  1.0 0.0788576491
H  H154  1  0.47080000  0.20420000  0.51700000  1.0 0.0788576491
H  H155  1  0.95380000  0.47080000  0.26660000  1.0 0.0788576491
H  H156  1  0.20420000  0.68720000  0.73340000  1.0 0.0788576491
H  H157  1  0.31280000  0.04620000  0.51700000  1.0 0.0788576491
H  H158  1  0.52920000  0.79580000  0.48300000  1.0 0.0788576491
H  H159  1  0.04620000  0.52920000  0.73340000  1.0 0.0788576491
H  H160  1  0.79580000  0.31280000  0.26660000  1.0 0.0788576491
H  H161  1  0.64890000  0.18640000  0.67530000  1.0 0.0916479051
H  H162  1  0.51110000  0.97360000  0.32470000  1.0 0.0916479051
H  H163  1  0.18640000  0.51110000  0.53750000  1.0 0.0916479051
H  H164  1  0.97360000  0.64890000  0.46250000  1.0 0.0916479051
H  H165  1  0.35110000  0.81360000  0.32470000  1.0 0.0916479051
H  H166  1  0.48890000  0.02640000  0.67530000  1.0 0.0916479051
H  H167  1  0.81360000  0.48890000  0.46250000  1.0 0.0916479051
H  H168  1  0.02640000  0.35110000  0.53750000  1.0 0.0916479051
H  H169  1  0.79630000  0.29850000  0.85500000  1.0 0.1012999917
H  H170  1  0.44350000  0.94130000  0.14500000  1.0 0.1012999917
H  H171  1  0.29850000  0.44350000  0.50220000  1.0 0.1012999917
H  H172  1  0.94130000  0.79630000  0.49780000  1.0 0.1012999917
H  H173  1  0.20370000  0.70150000  0.14500000  1.0 0.1012999917
H  H174  1  0.55650000  0.05870000  0.85500000  1.0 0.1012999917
H  H175  1  0.70150000  0.55650000  0.49780000  1.0 0.1012999917
H  H176  1  0.05870000  0.20370000  0.50220000  1.0 0.1012999917
H  H177  1  0.03350000  0.34040000  0.85050000  1.0 0.0916479051
H  H178  1  0.48990000  0.18300000  0.14950000  1.0 0.0916479051
H  H179  1  0.34040000  0.48990000  0.30690000  1.0 0.0916479051
H  H180  1  0.18300000  0.03350000  0.69310000  1.0 0.0916479051
H  H181  1  0.96650000  0.65960000  0.14950000  1.0 0.0916479051
H  H182  1  0.51010000  0.81700000  0.85050000  1.0 0.0916479051
H  H183  1  0.65960000  0.51010000  0.69310000  1.0 0.0916479051
H  H184  1  0.81700000  0.96650000  0.30690000  1.0 0.0916479051
H  H185  1  0.03510000  0.21150000  0.71580000  1.0 0.0916479051
H  H186  1  0.49570000  0.31930000  0.28420000  1.0 0.0916479051
H  H187  1  0.21150000  0.49570000  0.17640000  1.0 0.0916479051
H  H188  1  0.31930000  0.03510000  0.82360000  1.0 0.0916479051
H  H189  1  0.96490000  0.78850000  0.28420000  1.0 0.0916479051
H  H190  1  0.50430000  0.68070000  0.71580000  1.0 0.0916479051
H  H191  1  0.78850000  0.50430000  0.82360000  1.0 0.0916479051
H  H192  1  0.68070000  0.96490000  0.17640000  1.0 0.0916479051
H  H193  1  0.76100000  0.02320000  0.60140000  1.0 0.0788576491
H  H194  1  0.42180000  0.15960000  0.39860000  1.0 0.0788576491
H  H195  1  0.02320000  0.42180000  0.26220000  1.0 0.0788576491
H  H196  1  0.15960000  0.76100000  0.73780000  1.0 0.0788576491
H  H197  1  0.23900000  0.97680000  0.39860000  1.0 0.0788576491
H  H198  1  0.57820000  0.84040000  0.60140000  1.0 0.0788576491
H  H199  1  0.97680000  0.57820000  0.73780000  1.0 0.0788576491
H  H200  1  0.84040000  0.23900000  0.26220000  1.0 0.0788576491
H  H201  1  0.73350000  0.04120000  0.55270000  1.0 0.0524187156
H  H202  1  0.48850000  0.18080000  0.44730000  1.0 0.0524187156
H  H203  1  0.04120000  0.48850000  0.30770000  1.0 0.0524187156
H  H204  1  0.18080000  0.73350000  0.69230000  1.0 0.0524187156
H  H205  1  0.26650000  0.95880000  0.44730000  1.0 0.0524187156
H  H206  1  0.51150000  0.81920000  0.55270000  1.0 0.0524187156
H  H207  1  0.95880000  0.51150000  0.69230000  1.0 0.0524187156
H  H208  1  0.81920000  0.26650000  0.30770000  1.0 0.0524187156
H  H209  1  0.97030000  0.16310000  0.71720000  1.0 0.0916479051
H  H210  1  0.44590000  0.25310000  0.28280000  1.0 0.0916479051
H  H211  1  0.16310000  0.44590000  0.19280000  1.0 0.0916479051
H  H212  1  0.25310000  0.97030000  0.80720000  1.0 0.0916479051
H  H213  1  0.02970000  0.83690000  0.28280000  1.0 0.0916479051
H  H214  1  0.55410000  0.74690000  0.71720000  1.0 0.0916479051
H  H215  1  0.83690000  0.55410000  0.80720000  1.0 0.0916479051
H  H216  1  0.74690000  0.02970000  0.19280000  1.0 0.0916479051
H  H217  1  0.94270000  0.18670000  0.67460000  1.0 0.0271323213
H  H218  1  0.51210000  0.26810000  0.32540000  1.0 0.0271323213
H  H219  1  0.18670000  0.51210000  0.24400000  1.0 0.0271323213
H  H220  1  0.26810000  0.94270000  0.75600000  1.0 0.0271323213
H  H221  1  0.05730000  0.81330000  0.32540000  1.0 0.0271323213
H  H222  1  0.48790000  0.73190000  0.67460000  1.0 0.0271323213
H  H223  1  0.81330000  0.48790000  0.75600000  1.0 0.0271323213
H  H224  1  0.73190000  0.05730000  0.24400000  1.0 0.0271323213
H  H225  1  0.82150000  0.23570000  0.79860000  1.0 0.0696388219
H  H226  1  0.43710000  0.02290000  0.20140000  1.0 0.0696388219
H  H227  1  0.23570000  0.43710000  0.41420000  1.0 0.0696388219
H  H228  1  0.02290000  0.82150000  0.58580000  1.0 0.0696388219
H  H229  1  0.17850000  0.76430000  0.20140000  1.0 0.0696388219
H  H230  1  0.56290000  0.97710000  0.79860000  1.0 0.0696388219
H  H231  1  0.76430000  0.56290000  0.58580000  1.0 0.0696388219
H  H232  1  0.97710000  0.17850000  0.41420000  1.0 0.0696388219
H  H233  1  0.82560000  0.27430000  0.77630000  1.0 0.0592952588
H  H234  1  0.49800000  0.04930000  0.22370000  1.0 0.0592952588
H  H235  1  0.27430000  0.49800000  0.44870000  1.0 0.0592952588
H  H236  1  0.04930000  0.82560000  0.55130000  1.0 0.0592952588
H  H237  1  0.17440000  0.72570000  0.22370000  1.0 0.0592952588
H  H238  1  0.50200000  0.95070000  0.77630000  1.0 0.0592952588
H  H239  1  0.72570000  0.50200000  0.55130000  1.0 0.0592952588
H  H240  1  0.95070000  0.17440000  0.44870000  1.0 0.0592952588
H  H241  1  0.90510000  0.24410000  0.76580000  1.0 0.0524187156
H  H242  1  0.47830000  0.13930000  0.23420000  1.0 0.0524187156
H  H243  1  0.24410000  0.47830000  0.33900000  1.0 0.0524187156
H  H244  1  0.13930000  0.90510000  0.66100000  1.0 0.0524187156
H  H245  1  0.09490000  0.75590000  0.23420000  1.0 0.0524187156
H  H246  1  0.52170000  0.86070000  0.76580000  1.0 0.0524187156
H  H247  1  0.75590000  0.52170000  0.66100000  1.0 0.0524187156
H  H248  1  0.86070000  0.09490000  0.33900000  1.0 0.0524187156
H  H249  1  0.75790000  0.13990000  0.66820000  1.0 0.0696388219
H  H250  1  0.47170000  0.08970000  0.33180000  1.0 0.0696388219
H  H251  1  0.13990000  0.47170000  0.38200000  1.0 0.0696388219
H  H252  1  0.08970000  0.75790000  0.61800000  1.0 0.0696388219
H  H253  1  0.24210000  0.86010000  0.33180000  1.0 0.0696388219
H  H254  1  0.52830000  0.91030000  0.66820000  1.0 0.0696388219
H  H255  1  0.86010000  0.52830000  0.61800000  1.0 0.0696388219
H  H256  1  0.91030000  0.24210000  0.38200000  1.0 0.0696388219
H  H257  1  0.87120000  0.08740000  0.63580000  1.0 0.0696388219
H  H258  1  0.45160000  0.23540000  0.36420000  1.0 0.0696388219
H  H259  1  0.08740000  0.45160000  0.21620000  1.0 0.0696388219
H  H260  1  0.23540000  0.87120000  0.78380000  1.0 0.0696388219
H  H261  1  0.12880000  0.91260000  0.36420000  1.0 0.0696388219
H  H262  1  0.54840000  0.76460000  0.63580000  1.0 0.0696388219
H  H263  1  0.91260000  0.54840000  0.78380000  1.0 0.0696388219
H  H264  1  0.76460000  0.12880000  0.21620000  1.0 0.0696388219
C  C1  1  0.46170000  0.31740000  0.60630000  1.0 -0.2419062256
C  C2  1  0.71110000  0.85540000  0.39370000  1.0 -0.2419062256
C  C3  1  0.31740000  0.71110000  0.85570000  1.0 -0.2419062256
C  C4  1  0.85540000  0.46170000  0.14430000  1.0 -0.2419062256
C  C5  1  0.53830000  0.68260000  0.39370000  1.0 -0.2419062256
C  C6  1  0.28890000  0.14460000  0.60630000  1.0 -0.2419062256
C  C7  1  0.68260000  0.28890000  0.14430000  1.0 -0.2419062256
C  C8  1  0.14460000  0.53830000  0.85570000  1.0 -0.2419062256
C  C9  1  0.45900000  0.34430000  0.57770000  1.0 0.0037020374
C  C10  1  0.76660000  0.88130000  0.42230000  1.0 0.0037020374
C  C11  1  0.34430000  0.76660000  0.88530000  1.0 0.0037020374
C  C12  1  0.88130000  0.45900000  0.11470000  1.0 0.0037020374
C  C13  1  0.54100000  0.65570000  0.42230000  1.0 0.0037020374
C  C14  1  0.23340000  0.11870000  0.57770000  1.0 0.0037020374
C  C15  1  0.65570000  0.23340000  0.11470000  1.0 0.0037020374
C  C16  1  0.11870000  0.54100000  0.88530000  1.0 0.0037020374
C  C17  1  0.45710000  0.26260000  0.57750000  1.0 0.0037020374
C  C18  1  0.68510000  0.87960000  0.42250000  1.0 0.0037020374
C  C19  1  0.26260000  0.68510000  0.80550000  1.0 0.0037020374
C  C20  1  0.87960000  0.45710000  0.19450000  1.0 0.0037020374
C  C21  1  0.54290000  0.73740000  0.42250000  1.0 0.0037020374
C  C22  1  0.31490000  0.12040000  0.57750000  1.0 0.0037020374
C  C23  1  0.73740000  0.31490000  0.19450000  1.0 0.0037020374
C  C24  1  0.12040000  0.54290000  0.80550000  1.0 0.0037020374
C  C25  1  0.49810000  0.86590000  0.11180000  1.0 0.5660603121
C  C26  1  0.75410000  0.38630000  0.88820000  1.0 0.5660603121
C  C27  1  0.86590000  0.75410000  0.36780000  1.0 0.5660603121
C  C28  1  0.38630000  0.49810000  0.63220000  1.0 0.5660603121
C  C29  1  0.50190000  0.13410000  0.88820000  1.0 0.5660603121
C  C30  1  0.24590000  0.61370000  0.11180000  1.0 0.5660603121
C  C31  1  0.13410000  0.24590000  0.63220000  1.0 0.5660603121
C  C32  1  0.61370000  0.50190000  0.36780000  1.0 0.5660603121
C  C33  1  0.50440000  0.86820000  0.28500000  1.0 0.5588960945
C  C34  1  0.58320000  0.21940000  0.71500000  1.0 0.5588960945
C  C35  1  0.86820000  0.58320000  0.36380000  1.0 0.5588960945
C  C36  1  0.21940000  0.50440000  0.63620000  1.0 0.5588960945
C  C37  1  0.49560000  0.13180000  0.71500000  1.0 0.5588960945
C  C38  1  0.41680000  0.78060000  0.28500000  1.0 0.5588960945
C  C39  1  0.13180000  0.41680000  0.63620000  1.0 0.5588960945
C  C40  1  0.78060000  0.49560000  0.36380000  1.0 0.5588960945
C  C41  1  0.49520000  0.86660000  0.19600000  1.0 -0.2195294648
C  C42  1  0.67060000  0.29920000  0.80400000  1.0 -0.2195294648
C  C43  1  0.86660000  0.67060000  0.37140000  1.0 -0.2195294648
C  C44  1  0.29920000  0.49520000  0.62860000  1.0 -0.2195294648
C  C45  1  0.50480000  0.13340000  0.80400000  1.0 -0.2195294648
C  C46  1  0.32940000  0.70080000  0.19600000  1.0 -0.2195294648
C  C47  1  0.13340000  0.32940000  0.62860000  1.0 -0.2195294648
C  C48  1  0.70080000  0.50480000  0.37140000  1.0 -0.2195294648
C  C49  1  0.49480000  0.89460000  0.24900000  1.0 0.0222590196
C  C50  1  0.64560000  0.24580000  0.75100000  1.0 0.0222590196
C  C51  1  0.89460000  0.64560000  0.39980000  1.0 0.0222590196
C  C52  1  0.24580000  0.49480000  0.60020000  1.0 0.0222590196
C  C53  1  0.50520000  0.10540000  0.75100000  1.0 0.0222590196
C  C54  1  0.35440000  0.75420000  0.24900000  1.0 0.0222590196
C  C55  1  0.10540000  0.35440000  0.60020000  1.0 0.0222590196
C  C56  1  0.75420000  0.50520000  0.39980000  1.0 0.0222590196
C  C57  1  0.49050000  0.89150000  0.16480000  1.0 -0.0318238352
C  C58  1  0.72670000  0.32570000  0.83520000  1.0 -0.0318238352
C  C59  1  0.89150000  0.72670000  0.40100000  1.0 -0.0318238352
C  C60  1  0.32570000  0.49050000  0.59900000  1.0 -0.0318238352
C  C61  1  0.50950000  0.10850000  0.83520000  1.0 -0.0318238352
C  C62  1  0.27330000  0.67430000  0.16480000  1.0 -0.0318238352
C  C63  1  0.10850000  0.27330000  0.59900000  1.0 -0.0318238352
C  C64  1  0.67430000  0.50950000  0.40100000  1.0 -0.0318238352
C  C65  1  0.48880000  0.38200000  0.24380000  1.0 0.5588960945
C  C66  1  0.13820000  0.24500000  0.75620000  1.0 0.5588960945
C  C67  1  0.38200000  0.13820000  0.89320000  1.0 0.5588960945
C  C68  1  0.24500000  0.48880000  0.10680000  1.0 0.5588960945
C  C69  1  0.51120000  0.61800000  0.75620000  1.0 0.5588960945
C  C70  1  0.86180000  0.75500000  0.24380000  1.0 0.5588960945
C  C71  1  0.61800000  0.86180000  0.10680000  1.0 0.5588960945
C  C72  1  0.75500000  0.51120000  0.89320000  1.0 0.5588960945
C  C73  1  0.47530000  0.20660000  0.06790000  1.0 0.5588960945
C  C74  1  0.13870000  0.40740000  0.93210000  1.0 0.5588960945
C  C75  1  0.20660000  0.13870000  0.73130000  1.0 0.5588960945
C  C76  1  0.40740000  0.47530000  0.26870000  1.0 0.5588960945
C  C77  1  0.52470000  0.79340000  0.93210000  1.0 0.5588960945
C  C78  1  0.86130000  0.59260000  0.06790000  1.0 0.5588960945
C  C79  1  0.79340000  0.86130000  0.26870000  1.0 0.5588960945
C  C80  1  0.59260000  0.52470000  0.73130000  1.0 0.5588960945
C  C81  1  0.48020000  0.29480000  0.15740000  1.0 -0.2195294648
C  C82  1  0.13740000  0.32280000  0.84260000  1.0 -0.2195294648
C  C83  1  0.29480000  0.13740000  0.81460000  1.0 -0.2195294648
C  C84  1  0.32280000  0.48020000  0.18540000  1.0 -0.2195294648
C  C85  1  0.51980000  0.70520000  0.84260000  1.0 -0.2195294648
C  C86  1  0.86260000  0.67720000  0.15740000  1.0 -0.2195294648
C  C87  1  0.70520000  0.86260000  0.18540000  1.0 -0.2195294648
C  C88  1  0.67720000  0.51980000  0.81460000  1.0 -0.2195294648
C  C89  1  0.47250000  0.23720000  0.12530000  1.0 0.0037020374
C  C90  1  0.11190000  0.34720000  0.87470000  1.0 0.0037020374
C  C91  1  0.23720000  0.11190000  0.76470000  1.0 0.0037020374
C  C92  1  0.34720000  0.47250000  0.23530000  1.0 0.0037020374
C  C93  1  0.52750000  0.76280000  0.87470000  1.0 0.0037020374
C  C94  1  0.88810000  0.65280000  0.12530000  1.0 0.0037020374
C  C95  1  0.76280000  0.88810000  0.23530000  1.0 0.0037020374
C  C96  1  0.65280000  0.52750000  0.76470000  1.0 0.0037020374
C  C97  1  0.47870000  0.32210000  0.21020000  1.0 -0.0318238352
C  C98  1  0.11190000  0.26850000  0.78980000  1.0 -0.0318238352
C  C99  1  0.32210000  0.11190000  0.84340000  1.0 -0.0318238352
C  C100  1  0.26850000  0.47870000  0.15660000  1.0 -0.0318238352
C  C101  1  0.52130000  0.67790000  0.78980000  1.0 -0.0318238352
C  C102  1  0.88810000  0.73150000  0.21020000  1.0 -0.0318238352
C  C103  1  0.67790000  0.88810000  0.15660000  1.0 -0.0318238352
C  C104  1  0.73150000  0.52130000  0.84340000  1.0 -0.0318238352
C  C105  1  0.47010000  0.40600000  0.61350000  1.0 0.5588960945
C  C106  1  0.79250000  0.85660000  0.38650000  1.0 0.5588960945
C  C107  1  0.40600000  0.79250000  0.93590000  1.0 0.5588960945
C  C108  1  0.85660000  0.47010000  0.06410000  1.0 0.5588960945
C  C109  1  0.52990000  0.59400000  0.38650000  1.0 0.5588960945
C  C110  1  0.20750000  0.14340000  0.61350000  1.0 0.5588960945
C  C111  1  0.59400000  0.20750000  0.06410000  1.0 0.5588960945
C  C112  1  0.14340000  0.52990000  0.93590000  1.0 0.5588960945
C  C113  1  0.46570000  0.23880000  0.61550000  1.0 0.5588960945
C  C114  1  0.62330000  0.85020000  0.38450000  1.0 0.5588960945
C  C115  1  0.23880000  0.62330000  0.77310000  1.0 0.5588960945
C  C116  1  0.85020000  0.46570000  0.22690000  1.0 0.5588960945
C  C117  1  0.53430000  0.76120000  0.38450000  1.0 0.5588960945
C  C118  1  0.37670000  0.14980000  0.61550000  1.0 0.5588960945
C  C119  1  0.76120000  0.37670000  0.22690000  1.0 0.5588960945
C  C120  1  0.14980000  0.53430000  0.77310000  1.0 0.5588960945
C  C121  1  0.43310000  0.30810000  0.50460000  1.0 -0.080124448
C  C122  1  0.80350000  0.92850000  0.49540000  1.0 -0.080124448
C  C123  1  0.30810000  0.80350000  0.87500000  1.0 -0.080124448
C  C124  1  0.92850000  0.43310000  0.12500000  1.0 -0.080124448
C  C125  1  0.56690000  0.69190000  0.49540000  1.0 -0.080124448
C  C126  1  0.19650000  0.07150000  0.50460000  1.0 -0.080124448
C  C127  1  0.69190000  0.19650000  0.12500000  1.0 -0.080124448
C  C128  1  0.07150000  0.56690000  0.87500000  1.0 -0.080124448
C  C129  1  0.43650000  0.22830000  0.51000000  1.0 -0.0698244186
C  C130  1  0.71830000  0.92650000  0.49000000  1.0 -0.0698244186
C  C131  1  0.22830000  0.71830000  0.79180000  1.0 -0.0698244186
C  C132  1  0.92650000  0.43650000  0.20820000  1.0 -0.0698244186
C  C133  1  0.56350000  0.77170000  0.49000000  1.0 -0.0698244186
C  C134  1  0.28170000  0.07350000  0.51000000  1.0 -0.0698244186
C  C135  1  0.77170000  0.28170000  0.20820000  1.0 -0.0698244186
C  C136  1  0.07350000  0.56350000  0.79180000  1.0 -0.0698244186
C  C137  1  0.47610000  0.94100000  0.26290000  1.0 -0.080124448
C  C138  1  0.67810000  0.21320000  0.73710000  1.0 -0.080124448
C  C139  1  0.94100000  0.67810000  0.46490000  1.0 -0.080124448
C  C140  1  0.21320000  0.47610000  0.53510000  1.0 -0.080124448
C  C141  1  0.52390000  0.05900000  0.73710000  1.0 -0.080124448
C  C142  1  0.32190000  0.78680000  0.26290000  1.0 -0.080124448
C  C143  1  0.05900000  0.32190000  0.53510000  1.0 -0.080124448
C  C144  1  0.78680000  0.52390000  0.46490000  1.0 -0.080124448
C  C145  1  0.49630000  0.94850000  0.19340000  1.0 -0.0439509503
C  C146  1  0.75510000  0.30290000  0.80660000  1.0 -0.0439509503
C  C147  1  0.94850000  0.75510000  0.45220000  1.0 -0.0439509503
C  C148  1  0.30290000  0.49630000  0.54780000  1.0 -0.0439509503
C  C149  1  0.50370000  0.05150000  0.80660000  1.0 -0.0439509503
C  C150  1  0.24490000  0.69710000  0.19340000  1.0 -0.0439509503
C  C151  1  0.05150000  0.24490000  0.54780000  1.0 -0.0439509503
C  C152  1  0.69710000  0.50370000  0.45220000  1.0 -0.0439509503
C  C153  1  0.45210000  0.20600000  0.13970000  1.0 -0.080124448
C  C154  1  0.06630000  0.31240000  0.86030000  1.0 -0.080124448
C  C155  1  0.20600000  0.06630000  0.75390000  1.0 -0.080124448
C  C156  1  0.31240000  0.45210000  0.24610000  1.0 -0.080124448
C  C157  1  0.54790000  0.79400000  0.86030000  1.0 -0.080124448
C  C158  1  0.93370000  0.68760000  0.13970000  1.0 -0.080124448
C  C159  1  0.79400000  0.93370000  0.24610000  1.0 -0.080124448
C  C160  1  0.68760000  0.54790000  0.75390000  1.0 -0.080124448
C  C161  1  0.45780000  0.28950000  0.22350000  1.0 -0.080124448
C  C162  1  0.06600000  0.23430000  0.77650000  1.0 -0.080124448
C  C163  1  0.28950000  0.06600000  0.83170000  1.0 -0.080124448
C  C164  1  0.23430000  0.45780000  0.16830000  1.0 -0.080124448
C  C165  1  0.54220000  0.71050000  0.77650000  1.0 -0.080124448
C  C166  1  0.93400000  0.76570000  0.22350000  1.0 -0.080124448
C  C167  1  0.71050000  0.93400000  0.16830000  1.0 -0.080124448
C  C168  1  0.76570000  0.54220000  0.83170000  1.0 -0.080124448
C  C169  1  0.42850000  0.25290000  0.47940000  1.0 0.0916479051
C  C170  1  0.77350000  0.94910000  0.52060000  1.0 0.0916479051
C  C171  1  0.25290000  0.77350000  0.82440000  1.0 0.0916479051
C  C172  1  0.94910000  0.42850000  0.17560000  1.0 0.0916479051
C  C173  1  0.57150000  0.74710000  0.52060000  1.0 0.0916479051
C  C174  1  0.22650000  0.05090000  0.47940000  1.0 0.0916479051
C  C175  1  0.74710000  0.22650000  0.17560000  1.0 0.0916479051
C  C176  1  0.05090000  0.57150000  0.82440000  1.0 0.0916479051
C  C177  1  0.47010000  0.96390000  0.23100000  1.0 0.1099549565
C  C178  1  0.73290000  0.23910000  0.76900000  1.0 0.1099549565
C  C179  1  0.96390000  0.73290000  0.49380000  1.0 0.1099549565
C  C180  1  0.23910000  0.47010000  0.50620000  1.0 0.1099549565
C  C181  1  0.52990000  0.03610000  0.76900000  1.0 0.1099549565
C  C182  1  0.26710000  0.76090000  0.23100000  1.0 0.1099549565
C  C183  1  0.03610000  0.26710000  0.50620000  1.0 0.1099549565
C  C184  1  0.76090000  0.52990000  0.49380000  1.0 0.1099549565
C  C185  1  0.44780000  0.23410000  0.19030000  1.0 0.1099549565
C  C186  1  0.04380000  0.25750000  0.80970000  1.0 0.1099549565
C  C187  1  0.23410000  0.04380000  0.78630000  1.0 0.1099549565
C  C188  1  0.25750000  0.44780000  0.21370000  1.0 0.1099549565
C  C189  1  0.55220000  0.76590000  0.80970000  1.0 0.1099549565
C  C190  1  0.95620000  0.74250000  0.19030000  1.0 0.1099549565
C  C191  1  0.76590000  0.95620000  0.21370000  1.0 0.1099549565
C  C192  1  0.74250000  0.55220000  0.78630000  1.0 0.1099549565
C  C193  1  0.42050000  0.16980000  0.39070000  1.0 -0.0513006668
C  C194  1  0.77910000  0.02980000  0.60930000  1.0 -0.0513006668
C  C195  1  0.16980000  0.77910000  0.74930000  1.0 -0.0513006668
C  C196  1  0.02980000  0.42050000  0.25070000  1.0 -0.0513006668
C  C197  1  0.57950000  0.83020000  0.60930000  1.0 -0.0513006668
C  C198  1  0.22090000  0.97020000  0.39070000  1.0 -0.0513006668
C  C199  1  0.83020000  0.22090000  0.25070000  1.0 -0.0513006668
C  C200  1  0.97020000  0.57950000  0.74930000  1.0 -0.0513006668
C  C201  1  0.42850000  0.22210000  0.25480000  1.0 -0.0698244186
C  C202  1  0.96730000  0.17370000  0.74520000  1.0 -0.0698244186
C  C203  1  0.22210000  0.96730000  0.79360000  1.0 -0.0698244186
C  C204  1  0.17370000  0.42850000  0.20640000  1.0 -0.0698244186
C  C205  1  0.57150000  0.77790000  0.74520000  1.0 -0.0698244186
C  C206  1  0.03270000  0.82630000  0.25480000  1.0 -0.0698244186
C  C207  1  0.77790000  0.03270000  0.20640000  1.0 -0.0698244186
C  C208  1  0.82630000  0.57150000  0.79360000  1.0 -0.0698244186
C  C209  1  0.43580000  0.03360000  0.21260000  1.0 -0.0513006668
C  C210  1  0.82100000  0.22320000  0.78740000  1.0 -0.0513006668
C  C211  1  0.03360000  0.82100000  0.59780000  1.0 -0.0513006668
C  C212  1  0.22320000  0.43580000  0.40220000  1.0 -0.0513006668
C  C213  1  0.56420000  0.96640000  0.78740000  1.0 -0.0513006668
C  C214  1  0.17900000  0.77680000  0.21260000  1.0 -0.0513006668
C  C215  1  0.96640000  0.17900000  0.40220000  1.0 -0.0513006668
C  C216  1  0.77680000  0.56420000  0.59780000  1.0 -0.0513006668
C  C217  1  0.43060000  0.18260000  0.27380000  1.0 0.0222590196
C  C218  1  0.90880000  0.15680000  0.72620000  1.0 0.0271323213
C  C219  1  0.18260000  0.90880000  0.75200000  1.0 0.0222590196
C  C220  1  0.15680000  0.43060000  0.24800000  1.0 0.0222590196
C  C221  1  0.56940000  0.81740000  0.72620000  1.0 0.0271323213
C  C222  1  0.09120000  0.84320000  0.27380000  1.0 0.0222590196
C  C223  1  0.81740000  0.09120000  0.24800000  1.0 0.0271323213
C  C224  1  0.84320000  0.56940000  0.75200000  1.0 0.0271323213
C  C225  1  0.43500000  0.13240000  0.23940000  1.0 -0.0513006668
C  C226  1  0.89300000  0.19560000  0.76060000  1.0 -0.0513006668
C  C227  1  0.13240000  0.89300000  0.69740000  1.0 -0.0513006668
C  C228  1  0.19560000  0.43500000  0.30260000  1.0 -0.0513006668
C  C229  1  0.56500000  0.86760000  0.76060000  1.0 -0.0513006668
C  C230  1  0.10700000  0.80440000  0.23940000  1.0 -0.0513006668
C  C231  1  0.86760000  0.10700000  0.30260000  1.0 -0.0513006668
C  C232  1  0.80440000  0.56500000  0.69740000  1.0 -0.0513006668
C  C233  1  0.43200000  0.10740000  0.30380000  1.0 -0.080124448
C  C234  1  0.80360000  0.12820000  0.69620000  1.0 -0.080124448
C  C235  1  0.10740000  0.80360000  0.67540000  1.0 -0.080124448
C  C236  1  0.12820000  0.43200000  0.32460000  1.0 -0.080124448
C  C237  1  0.56800000  0.89260000  0.69620000  1.0 -0.0698244186
C  C238  1  0.19640000  0.87180000  0.30380000  1.0 -0.0698244186
C  C239  1  0.89260000  0.19640000  0.32460000  1.0 -0.0698244186
C  C240  1  0.87180000  0.56800000  0.67540000  1.0 -0.0698244186
C  C241  1  0.43500000  0.09050000  0.25350000  1.0 0.0271323213
C  C242  1  0.83700000  0.18150000  0.74650000  1.0 0.0271323213
C  C243  1  0.09050000  0.83700000  0.65550000  1.0 0.0271323213
C  C244  1  0.18150000  0.43500000  0.34450000  1.0 0.0271323213
C  C245  1  0.56500000  0.90950000  0.74650000  1.0 0.0271323213
C  C246  1  0.16300000  0.81850000  0.25350000  1.0 0.0271323213
C  C247  1  0.90950000  0.16300000  0.34450000  1.0 0.0271323213
C  C248  1  0.81850000  0.56500000  0.65550000  1.0 0.0271323213
C  C249  1  0.42680000  0.16280000  0.34000000  1.0 0.0082908288
C  C250  1  0.82280000  0.08680000  0.66000000  1.0 0.0082908288
C  C251  1  0.16280000  0.82280000  0.73600000  1.0 0.0082908288
C  C252  1  0.08680000  0.42680000  0.26400000  1.0 0.0082908288
C  C253  1  0.57320000  0.83720000  0.66000000  1.0 0.0082908288
C  C254  1  0.17720000  0.91320000  0.34000000  1.0 0.0082908288
C  C255  1  0.83720000  0.17720000  0.26400000  1.0 0.0082908288
C  C256  1  0.91320000  0.57320000  0.73600000  1.0 0.0082908288
C  C257  1  0.42380000  0.19580000  0.32260000  1.0 -0.1008222613
C  C258  1  0.87320000  0.10120000  0.67740000  1.0 -0.1008222613
C  C259  1  0.19580000  0.87320000  0.77200000  1.0 -0.1008222613
C  C260  1  0.10120000  0.42380000  0.22800000  1.0 -0.1008222613
C  C261  1  0.57620000  0.80420000  0.67740000  1.0 -0.1008222613
C  C262  1  0.12680000  0.89880000  0.32260000  1.0 -0.1008222613
C  C263  1  0.80420000  0.12680000  0.22800000  1.0 -0.1008222613
C  C264  1  0.89880000  0.57620000  0.77200000  1.0 -0.1008222613
C  C265  1  0.79180000  0.93490000  0.47430000  1.0 -0.080124448
C  C266  1  0.46060000  0.31750000  0.52570000  1.0 -0.0889839225
C  C267  1  0.93490000  0.46060000  0.14310000  1.0 -0.080124448
C  C268  1  0.31750000  0.79180000  0.85690000  1.0 -0.0889839225
C  C269  1  0.20820000  0.06510000  0.52570000  1.0 -0.0889839225
C  C270  1  0.53940000  0.68250000  0.47430000  1.0 -0.0889839225
C  C271  1  0.06510000  0.53940000  0.85690000  1.0 -0.0889839225
C  C272  1  0.68250000  0.20820000  0.14310000  1.0 -0.080124448
C  C273  1  0.70870000  0.93360000  0.47030000  1.0 -0.0602202467
C  C274  1  0.46330000  0.23840000  0.52970000  1.0 -0.0602202467
C  C275  1  0.93360000  0.46330000  0.22490000  1.0 -0.0602202467
C  C276  1  0.23840000  0.70870000  0.77510000  1.0 -0.0602202467
C  C277  1  0.29130000  0.06640000  0.52970000  1.0 -0.0602202467
C  C278  1  0.53670000  0.76160000  0.47030000  1.0 -0.0602202467
C  C279  1  0.06640000  0.53670000  0.77510000  1.0 -0.0602202467
C  C280  1  0.76160000  0.29130000  0.22490000  1.0 -0.0602202467
C  C281  1  0.66930000  0.22140000  0.71610000  1.0 -0.0698244186
C  C282  1  0.50530000  0.95320000  0.28390000  1.0 -0.0698244186
C  C283  1  0.22140000  0.50530000  0.55210000  1.0 -0.0698244186
C  C284  1  0.95320000  0.66930000  0.44790000  1.0 -0.0698244186
C  C285  1  0.33070000  0.77860000  0.28390000  1.0 -0.0698244186
C  C286  1  0.49470000  0.04680000  0.71610000  1.0 -0.0698244186
C  C287  1  0.77860000  0.49470000  0.44790000  1.0 -0.0698244186
C  C288  1  0.04680000  0.33070000  0.55210000  1.0 -0.0698244186
C  C289  1  0.76010000  0.29500000  0.82430000  1.0 -0.0698244186
C  C290  1  0.47070000  0.93580000  0.17570000  1.0 -0.0698244186
C  C291  1  0.29500000  0.47070000  0.53490000  1.0 -0.0698244186
C  C292  1  0.93580000  0.76010000  0.46510000  1.0 -0.0698244186
C  C293  1  0.23990000  0.70500000  0.17570000  1.0 -0.0698244186
C  C294  1  0.52930000  0.06420000  0.82430000  1.0 -0.0698244186
C  C295  1  0.70500000  0.52930000  0.46510000  1.0 -0.0698244186
C  C296  1  0.06420000  0.23990000  0.53490000  1.0 -0.0698244186
C  C297  1  0.05570000  0.32060000  0.83910000  1.0 -0.0889839225
C  C298  1  0.48150000  0.21660000  0.16090000  1.0 -0.0889839225
C  C299  1  0.32060000  0.48150000  0.26490000  1.0 -0.0889839225
C  C300  1  0.21660000  0.05570000  0.73510000  1.0 -0.0889839225
C  C301  1  0.94430000  0.67940000  0.16090000  1.0 -0.0889839225
C  C302  1  0.51850000  0.78340000  0.83910000  1.0 -0.0889839225
C  C303  1  0.67940000  0.51850000  0.73510000  1.0 -0.0889839225
C  C304  1  0.78340000  0.94430000  0.26490000  1.0 -0.0889839225
C  C305  1  0.05640000  0.24430000  0.75850000  1.0 -0.0698244186
C  C306  1  0.48580000  0.29790000  0.24150000  1.0 -0.0698244186
C  C307  1  0.24430000  0.48580000  0.18790000  1.0 -0.0698244186
C  C308  1  0.29790000  0.05640000  0.81210000  1.0 -0.0698244186
C  C309  1  0.94360000  0.75570000  0.24150000  1.0 -0.0698244186
C  C310  1  0.51420000  0.70210000  0.75850000  1.0 -0.0698244186
C  C311  1  0.75570000  0.51420000  0.81210000  1.0 -0.0698244186
C  C312  1  0.70210000  0.94360000  0.18790000  1.0 -0.0698244186
C  C313  1  0.76480000  0.96120000  0.50200000  1.0 0.1012999917
C  C314  1  0.45920000  0.26280000  0.49800000  1.0 0.1012999917
C  C315  1  0.96120000  0.45920000  0.19640000  1.0 0.1012999917
C  C316  1  0.26280000  0.76480000  0.80360000  1.0 0.1012999917
C  C317  1  0.23520000  0.03880000  0.49800000  1.0 0.1012999917
C  C318  1  0.54080000  0.73720000  0.50200000  1.0 0.1099549565
C  C319  1  0.03880000  0.54080000  0.80360000  1.0 0.1012999917
C  C320  1  0.73720000  0.23520000  0.19640000  1.0 0.1099549565
C  C321  1  0.72070000  0.24900000  0.74250000  1.0 0.0696388219
C  C322  1  0.50650000  0.97820000  0.25750000  1.0 0.0696388219
C  C323  1  0.24900000  0.50650000  0.52830000  1.0 0.0696388219
C  C324  1  0.97820000  0.72070000  0.47170000  1.0 0.0696388219
C  C325  1  0.27930000  0.75100000  0.25750000  1.0 0.0696388219
C  C326  1  0.49350000  0.02180000  0.74250000  1.0 0.0696388219
C  C327  1  0.75100000  0.49350000  0.47170000  1.0 0.0696388219
C  C328  1  0.02180000  0.27930000  0.52830000  1.0 0.0696388219
C  C329  1  0.03240000  0.26790000  0.78930000  1.0 0.0440787701
C  C330  1  0.47860000  0.24310000  0.21070000  1.0 0.0440787701
C  C331  1  0.26790000  0.47860000  0.23550000  1.0 0.0440787701
C  C332  1  0.24310000  0.03240000  0.76450000  1.0 0.0440787701
C  C333  1  0.96760000  0.73210000  0.21070000  1.0 0.0440787701
C  C334  1  0.52140000  0.75690000  0.78930000  1.0 0.0440787701
C  C335  1  0.73210000  0.52140000  0.76450000  1.0 0.0440787701
C  C336  1  0.75690000  0.96760000  0.23550000  1.0 0.0440787701
C  C337  1  0.76900000  0.04200000  0.58500000  1.0 -0.0023318164
C  C338  1  0.45700000  0.18400000  0.41500000  1.0 -0.0023318164
C  C339  1  0.04200000  0.45700000  0.27300000  1.0 -0.0023318164
C  C340  1  0.18400000  0.76900000  0.72700000  1.0 -0.0023318164
C  C341  1  0.23100000  0.95800000  0.41500000  1.0 -0.0023318164
C  C342  1  0.54300000  0.81600000  0.58500000  1.0 -0.0023318164
C  C343  1  0.95800000  0.54300000  0.72700000  1.0 -0.0023318164
C  C344  1  0.81600000  0.23100000  0.27300000  1.0 -0.0023318164
C  C345  1  0.94870000  0.18790000  0.71140000  1.0 -0.0698244186
C  C346  1  0.47650000  0.23730000  0.28860000  1.0 -0.0698244186
C  C347  1  0.18790000  0.47650000  0.23920000  1.0 -0.0698244186
C  C348  1  0.23730000  0.94870000  0.76080000  1.0 -0.0698244186
C  C349  1  0.05130000  0.81210000  0.28860000  1.0 -0.0698244186
C  C350  1  0.52350000  0.76270000  0.71140000  1.0 -0.0698244186
C  C351  1  0.81210000  0.52350000  0.76080000  1.0 -0.0698244186
C  C352  1  0.76270000  0.05130000  0.23920000  1.0 -0.0698244186
C  C353  1  0.80970000  0.23580000  0.76070000  1.0 0.0082908288
C  C354  1  0.47510000  0.04900000  0.23930000  1.0 0.0082908288
C  C355  1  0.23580000  0.47510000  0.42610000  1.0 0.0082908288
C  C356  1  0.04900000  0.80970000  0.57390000  1.0 0.0037020374
C  C357  1  0.19030000  0.76420000  0.23930000  1.0 0.0082908288
C  C358  1  0.52490000  0.95100000  0.76070000  1.0 0.0082908288
C  C359  1  0.76420000  0.52490000  0.57390000  1.0 0.0082908288
C  C360  1  0.95100000  0.19030000  0.42610000  1.0 0.0082908288
C  C361  1  0.89320000  0.16740000  0.69720000  1.0 0.0082908288
C  C362  1  0.47020000  0.19600000  0.30280000  1.0 0.0082908288
C  C363  1  0.16740000  0.47020000  0.27420000  1.0 0.0082908288
C  C364  1  0.19600000  0.89320000  0.72580000  1.0 0.0082908288
C  C365  1  0.10680000  0.83260000  0.30280000  1.0 0.0082908288
C  C366  1  0.52980000  0.80400000  0.69720000  1.0 0.0082908288
C  C367  1  0.83260000  0.52980000  0.72580000  1.0 0.0082908288
C  C368  1  0.80400000  0.10680000  0.27420000  1.0 0.0082908288
C  C369  1  0.87900000  0.20750000  0.73330000  1.0 -0.1008222613
C  C370  1  0.47420000  0.14570000  0.26670000  1.0 -0.1008222613
C  C371  1  0.20750000  0.47420000  0.32850000  1.0 -0.1008222613
C  C372  1  0.14570000  0.87900000  0.67150000  1.0 -0.1008222613
C  C373  1  0.12100000  0.79250000  0.26670000  1.0 -0.1008222613
C  C374  1  0.52580000  0.85430000  0.73330000  1.0 -0.1008222613
C  C375  1  0.79250000  0.52580000  0.67150000  1.0 -0.1008222613
C  C376  1  0.85430000  0.12100000  0.32850000  1.0 -0.1008222613
C  C377  1  0.79410000  0.14680000  0.67750000  1.0 -0.1181715052
C  C378  1  0.46930000  0.11660000  0.32250000  1.0 -0.1181715052
C  C379  1  0.14680000  0.46930000  0.35270000  1.0 -0.1181715052
C  C380  1  0.11660000  0.79410000  0.64730000  1.0 -0.1181715052
C  C381  1  0.20590000  0.85320000  0.32250000  1.0 -0.1181715052
C  C382  1  0.53070000  0.88340000  0.67750000  1.0 -0.1181715052
C  C383  1  0.85320000  0.53070000  0.64730000  1.0 -0.1181715052
C  C384  1  0.88340000  0.20590000  0.35270000  1.0 -0.1181715052
C  C385  1  0.83150000  0.19780000  0.72510000  1.0 0.0082908288
C  C386  1  0.47270000  0.10640000  0.27490000  1.0 0.0082908288
C  C387  1  0.19780000  0.47270000  0.36630000  1.0 0.0082908288
C  C388  1  0.10640000  0.83150000  0.63370000  1.0 0.0082908288
C  C389  1  0.16850000  0.80220000  0.27490000  1.0 0.0082908288
C  C390  1  0.52730000  0.89360000  0.72510000  1.0 0.0082908288
C  C391  1  0.80220000  0.52730000  0.63370000  1.0 0.0082908288
C  C392  1  0.89360000  0.16850000  0.36630000  1.0 0.0082908288
C  C393  1  0.80720000  0.10120000  0.63940000  1.0 0.0222590196
C  C394  1  0.46180000  0.16780000  0.36060000  1.0 0.0222590196
C  C395  1  0.10120000  0.46180000  0.29400000  1.0 0.0222590196
C  C396  1  0.16780000  0.80720000  0.70600000  1.0 0.0222590196
C  C397  1  0.19280000  0.89880000  0.36060000  1.0 0.0222590196
C  C398  1  0.53820000  0.83220000  0.63940000  1.0 0.0222590196
C  C399  1  0.89880000  0.53820000  0.70600000  1.0 0.0222590196
C  C400  1  0.83220000  0.19280000  0.29400000  1.0 0.0271323213
C  C401  1  0.85870000  0.11590000  0.65560000  1.0 -0.0698244186
C  C402  1  0.46030000  0.20310000  0.34440000  1.0 -0.0698244186
C  C403  1  0.11590000  0.46030000  0.25720000  1.0 -0.0698244186
C  C404  1  0.20310000  0.85870000  0.74280000  1.0 -0.0698244186
C  C405  1  0.14130000  0.88410000  0.34440000  1.0 -0.0698244186
C  C406  1  0.53970000  0.79690000  0.65560000  1.0 -0.0698244186
C  C407  1  0.88410000  0.53970000  0.74280000  1.0 -0.0698244186
C  C408  1  0.79690000  0.14130000  0.25720000  1.0 -0.0698244186
C  C409  1  0.42870000  0.02790000  0.47720000  1.0 0.2208229713
C  C410  1  0.55070000  0.95150000  0.52280000  1.0 0.2208229713
C  C411  1  0.02790000  0.55070000  0.59920000  1.0 0.2208229713
C  C412  1  0.95150000  0.42870000  0.40080000  1.0 0.2208229713
C  C413  1  0.57130000  0.97210000  0.52280000  1.0 0.2208229713
C  C414  1  0.44930000  0.04850000  0.47720000  1.0 0.2208229713
C  C415  1  0.97210000  0.44930000  0.40080000  1.0 0.2208229713
C  C416  1  0.04850000  0.57130000  0.59920000  1.0 0.2208229713
C  C417  1  0.44900000  0.00290000  0.40030000  1.0 -0.080124448
C  C418  1  0.60260000  0.04870000  0.59970000  1.0 -0.080124448
C  C419  1  0.00290000  0.60260000  0.55390000  1.0 -0.080124448
C  C420  1  0.04870000  0.44900000  0.44610000  1.0 -0.080124448
C  C421  1  0.55100000  0.99710000  0.59970000  1.0 -0.080124448
C  C422  1  0.39740000  0.95130000  0.40030000  1.0 -0.080124448
C  C423  1  0.99710000  0.39740000  0.44610000  1.0 -0.080124448
C  C424  1  0.95130000  0.55100000  0.55390000  1.0 -0.080124448
N  N1  1  0.42790000  0.99230000  0.42800000  1.0 -0.1181715052
N  N2  1  0.56430000  0.99990000  0.57200000  1.0 -0.1181715052
N  N3  1  0.99230000  0.56430000  0.56440000  1.0 -0.1181715052
N  N4  1  0.99990000  0.42790000  0.43560000  1.0 -0.1181715052
N  N5  1  0.57210000  0.00770000  0.57200000  1.0 -0.1181715052
N  N6  1  0.43570000  0.00010000  0.42800000  1.0 -0.1181715052
N  N7  1  0.00770000  0.43570000  0.43560000  1.0 -0.1181715052
N  N8  1  0.00010000  0.57210000  0.56440000  1.0 -0.1181715052
O  O1  1  0.47869000  0.23509000  0.04800000  1.0 -0.5755844787
O  O2  1  0.18709000  0.43069000  0.95200000  1.0 -0.5755844787
O  O3  1  0.23509000  0.18709000  0.75640000  1.0 -0.5755844787
O  O4  1  0.43069000  0.47869000  0.24360000  1.0 -0.5755844787
O  O5  1  0.52131000  0.76491000  0.95200000  1.0 -0.5755844787
O  O6  1  0.81291000  0.56931000  0.04800000  1.0 -0.5755844787
O  O7  1  0.76491000  0.81291000  0.24360000  1.0 -0.5755844787
O  O8  1  0.56931000  0.52131000  0.75640000  1.0 -0.5755844787
O  O9  1  0.47675000  0.15885000  0.04730000  1.0 -0.5106232893
O  O10  1  0.11155000  0.42945000  0.95270000  1.0 -0.5106232893
O  O11  1  0.15885000  0.11155000  0.68210000  1.0 -0.5106232893
O  O12  1  0.42945000  0.47675000  0.31790000  1.0 -0.5106232893
O  O13  1  0.52325000  0.84115000  0.95270000  1.0 -0.5106232893
O  O14  1  0.88845000  0.57055000  0.04730000  1.0 -0.5106232893
O  O15  1  0.84115000  0.88845000  0.31790000  1.0 -0.5106232893
O  O16  1  0.57055000  0.52325000  0.68210000  1.0 -0.5106232893
O  O17  1  0.49422000  0.40752000  0.29810000  1.0 -0.61105562
O  O18  1  0.10942000  0.19612000  0.70190000  1.0 -0.61105562
O  O19  1  0.40752000  0.10942000  0.91330000  1.0 -0.61105562
O  O20  1  0.19612000  0.49422000  0.08670000  1.0 -0.61105562
O  O21  1  0.50578000  0.59248000  0.70190000  1.0 -0.61105562
O  O22  1  0.89058000  0.80388000  0.29810000  1.0 -0.61105562
O  O23  1  0.59248000  0.89058000  0.08670000  1.0 -0.61105562
O  O24  1  0.80388000  0.50578000  0.91330000  1.0 -0.61105562
O  O25  1  0.49065000  0.40615000  0.21910000  1.0 -0.5328275897
O  O26  1  0.18705000  0.27155000  0.78090000  1.0 -0.5328275897
O  O27  1  0.40615000  0.18705000  0.91550000  1.0 -0.5328275897
O  O28  1  0.27155000  0.49065000  0.08450000  1.0 -0.5328275897
O  O29  1  0.50935000  0.59385000  0.78090000  1.0 -0.5328275897
O  O30  1  0.81295000  0.72845000  0.21910000  1.0 -0.5328275897
O  O31  1  0.59385000  0.81295000  0.08450000  1.0 -0.5328275897
O  O32  1  0.72845000  0.50935000  0.91550000  1.0 -0.5328275897
O  O33  1  0.49980000  0.89320000  0.09060000  1.0 -0.5633004978
O  O34  1  0.80260000  0.40920000  0.90940000  1.0 -0.5633004978
O  O35  1  0.89320000  0.80260000  0.39340000  1.0 -0.5633004978
O  O36  1  0.40920000  0.49980000  0.60660000  1.0 -0.5633004978
O  O37  1  0.50020000  0.10680000  0.90940000  1.0 -0.5633004978
O  O38  1  0.19740000  0.59080000  0.09060000  1.0 -0.5633004978
O  O39  1  0.10680000  0.19740000  0.60660000  1.0 -0.5633004978
O  O40  1  0.59080000  0.50020000  0.39340000  1.0 -0.5633004978
O  O41  1  0.49970000  0.81800000  0.09030000  1.0 -0.5106232893
O  O42  1  0.72770000  0.40940000  0.90970000  1.0 -0.5106232893
O  O43  1  0.81800000  0.72770000  0.31830000  1.0 -0.5106232893
O  O44  1  0.40940000  0.49970000  0.68170000  1.0 -0.5106232893
O  O45  1  0.50030000  0.18200000  0.90970000  1.0 -0.5106232893
O  O46  1  0.27230000  0.59060000  0.09030000  1.0 -0.5106232893
O  O47  1  0.18200000  0.27230000  0.68170000  1.0 -0.5106232893
O  O48  1  0.59060000  0.50030000  0.31830000  1.0 -0.5106232893
O  O49  1  0.47206000  0.42936000  0.58670000  1.0 -0.5679181144
O  O50  1  0.84266000  0.88536000  0.41330000  1.0 -0.5679181144
O  O51  1  0.42936000  0.84266000  0.95730000  1.0 -0.5679181144
O  O52  1  0.88536000  0.47206000  0.04270000  1.0 -0.5679181144
O  O53  1  0.52794000  0.57064000  0.41330000  1.0 -0.5679181144
O  O54  1  0.15734000  0.11464000  0.58670000  1.0 -0.5679181144
O  O55  1  0.57064000  0.15734000  0.04270000  1.0 -0.5679181144
O  O56  1  0.11464000  0.52794000  0.95730000  1.0 -0.5679181144
O  O57  1  0.47310000  0.43010000  0.66440000  1.0 -0.5512021929
O  O58  1  0.76570000  0.80870000  0.33560000  1.0 -0.5512021929
O  O59  1  0.43010000  0.76570000  0.95700000  1.0 -0.5512021929
O  O60  1  0.80870000  0.47310000  0.04300000  1.0 -0.5512021929
O  O61  1  0.52690000  0.56990000  0.33560000  1.0 -0.5512021929
O  O62  1  0.23430000  0.19130000  0.66440000  1.0 -0.5512021929
O  O63  1  0.56990000  0.23430000  0.04300000  1.0 -0.5512021929
O  O64  1  0.19130000  0.52690000  0.95700000  1.0 -0.5512021929
O  O65  1  0.46518000  0.18628000  0.58510000  1.0 -0.6644482091
O  O66  1  0.60118000  0.88008000  0.41490000  1.0 -0.6650798395
O  O67  1  0.18628000  0.60118000  0.72110000  1.0 -0.6650798395
O  O68  1  0.88008000  0.46518000  0.27890000  1.0 -0.6650798395
O  O69  1  0.53482000  0.81372000  0.41490000  1.0 -0.6650798395
O  O70  1  0.39882000  0.11992000  0.58510000  1.0 -0.6644482091
O  O71  1  0.81372000  0.39882000  0.27890000  1.0 -0.6644482091
O  O72  1  0.11992000  0.53482000  0.72110000  1.0 -0.6650798395
O  O73  1  0.46781000  0.26441000  0.66440000  1.0 -0.4828900322
O  O74  1  0.60001000  0.80341000  0.33560000  1.0 -0.4828900322
O  O75  1  0.26441000  0.60001000  0.79660000  1.0 -0.4828900322
O  O76  1  0.80341000  0.46781000  0.20340000  1.0 -0.4828900322
O  O77  1  0.53219000  0.73559000  0.33560000  1.0 -0.4828900322
O  O78  1  0.39999000  0.19659000  0.66440000  1.0 -0.4828900322
O  O79  1  0.73559000  0.39999000  0.20340000  1.0 -0.4828900322
O  O80  1  0.19659000  0.53219000  0.79660000  1.0 -0.4828900322
O  O81  1  0.50750000  0.89720000  0.33730000  1.0 -0.5995071903
O  O82  1  0.55990000  0.17020000  0.66270000  1.0 -0.5995071903
O  O83  1  0.89720000  0.55990000  0.38970000  1.0 -0.5995071903
O  O84  1  0.17020000  0.50750000  0.61030000  1.0 -0.5995071903
O  O85  1  0.49250000  0.10280000  0.66270000  1.0 -0.5995071903
O  O86  1  0.44010000  0.82980000  0.33730000  1.0 -0.5995071903
O  O87  1  0.10280000  0.44010000  0.61030000  1.0 -0.5995071903
O  O88  1  0.82980000  0.49250000  0.38970000  1.0 -0.5995071903
O  O89  1  0.50703000  0.82053000  0.26010000  1.0 -0.5328275897
O  O90  1  0.56043000  0.24693000  0.73990000  1.0 -0.5328275897
O  O91  1  0.82053000  0.56043000  0.31350000  1.0 -0.5328275897
O  O92  1  0.24693000  0.50703000  0.68650000  1.0 -0.5328275897
O  O93  1  0.49297000  0.17947000  0.73990000  1.0 -0.5328275897
O  O94  1  0.43957000  0.75307000  0.26010000  1.0 -0.5328275897
O  O95  1  0.17947000  0.43957000  0.68650000  1.0 -0.5328275897
O  O96  1  0.75307000  0.49297000  0.31350000  1.0 -0.5328275897
O  O97  1  0.47160000  0.07600000  0.53120000  1.0 -0.0199238369
O  O98  1  0.54480000  0.94040000  0.46880000  1.0 -0.0199238369
O  O99  1  0.07600000  0.54480000  0.60440000  1.0 -0.0199238369
O  O100  1  0.94040000  0.47160000  0.39560000  1.0 -0.0199238369
O  O101  1  0.52840000  0.92400000  0.46880000  1.0 -0.0199238369
O  O102  1  0.45520000  0.05960000  0.53120000  1.0 -0.0199238369
O  O103  1  0.92400000  0.45520000  0.39560000  1.0 -0.0199238369
O  O104  1  0.05960000  0.52840000  0.60440000  1.0 -0.0199238369
O  O105  1  0.42320000  0.22670000  0.42230000  1.0 -0.0513006668
O  O106  1  0.80440000  0.00090000  0.57770000  1.0 -0.0513006668
O  O107  1  0.22670000  0.80440000  0.80350000  1.0 -0.0513006668
O  O108  1  0.00090000  0.42320000  0.19650000  1.0 -0.0513006668
O  O109  1  0.57680000  0.77330000  0.57770000  1.0 -0.0513006668
O  O110  1  0.19560000  0.99910000  0.42230000  1.0 -0.0513006668
O  O111  1  0.77330000  0.19560000  0.19650000  1.0 -0.0513006668
O  O112  1  0.99910000  0.57680000  0.80350000  1.0 -0.0513006668
O  O113  1  0.43590000  0.19990000  0.20480000  1.0 -0.0602202467
O  O114  1  0.99510000  0.23110000  0.79520000  1.0 -0.0602202467
O  O115  1  0.19990000  0.99510000  0.76400000  1.0 -0.0602202467
O  O116  1  0.23110000  0.43590000  0.23600000  1.0 -0.0602202467
O  O117  1  0.56410000  0.80010000  0.79520000  1.0 -0.0602202467
O  O118  1  0.00490000  0.76890000  0.20480000  1.0 -0.0602202467
O  O119  1  0.80010000  0.00490000  0.23600000  1.0 -0.0602202467
O  O120  1  0.76890000  0.56410000  0.76400000  1.0 -0.0602202467
O  O121  1  0.45670000  0.01280000  0.25150000  1.0 -0.0602202467
O  O122  1  0.76130000  0.20520000  0.74850000  1.0 -0.0602202467
O  O123  1  0.01280000  0.76130000  0.55610000  1.0 -0.0602202467
O  O124  1  0.20520000  0.45670000  0.44390000  1.0 -0.0602202467
O  O125  1  0.54330000  0.98720000  0.74850000  1.0 -0.0602202467
O  O126  1  0.23870000  0.79480000  0.25150000  1.0 -0.0602202467
O  O127  1  0.98720000  0.23870000  0.44390000  1.0 -0.0602202467
O  O128  1  0.79480000  0.54330000  0.55610000  1.0 -0.0602202467
O  O129  1  0.79720000  0.01500000  0.55700000  1.0 -0.1008222613
O  O130  1  0.45800000  0.24020000  0.44300000  1.0 -0.1008222613
O  O131  1  0.01500000  0.45800000  0.21780000  1.0 -0.1008222613
O  O132  1  0.24020000  0.79720000  0.78220000  1.0 -0.1008222613
O  O133  1  0.20280000  0.98500000  0.44300000  1.0 -0.1008222613
O  O134  1  0.54200000  0.75980000  0.55700000  1.0 -0.1008222613
O  O135  1  0.98500000  0.54200000  0.78220000  1.0 -0.1008222613
O  O136  1  0.75980000  0.20280000  0.21780000  1.0 -0.1008222613
O  O137  1  0.97970000  0.24340000  0.76810000  1.0 -0.0698244186
O  O138  1  0.47530000  0.21160000  0.23190000  1.0 -0.0698244186
O  O139  1  0.24340000  0.47530000  0.26370000  1.0 -0.0698244186
O  O140  1  0.21160000  0.97970000  0.73630000  1.0 -0.0698244186
O  O141  1  0.02030000  0.75660000  0.23190000  1.0 -0.0698244186
O  O142  1  0.52470000  0.78840000  0.76810000  1.0 -0.0698244186
O  O143  1  0.75660000  0.52470000  0.73630000  1.0 -0.0698244186
O  O144  1  0.78840000  0.02030000  0.26370000  1.0 -0.0698244186
O  O145  1  0.75010000  0.21880000  0.72050000  1.0 -0.0889839225
O  O146  1  0.49830000  0.02960000  0.27950000  1.0 -0.0889839225
O  O147  1  0.21880000  0.49830000  0.46870000  1.0 -0.0889839225
O  O148  1  0.02960000  0.75010000  0.53130000  1.0 -0.0889839225
O  O149  1  0.24990000  0.78120000  0.27950000  1.0 -0.0889839225
O  O150  1  0.50170000  0.97040000  0.72050000  1.0 -0.0889839225
O  O151  1  0.78120000  0.50170000  0.53130000  1.0 -0.0889839225
O  O152  1  0.97040000  0.24990000  0.46870000  1.0 -0.0889839225
