# DDEC6 charges by PACMAN v1.1 (https://github.com/mtap-research/PACMAN-charge/)
data_ADASEF_ASR_pacman
_symmetry_space_group_name_H-M   'P 1'
_cell_length_a   38.45940000
_cell_length_b   38.45940000
_cell_length_c   38.45940000
_cell_angle_alpha   60.00000000
_cell_angle_beta   60.00000000
_cell_angle_gamma   60.00000000
_symmetry_Int_Tables_number   1
_chemical_formula_structural   Cu6H21C45N12O13
_chemical_formula_sum   'Cu48 H168 C360 N96 O104'
_cell_volume   40224.67241313
_cell_formula_units_Z   8
loop_
 _symmetry_equiv_pos_site_id
 _symmetry_equiv_pos_as_xyz
  1  'x, y, z'
loop_
 _atom_site_type_symbol
 _atom_site_label
 _atom_site_symmetry_multiplicity
 _atom_site_fract_x
 _atom_site_fract_y
 _atom_site_fract_z
 _atom_site_occupancy
 _atom_site_charge
Cu  Cu1  1  0.00000000  0.27506000  0.00000000  1.0 0.9222371573
Cu  Cu2  1  0.72494000  0.00000000  0.27506000  1.0 0.9222371573
Cu  Cu3  1  0.27506000  0.00000000  0.72494000  1.0 0.9222371573
Cu  Cu4  1  0.00000000  0.72494000  0.00000000  1.0 0.9222371573
Cu  Cu5  1  0.27506000  0.00000000  0.00000000  1.0 0.9222371573
Cu  Cu6  1  0.00000000  0.72494000  0.27506000  1.0 0.9222371573
Cu  Cu7  1  0.00000000  0.27506000  0.72494000  1.0 0.9222371573
Cu  Cu8  1  0.72494000  0.00000000  0.00000000  1.0 0.9222371573
Cu  Cu9  1  0.00000000  0.00000000  0.27506000  1.0 0.9222371573
Cu  Cu10  1  0.27506000  0.72494000  0.00000000  1.0 0.9222371573
Cu  Cu11  1  0.00000000  0.00000000  0.72494000  1.0 0.9222371573
Cu  Cu12  1  0.72494000  0.27506000  0.00000000  1.0 0.9222371573
Cu  Cu13  1  0.00000000  0.20548000  0.00000000  1.0 1.0039593275
Cu  Cu14  1  0.79452000  0.00000000  0.20548000  1.0 1.0039593275
Cu  Cu15  1  0.20548000  0.00000000  0.79452000  1.0 1.0060749744
Cu  Cu16  1  0.00000000  0.79452000  0.00000000  1.0 1.0039593275
Cu  Cu17  1  0.20548000  0.00000000  0.00000000  1.0 1.0060749744
Cu  Cu18  1  0.00000000  0.79452000  0.20548000  1.0 1.0060749744
Cu  Cu19  1  0.00000000  0.20548000  0.79452000  1.0 1.0060749744
Cu  Cu20  1  0.79452000  0.00000000  0.00000000  1.0 1.0039593275
Cu  Cu21  1  0.00000000  0.00000000  0.20548000  1.0 1.0060749744
Cu  Cu22  1  0.20548000  0.79452000  0.00000000  1.0 1.0039593275
Cu  Cu23  1  0.00000000  0.00000000  0.79452000  1.0 1.0060749744
Cu  Cu24  1  0.79452000  0.20548000  0.00000000  1.0 1.0039593275
Cu  Cu25  1  0.69180000  0.60990000  0.08840000  1.0 0.5031018019
Cu  Cu26  1  0.60990000  0.08840000  0.60990000  1.0 0.4888963746
Cu  Cu27  1  0.60990000  0.69180000  0.60990000  1.0 0.4888963746
Cu  Cu28  1  0.08840000  0.60990000  0.69180000  1.0 0.4888963746
Cu  Cu29  1  0.39010000  0.91160000  0.30820000  1.0 0.4888963746
Cu  Cu30  1  0.30820000  0.39010000  0.39010000  1.0 0.4888963746
Cu  Cu31  1  0.91160000  0.39010000  0.39010000  1.0 0.4888963746
Cu  Cu32  1  0.39010000  0.30820000  0.91160000  1.0 0.5031018019
Cu  Cu33  1  0.60990000  0.08840000  0.69180000  1.0 0.4888963746
Cu  Cu34  1  0.08840000  0.60990000  0.60990000  1.0 0.4888963746
Cu  Cu35  1  0.60990000  0.69180000  0.08840000  1.0 0.4888963746
Cu  Cu36  1  0.69180000  0.60990000  0.60990000  1.0 0.4888963746
Cu  Cu37  1  0.39010000  0.30820000  0.39010000  1.0 0.4888963746
Cu  Cu38  1  0.91160000  0.39010000  0.30820000  1.0 0.4888963746
Cu  Cu39  1  0.30820000  0.39010000  0.91160000  1.0 0.5031018019
Cu  Cu40  1  0.39010000  0.91160000  0.39010000  1.0 0.4888963746
Cu  Cu41  1  0.08840000  0.69180000  0.60990000  1.0 0.4829507565
Cu  Cu42  1  0.60990000  0.60990000  0.08840000  1.0 0.4888963746
Cu  Cu43  1  0.69180000  0.08840000  0.60990000  1.0 0.4829507565
Cu  Cu44  1  0.60990000  0.60990000  0.69180000  1.0 0.4888963746
Cu  Cu45  1  0.30820000  0.91160000  0.39010000  1.0 0.4888963746
Cu  Cu46  1  0.39010000  0.39010000  0.91160000  1.0 0.4888963746
Cu  Cu47  1  0.39010000  0.39010000  0.30820000  1.0 0.4888963746
Cu  Cu48  1  0.91160000  0.30820000  0.39010000  1.0 0.4888963746
H  H1  1  0.86870000  0.24690000  0.01570000  1.0 0.1310062407
H  H2  1  0.86870000  0.01570000  0.24690000  1.0 0.1310062407
H  H3  1  0.24690000  0.86870000  0.86870000  1.0 0.1310062407
H  H4  1  0.01570000  0.86870000  0.86870000  1.0 0.1310062407
H  H5  1  0.13130000  0.98430000  0.13130000  1.0 0.1310062407
H  H6  1  0.13130000  0.75310000  0.13130000  1.0 0.1310062407
H  H7  1  0.98430000  0.13130000  0.75310000  1.0 0.1310062407
H  H8  1  0.75310000  0.13130000  0.98430000  1.0 0.1310062407
H  H9  1  0.24690000  0.01570000  0.86870000  1.0 0.1310062407
H  H10  1  0.01570000  0.24690000  0.86870000  1.0 0.1310062407
H  H11  1  0.86870000  0.86870000  0.01570000  1.0 0.1310062407
H  H12  1  0.86870000  0.86870000  0.24690000  1.0 0.1310062407
H  H13  1  0.13130000  0.13130000  0.75310000  1.0 0.1310062407
H  H14  1  0.98430000  0.75310000  0.13130000  1.0 0.1310062407
H  H15  1  0.13130000  0.13130000  0.98430000  1.0 0.1310062407
H  H16  1  0.75310000  0.98430000  0.13130000  1.0 0.1310062407
H  H17  1  0.01570000  0.86870000  0.24690000  1.0 0.1310062407
H  H18  1  0.24690000  0.86870000  0.01570000  1.0 0.1310062407
H  H19  1  0.86870000  0.01570000  0.86870000  1.0 0.1310062407
H  H20  1  0.86870000  0.24690000  0.86870000  1.0 0.1310062407
H  H21  1  0.13130000  0.98430000  0.75310000  1.0 0.1310062407
H  H22  1  0.13130000  0.75310000  0.98430000  1.0 0.1310062407
H  H23  1  0.75310000  0.13130000  0.13130000  1.0 0.1310062407
H  H24  1  0.98430000  0.13130000  0.13130000  1.0 0.1310062407
H  H25  1  0.86600000  0.34580000  0.02780000  1.0 0.122127989
H  H26  1  0.76040000  0.02780000  0.34580000  1.0 0.122127989
H  H27  1  0.34580000  0.86600000  0.76040000  1.0 0.122127989
H  H28  1  0.02780000  0.76040000  0.86600000  1.0 0.122127989
H  H29  1  0.23960000  0.97220000  0.13400000  1.0 0.122127989
H  H30  1  0.13400000  0.65420000  0.23960000  1.0 0.122127989
H  H31  1  0.97220000  0.23960000  0.65420000  1.0 0.122127989
H  H32  1  0.65420000  0.13400000  0.97220000  1.0 0.122127989
H  H33  1  0.34580000  0.02780000  0.86600000  1.0 0.122127989
H  H34  1  0.02780000  0.34580000  0.76040000  1.0 0.122127989
H  H35  1  0.76040000  0.86600000  0.02780000  1.0 0.122127989
H  H36  1  0.86600000  0.76040000  0.34580000  1.0 0.122127989
H  H37  1  0.23960000  0.13400000  0.65420000  1.0 0.122127989
H  H38  1  0.97220000  0.65420000  0.13400000  1.0 0.122127989
H  H39  1  0.13400000  0.23960000  0.97220000  1.0 0.122127989
H  H40  1  0.65420000  0.97220000  0.23960000  1.0 0.122127989
H  H41  1  0.02780000  0.86600000  0.34580000  1.0 0.122127989
H  H42  1  0.34580000  0.76040000  0.02780000  1.0 0.122127989
H  H43  1  0.86600000  0.02780000  0.76040000  1.0 0.122127989
H  H44  1  0.76040000  0.34580000  0.86600000  1.0 0.122127989
H  H45  1  0.13400000  0.97220000  0.65420000  1.0 0.122127989
H  H46  1  0.23960000  0.65420000  0.97220000  1.0 0.122127989
H  H47  1  0.65420000  0.23960000  0.13400000  1.0 0.122127989
H  H48  1  0.97220000  0.13400000  0.23960000  1.0 0.122127989
H  H49  1  0.13400000  0.65420000  0.97220000  1.0 0.122127989
H  H50  1  0.23960000  0.97220000  0.65420000  1.0 0.122127989
H  H51  1  0.65420000  0.13400000  0.23960000  1.0 0.122127989
H  H52  1  0.97220000  0.23960000  0.13400000  1.0 0.122127989
H  H53  1  0.76040000  0.02780000  0.86600000  1.0 0.122127989
H  H54  1  0.86600000  0.34580000  0.76040000  1.0 0.122127989
H  H55  1  0.02780000  0.76040000  0.34580000  1.0 0.122127989
H  H56  1  0.34580000  0.86600000  0.02780000  1.0 0.122127989
H  H57  1  0.65420000  0.97220000  0.13400000  1.0 0.122127989
H  H58  1  0.97220000  0.65420000  0.23960000  1.0 0.122127989
H  H59  1  0.23960000  0.13400000  0.97220000  1.0 0.122127989
H  H60  1  0.13400000  0.23960000  0.65420000  1.0 0.122127989
H  H61  1  0.76040000  0.86600000  0.34580000  1.0 0.122127989
H  H62  1  0.02780000  0.34580000  0.86600000  1.0 0.122127989
H  H63  1  0.86600000  0.76040000  0.02780000  1.0 0.122127989
H  H64  1  0.34580000  0.02780000  0.76040000  1.0 0.122127989
H  H65  1  0.97220000  0.13400000  0.65420000  1.0 0.122127989
H  H66  1  0.65420000  0.23960000  0.97220000  1.0 0.122127989
H  H67  1  0.13400000  0.97220000  0.23960000  1.0 0.122127989
H  H68  1  0.23960000  0.65420000  0.13400000  1.0 0.122127989
H  H69  1  0.86600000  0.02780000  0.34580000  1.0 0.122127989
H  H70  1  0.76040000  0.34580000  0.02780000  1.0 0.122127989
H  H71  1  0.34580000  0.76040000  0.86600000  1.0 0.122127989
H  H72  1  0.02780000  0.86600000  0.76040000  1.0 0.122127989
H  H73  1  0.79170000  0.45770000  0.06290000  1.0 0.122127989
H  H74  1  0.68770000  0.06290000  0.45770000  1.0 0.122127989
H  H75  1  0.45770000  0.79170000  0.68770000  1.0 0.122127989
H  H76  1  0.06290000  0.68770000  0.79170000  1.0 0.122127989
H  H77  1  0.31230000  0.93710000  0.20830000  1.0 0.122127989
H  H78  1  0.20830000  0.54230000  0.31230000  1.0 0.122127989
H  H79  1  0.93710000  0.31230000  0.54230000  1.0 0.122127989
H  H80  1  0.54230000  0.20830000  0.93710000  1.0 0.122127989
H  H81  1  0.45770000  0.06290000  0.79170000  1.0 0.122127989
H  H82  1  0.06290000  0.45770000  0.68770000  1.0 0.122127989
H  H83  1  0.68770000  0.79170000  0.06290000  1.0 0.122127989
H  H84  1  0.79170000  0.68770000  0.45770000  1.0 0.122127989
H  H85  1  0.31230000  0.20830000  0.54230000  1.0 0.122127989
H  H86  1  0.93710000  0.54230000  0.20830000  1.0 0.122127989
H  H87  1  0.20830000  0.31230000  0.93710000  1.0 0.122127989
H  H88  1  0.54230000  0.93710000  0.31230000  1.0 0.122127989
H  H89  1  0.06290000  0.79170000  0.45770000  1.0 0.122127989
H  H90  1  0.45770000  0.68770000  0.06290000  1.0 0.122127989
H  H91  1  0.79170000  0.06290000  0.68770000  1.0 0.122127989
H  H92  1  0.68770000  0.45770000  0.79170000  1.0 0.122127989
H  H93  1  0.20830000  0.93710000  0.54230000  1.0 0.122127989
H  H94  1  0.31230000  0.54230000  0.93710000  1.0 0.122127989
H  H95  1  0.54230000  0.31230000  0.20830000  1.0 0.122127989
H  H96  1  0.93710000  0.20830000  0.31230000  1.0 0.122127989
H  H97  1  0.20830000  0.54230000  0.93710000  1.0 0.122127989
H  H98  1  0.31230000  0.93710000  0.54230000  1.0 0.122127989
H  H99  1  0.54230000  0.20830000  0.31230000  1.0 0.122127989
H  H100  1  0.93710000  0.31230000  0.20830000  1.0 0.122127989
H  H101  1  0.68770000  0.06290000  0.79170000  1.0 0.122127989
H  H102  1  0.79170000  0.45770000  0.68770000  1.0 0.122127989
H  H103  1  0.06290000  0.68770000  0.45770000  1.0 0.122127989
H  H104  1  0.45770000  0.79170000  0.06290000  1.0 0.122127989
H  H105  1  0.54230000  0.93710000  0.20830000  1.0 0.122127989
H  H106  1  0.93710000  0.54230000  0.31230000  1.0 0.122127989
H  H107  1  0.31230000  0.20830000  0.93710000  1.0 0.122127989
H  H108  1  0.20830000  0.31230000  0.54230000  1.0 0.122127989
H  H109  1  0.68770000  0.79170000  0.45770000  1.0 0.122127989
H  H110  1  0.06290000  0.45770000  0.79170000  1.0 0.122127989
H  H111  1  0.79170000  0.68770000  0.06290000  1.0 0.122127989
H  H112  1  0.45770000  0.06290000  0.68770000  1.0 0.122127989
H  H113  1  0.93710000  0.20830000  0.54230000  1.0 0.122127989
H  H114  1  0.54230000  0.31230000  0.93710000  1.0 0.122127989
H  H115  1  0.20830000  0.93710000  0.31230000  1.0 0.122127989
H  H116  1  0.31230000  0.54230000  0.20830000  1.0 0.122127989
H  H117  1  0.79170000  0.06290000  0.45770000  1.0 0.122127989
H  H118  1  0.68770000  0.45770000  0.06290000  1.0 0.122127989
H  H119  1  0.45770000  0.68770000  0.79170000  1.0 0.122127989
H  H120  1  0.06290000  0.79170000  0.68770000  1.0 0.122127989
H  H121  1  0.83280000  0.39880000  0.04140000  1.0 0.1310062407
H  H122  1  0.72700000  0.04140000  0.39880000  1.0 0.1310062407
H  H123  1  0.39880000  0.83280000  0.72700000  1.0 0.1310062407
H  H124  1  0.04140000  0.72700000  0.83280000  1.0 0.1310062407
H  H125  1  0.27300000  0.95860000  0.16720000  1.0 0.1310062407
H  H126  1  0.16720000  0.60120000  0.27300000  1.0 0.1310062407
H  H127  1  0.95860000  0.27300000  0.60120000  1.0 0.1310062407
H  H128  1  0.60120000  0.16720000  0.95860000  1.0 0.1310062407
H  H129  1  0.39880000  0.04140000  0.83280000  1.0 0.1310062407
H  H130  1  0.04140000  0.39880000  0.72700000  1.0 0.1310062407
H  H131  1  0.72700000  0.83280000  0.04140000  1.0 0.1310062407
H  H132  1  0.83280000  0.72700000  0.39880000  1.0 0.1310062407
H  H133  1  0.27300000  0.16720000  0.60120000  1.0 0.1310062407
H  H134  1  0.95860000  0.60120000  0.16720000  1.0 0.1310062407
H  H135  1  0.16720000  0.27300000  0.95860000  1.0 0.1310062407
H  H136  1  0.60120000  0.95860000  0.27300000  1.0 0.1310062407
H  H137  1  0.04140000  0.83280000  0.39880000  1.0 0.1310062407
H  H138  1  0.39880000  0.72700000  0.04140000  1.0 0.1310062407
H  H139  1  0.83280000  0.04140000  0.72700000  1.0 0.1310062407
H  H140  1  0.72700000  0.39880000  0.83280000  1.0 0.1310062407
H  H141  1  0.16720000  0.95860000  0.60120000  1.0 0.1310062407
H  H142  1  0.27300000  0.60120000  0.95860000  1.0 0.1310062407
H  H143  1  0.60120000  0.27300000  0.16720000  1.0 0.1310062407
H  H144  1  0.95860000  0.16720000  0.27300000  1.0 0.1310062407
H  H145  1  0.16720000  0.60120000  0.95860000  1.0 0.1310062407
H  H146  1  0.27300000  0.95860000  0.60120000  1.0 0.1310062407
H  H147  1  0.60120000  0.16720000  0.27300000  1.0 0.1310062407
H  H148  1  0.95860000  0.27300000  0.16720000  1.0 0.1310062407
H  H149  1  0.72700000  0.04140000  0.83280000  1.0 0.1310062407
H  H150  1  0.83280000  0.39880000  0.72700000  1.0 0.1310062407
H  H151  1  0.04140000  0.72700000  0.39880000  1.0 0.1310062407
H  H152  1  0.39880000  0.83280000  0.04140000  1.0 0.1310062407
H  H153  1  0.60120000  0.95860000  0.16720000  1.0 0.1310062407
H  H154  1  0.95860000  0.60120000  0.27300000  1.0 0.1310062407
H  H155  1  0.27300000  0.16720000  0.95860000  1.0 0.1310062407
H  H156  1  0.16720000  0.27300000  0.60120000  1.0 0.1310062407
H  H157  1  0.72700000  0.83280000  0.39880000  1.0 0.1310062407
H  H158  1  0.04140000  0.39880000  0.83280000  1.0 0.1310062407
H  H159  1  0.83280000  0.72700000  0.04140000  1.0 0.1310062407
H  H160  1  0.39880000  0.04140000  0.72700000  1.0 0.1310062407
H  H161  1  0.95860000  0.16720000  0.60120000  1.0 0.1310062407
H  H162  1  0.60120000  0.27300000  0.95860000  1.0 0.1310062407
H  H163  1  0.16720000  0.95860000  0.27300000  1.0 0.1310062407
H  H164  1  0.27300000  0.60120000  0.16720000  1.0 0.1310062407
H  H165  1  0.83280000  0.04140000  0.39880000  1.0 0.1310062407
H  H166  1  0.72700000  0.39880000  0.04140000  1.0 0.1310062407
H  H167  1  0.39880000  0.72700000  0.83280000  1.0 0.1310062407
H  H168  1  0.04140000  0.83280000  0.72700000  1.0 0.1310062407
C  C1  1  0.87402000  0.29302000  0.02138000  1.0 -0.0535869789
C  C2  1  0.81158000  0.02138000  0.29302000  1.0 -0.0535869789
C  C3  1  0.29302000  0.87402000  0.81158000  1.0 -0.0535869789
C  C4  1  0.02138000  0.81158000  0.87402000  1.0 -0.0535869789
C  C5  1  0.18842000  0.97862000  0.12598000  1.0 -0.0535869789
C  C6  1  0.12598000  0.70698000  0.18842000  1.0 -0.0535869789
C  C7  1  0.97862000  0.18842000  0.70698000  1.0 -0.0566949125
C  C8  1  0.70698000  0.12598000  0.97862000  1.0 -0.0535869789
C  C9  1  0.29302000  0.02138000  0.87402000  1.0 -0.0535869789
C  C10  1  0.02138000  0.29302000  0.81158000  1.0 -0.0566949125
C  C11  1  0.81158000  0.87402000  0.02138000  1.0 -0.0535869789
C  C12  1  0.87402000  0.81158000  0.29302000  1.0 -0.0535869789
C  C13  1  0.18842000  0.12598000  0.70698000  1.0 -0.0566949125
C  C14  1  0.97862000  0.70698000  0.12598000  1.0 -0.0535869789
C  C15  1  0.12598000  0.18842000  0.97862000  1.0 -0.0535869789
C  C16  1  0.70698000  0.97862000  0.18842000  1.0 -0.0535869789
C  C17  1  0.02138000  0.87402000  0.29302000  1.0 -0.0535869789
C  C18  1  0.29302000  0.81158000  0.02138000  1.0 -0.0535869789
C  C19  1  0.87402000  0.02138000  0.81158000  1.0 -0.0566949125
C  C20  1  0.81158000  0.29302000  0.87402000  1.0 -0.0535869789
C  C21  1  0.12598000  0.97862000  0.70698000  1.0 -0.0535869789
C  C22  1  0.18842000  0.70698000  0.97862000  1.0 -0.0566949125
C  C23  1  0.70698000  0.18842000  0.12598000  1.0 -0.0535869789
C  C24  1  0.97862000  0.12598000  0.18842000  1.0 -0.0535869789
C  C25  1  0.12598000  0.70698000  0.97862000  1.0 -0.0566949125
C  C26  1  0.18842000  0.97862000  0.70698000  1.0 -0.0535869789
C  C27  1  0.70698000  0.12598000  0.18842000  1.0 -0.0535869789
C  C28  1  0.97862000  0.18842000  0.12598000  1.0 -0.0535869789
C  C29  1  0.81158000  0.02138000  0.87402000  1.0 -0.0535869789
C  C30  1  0.87402000  0.29302000  0.81158000  1.0 -0.0566949125
C  C31  1  0.02138000  0.81158000  0.29302000  1.0 -0.0535869789
C  C32  1  0.29302000  0.87402000  0.02138000  1.0 -0.0535869789
C  C33  1  0.70698000  0.97862000  0.12598000  1.0 -0.0535869789
C  C34  1  0.97862000  0.70698000  0.18842000  1.0 -0.0535869789
C  C35  1  0.18842000  0.12598000  0.97862000  1.0 -0.0566949125
C  C36  1  0.12598000  0.18842000  0.70698000  1.0 -0.0566949125
C  C37  1  0.81158000  0.87402000  0.29302000  1.0 -0.0535869789
C  C38  1  0.02138000  0.29302000  0.87402000  1.0 -0.0535869789
C  C39  1  0.87402000  0.81158000  0.02138000  1.0 -0.0535869789
C  C40  1  0.29302000  0.02138000  0.81158000  1.0 -0.0535869789
C  C41  1  0.97862000  0.12598000  0.70698000  1.0 -0.0535869789
C  C42  1  0.70698000  0.18842000  0.97862000  1.0 -0.0566949125
C  C43  1  0.12598000  0.97862000  0.18842000  1.0 -0.0535869789
C  C44  1  0.18842000  0.70698000  0.12598000  1.0 -0.0535869789
C  C45  1  0.87402000  0.02138000  0.29302000  1.0 -0.0535869789
C  C46  1  0.81158000  0.29302000  0.02138000  1.0 -0.0535869789
C  C47  1  0.29302000  0.81158000  0.87402000  1.0 -0.0535869789
C  C48  1  0.02138000  0.87402000  0.81158000  1.0 -0.0535869789
C  C49  1  0.85340000  0.27400000  0.01920000  1.0 -0.0566949125
C  C50  1  0.85340000  0.01920000  0.27400000  1.0 -0.0566949125
C  C51  1  0.27400000  0.85340000  0.85340000  1.0 -0.0566949125
C  C52  1  0.01920000  0.85340000  0.85340000  1.0 -0.0566949125
C  C53  1  0.14660000  0.98080000  0.14660000  1.0 -0.0566949125
C  C54  1  0.14660000  0.72600000  0.14660000  1.0 -0.0566949125
C  C55  1  0.98080000  0.14660000  0.72600000  1.0 -0.0566949125
C  C56  1  0.72600000  0.14660000  0.98080000  1.0 -0.0566949125
C  C57  1  0.27400000  0.01920000  0.85340000  1.0 -0.0566949125
C  C58  1  0.01920000  0.27400000  0.85340000  1.0 -0.0566949125
C  C59  1  0.85340000  0.85340000  0.01920000  1.0 -0.0566949125
C  C60  1  0.85340000  0.85340000  0.27400000  1.0 -0.0566949125
C  C61  1  0.14660000  0.14660000  0.72600000  1.0 -0.0566949125
C  C62  1  0.98080000  0.72600000  0.14660000  1.0 -0.0566949125
C  C63  1  0.14660000  0.14660000  0.98080000  1.0 -0.0566949125
C  C64  1  0.72600000  0.98080000  0.14660000  1.0 -0.0566949125
C  C65  1  0.01920000  0.85340000  0.27400000  1.0 -0.0566949125
C  C66  1  0.27400000  0.85340000  0.01920000  1.0 -0.0566949125
C  C67  1  0.85340000  0.01920000  0.85340000  1.0 -0.0566949125
C  C68  1  0.85340000  0.27400000  0.85340000  1.0 -0.0566949125
C  C69  1  0.14660000  0.98080000  0.72600000  1.0 -0.0566949125
C  C70  1  0.14660000  0.72600000  0.98080000  1.0 -0.0566949125
C  C71  1  0.72600000  0.14660000  0.14660000  1.0 -0.0566949125
C  C72  1  0.98080000  0.14660000  0.14660000  1.0 -0.0566949125
C  C73  1  0.85223000  0.33229000  0.02611000  1.0 -0.1111795463
C  C74  1  0.78937000  0.02611000  0.33229000  1.0 -0.1111795463
C  C75  1  0.33229000  0.85223000  0.78937000  1.0 -0.1111795463
C  C76  1  0.02611000  0.78937000  0.85223000  1.0 -0.1111795463
C  C77  1  0.21063000  0.97389000  0.14777000  1.0 -0.1111795463
C  C78  1  0.14777000  0.66771000  0.21063000  1.0 -0.1111795463
C  C79  1  0.97389000  0.21063000  0.66771000  1.0 -0.1111795463
C  C80  1  0.66771000  0.14777000  0.97389000  1.0 -0.1111795463
C  C81  1  0.33229000  0.02611000  0.85223000  1.0 -0.1111795463
C  C82  1  0.02611000  0.33229000  0.78937000  1.0 -0.1111795463
C  C83  1  0.78937000  0.85223000  0.02611000  1.0 -0.1111795463
C  C84  1  0.85223000  0.78937000  0.33229000  1.0 -0.1111795463
C  C85  1  0.21063000  0.14777000  0.66771000  1.0 -0.1111795463
C  C86  1  0.97389000  0.66771000  0.14777000  1.0 -0.1111795463
C  C87  1  0.14777000  0.21063000  0.97389000  1.0 -0.1111795463
C  C88  1  0.66771000  0.97389000  0.21063000  1.0 -0.1111795463
C  C89  1  0.02611000  0.85223000  0.33229000  1.0 -0.1111795463
C  C90  1  0.33229000  0.78937000  0.02611000  1.0 -0.1111795463
C  C91  1  0.85223000  0.02611000  0.78937000  1.0 -0.1111795463
C  C92  1  0.78937000  0.33229000  0.85223000  1.0 -0.1111795463
C  C93  1  0.14777000  0.97389000  0.66771000  1.0 -0.1111795463
C  C94  1  0.21063000  0.66771000  0.97389000  1.0 -0.1111795463
C  C95  1  0.66771000  0.21063000  0.14777000  1.0 -0.1111795463
C  C96  1  0.97389000  0.14777000  0.21063000  1.0 -0.1111795463
C  C97  1  0.14777000  0.66771000  0.97389000  1.0 -0.1111795463
C  C98  1  0.21063000  0.97389000  0.66771000  1.0 -0.1111795463
C  C99  1  0.66771000  0.14777000  0.21063000  1.0 -0.1111795463
C  C100  1  0.97389000  0.21063000  0.14777000  1.0 -0.1111795463
C  C101  1  0.78937000  0.02611000  0.85223000  1.0 -0.1111795463
C  C102  1  0.85223000  0.33229000  0.78937000  1.0 -0.1111795463
C  C103  1  0.02611000  0.78937000  0.33229000  1.0 -0.1111795463
C  C104  1  0.33229000  0.85223000  0.02611000  1.0 -0.1111795463
C  C105  1  0.66771000  0.97389000  0.14777000  1.0 -0.1111795463
C  C106  1  0.97389000  0.66771000  0.21063000  1.0 -0.1111795463
C  C107  1  0.21063000  0.14777000  0.97389000  1.0 -0.1111795463
C  C108  1  0.14777000  0.21063000  0.66771000  1.0 -0.1111795463
C  C109  1  0.78937000  0.85223000  0.33229000  1.0 -0.1111795463
C  C110  1  0.02611000  0.33229000  0.85223000  1.0 -0.1111795463
C  C111  1  0.85223000  0.78937000  0.02611000  1.0 -0.1111795463
C  C112  1  0.33229000  0.02611000  0.78937000  1.0 -0.1111795463
C  C113  1  0.97389000  0.14777000  0.66771000  1.0 -0.1111795463
C  C114  1  0.66771000  0.21063000  0.97389000  1.0 -0.1111795463
C  C115  1  0.14777000  0.97389000  0.21063000  1.0 -0.1111795463
C  C116  1  0.21063000  0.66771000  0.14777000  1.0 -0.1111795463
C  C117  1  0.85223000  0.02611000  0.33229000  1.0 -0.1111795463
C  C118  1  0.78937000  0.33229000  0.02611000  1.0 -0.1111795463
C  C119  1  0.33229000  0.78937000  0.85223000  1.0 -0.1111795463
C  C120  1  0.02611000  0.85223000  0.78937000  1.0 -0.1111795463
C  C121  1  0.91610000  0.27370000  0.01750000  1.0 0.5031018019
C  C122  1  0.79270000  0.01750000  0.27370000  1.0 0.5031018019
C  C123  1  0.27370000  0.91610000  0.79270000  1.0 0.5031018019
C  C124  1  0.01750000  0.79270000  0.91610000  1.0 0.5031018019
C  C125  1  0.20730000  0.98250000  0.08390000  1.0 0.5031018019
C  C126  1  0.08390000  0.72630000  0.20730000  1.0 0.5031018019
C  C127  1  0.98250000  0.20730000  0.72630000  1.0 0.5031018019
C  C128  1  0.72630000  0.08390000  0.98250000  1.0 0.5031018019
C  C129  1  0.27370000  0.01750000  0.91610000  1.0 0.5031018019
C  C130  1  0.01750000  0.27370000  0.79270000  1.0 0.5031018019
C  C131  1  0.79270000  0.91610000  0.01750000  1.0 0.5031018019
C  C132  1  0.91610000  0.79270000  0.27370000  1.0 0.5031018019
C  C133  1  0.20730000  0.08390000  0.72630000  1.0 0.5031018019
C  C134  1  0.98250000  0.72630000  0.08390000  1.0 0.5031018019
C  C135  1  0.08390000  0.20730000  0.98250000  1.0 0.5031018019
C  C136  1  0.72630000  0.98250000  0.20730000  1.0 0.5031018019
C  C137  1  0.01750000  0.91610000  0.27370000  1.0 0.5031018019
C  C138  1  0.27370000  0.79270000  0.01750000  1.0 0.5031018019
C  C139  1  0.91610000  0.01750000  0.79270000  1.0 0.5031018019
C  C140  1  0.79270000  0.27370000  0.91610000  1.0 0.5031018019
C  C141  1  0.08390000  0.98250000  0.72630000  1.0 0.5031018019
C  C142  1  0.20730000  0.72630000  0.98250000  1.0 0.5031018019
C  C143  1  0.72630000  0.20730000  0.08390000  1.0 0.5031018019
C  C144  1  0.98250000  0.08390000  0.20730000  1.0 0.5031018019
C  C145  1  0.08390000  0.72630000  0.98250000  1.0 0.5031018019
C  C146  1  0.20730000  0.98250000  0.72630000  1.0 0.5031018019
C  C147  1  0.72630000  0.08390000  0.20730000  1.0 0.5031018019
C  C148  1  0.98250000  0.20730000  0.08390000  1.0 0.5031018019
C  C149  1  0.79270000  0.01750000  0.91610000  1.0 0.5031018019
C  C150  1  0.91610000  0.27370000  0.79270000  1.0 0.5031018019
C  C151  1  0.01750000  0.79270000  0.27370000  1.0 0.5031018019
C  C152  1  0.27370000  0.91610000  0.01750000  1.0 0.5031018019
C  C153  1  0.72630000  0.98250000  0.08390000  1.0 0.5031018019
C  C154  1  0.98250000  0.72630000  0.20730000  1.0 0.5031018019
C  C155  1  0.20730000  0.08390000  0.98250000  1.0 0.5031018019
C  C156  1  0.08390000  0.20730000  0.72630000  1.0 0.5031018019
C  C157  1  0.79270000  0.91610000  0.27370000  1.0 0.5031018019
C  C158  1  0.01750000  0.27370000  0.91610000  1.0 0.5031018019
C  C159  1  0.91610000  0.79270000  0.01750000  1.0 0.5031018019
C  C160  1  0.27370000  0.01750000  0.79270000  1.0 0.5031018019
C  C161  1  0.98250000  0.08390000  0.72630000  1.0 0.5031018019
C  C162  1  0.72630000  0.20730000  0.98250000  1.0 0.5031018019
C  C163  1  0.08390000  0.98250000  0.20730000  1.0 0.5031018019
C  C164  1  0.20730000  0.72630000  0.08390000  1.0 0.5031018019
C  C165  1  0.91610000  0.01750000  0.27370000  1.0 0.5031018019
C  C166  1  0.79270000  0.27370000  0.01750000  1.0 0.5031018019
C  C167  1  0.27370000  0.79270000  0.91610000  1.0 0.5031018019
C  C168  1  0.01750000  0.91610000  0.79270000  1.0 0.5031018019
C  C169  1  0.77840000  0.44580000  0.05840000  1.0 -0.0917995088
C  C170  1  0.71740000  0.05840000  0.44580000  1.0 -0.0917995088
C  C171  1  0.44580000  0.77840000  0.71740000  1.0 -0.0917995088
C  C172  1  0.05840000  0.71740000  0.77840000  1.0 -0.0917995088
C  C173  1  0.28260000  0.94160000  0.22160000  1.0 -0.0917995088
C  C174  1  0.22160000  0.55420000  0.28260000  1.0 -0.0917995088
C  C175  1  0.94160000  0.28260000  0.55420000  1.0 -0.0917995088
C  C176  1  0.55420000  0.22160000  0.94160000  1.0 -0.0917995088
C  C177  1  0.44580000  0.05840000  0.77840000  1.0 -0.0917995088
C  C178  1  0.05840000  0.44580000  0.71740000  1.0 -0.0917995088
C  C179  1  0.71740000  0.77840000  0.05840000  1.0 -0.0917995088
C  C180  1  0.77840000  0.71740000  0.44580000  1.0 -0.0917995088
C  C181  1  0.28260000  0.22160000  0.55420000  1.0 -0.0917995088
C  C182  1  0.94160000  0.55420000  0.22160000  1.0 -0.0917995088
C  C183  1  0.22160000  0.28260000  0.94160000  1.0 -0.0917995088
C  C184  1  0.55420000  0.94160000  0.28260000  1.0 -0.0917995088
C  C185  1  0.05840000  0.77840000  0.44580000  1.0 -0.0917995088
C  C186  1  0.44580000  0.71740000  0.05840000  1.0 -0.0917995088
C  C187  1  0.77840000  0.05840000  0.71740000  1.0 -0.0917995088
C  C188  1  0.71740000  0.44580000  0.77840000  1.0 -0.0917995088
C  C189  1  0.22160000  0.94160000  0.55420000  1.0 -0.0917995088
C  C190  1  0.28260000  0.55420000  0.94160000  1.0 -0.0917995088
C  C191  1  0.55420000  0.28260000  0.22160000  1.0 -0.0917995088
C  C192  1  0.94160000  0.22160000  0.28260000  1.0 -0.0917995088
C  C193  1  0.22160000  0.55420000  0.94160000  1.0 -0.0917995088
C  C194  1  0.28260000  0.94160000  0.55420000  1.0 -0.0917995088
C  C195  1  0.55420000  0.22160000  0.28260000  1.0 -0.0917995088
C  C196  1  0.94160000  0.28260000  0.22160000  1.0 -0.0917995088
C  C197  1  0.71740000  0.05840000  0.77840000  1.0 -0.0917995088
C  C198  1  0.77840000  0.44580000  0.71740000  1.0 -0.0917995088
C  C199  1  0.05840000  0.71740000  0.44580000  1.0 -0.0917995088
C  C200  1  0.44580000  0.77840000  0.05840000  1.0 -0.0917995088
C  C201  1  0.55420000  0.94160000  0.22160000  1.0 -0.0917995088
C  C202  1  0.94160000  0.55420000  0.28260000  1.0 -0.0917995088
C  C203  1  0.28260000  0.22160000  0.94160000  1.0 -0.0917995088
C  C204  1  0.22160000  0.28260000  0.55420000  1.0 -0.0917995088
C  C205  1  0.71740000  0.77840000  0.44580000  1.0 -0.0917995088
C  C206  1  0.05840000  0.44580000  0.77840000  1.0 -0.0917995088
C  C207  1  0.77840000  0.71740000  0.05840000  1.0 -0.0917995088
C  C208  1  0.44580000  0.05840000  0.71740000  1.0 -0.0917995088
C  C209  1  0.94160000  0.22160000  0.55420000  1.0 -0.0917995088
C  C210  1  0.55420000  0.28260000  0.94160000  1.0 -0.0917995088
C  C211  1  0.22160000  0.94160000  0.28260000  1.0 -0.0917995088
C  C212  1  0.28260000  0.55420000  0.22160000  1.0 -0.0917995088
C  C213  1  0.77840000  0.05840000  0.44580000  1.0 -0.0917995088
C  C214  1  0.71740000  0.44580000  0.05840000  1.0 -0.0917995088
C  C215  1  0.44580000  0.71740000  0.77840000  1.0 -0.0917995088
C  C216  1  0.05840000  0.77840000  0.71740000  1.0 -0.0917995088
C  C217  1  0.80302000  0.41068000  0.04572000  1.0 -0.149759752
C  C218  1  0.74058000  0.04572000  0.41068000  1.0 -0.149759752
C  C219  1  0.41068000  0.80302000  0.74058000  1.0 -0.149759752
C  C220  1  0.04572000  0.74058000  0.80302000  1.0 -0.149759752
C  C221  1  0.25942000  0.95428000  0.19698000  1.0 -0.149759752
C  C222  1  0.19698000  0.58932000  0.25942000  1.0 -0.149759752
C  C223  1  0.95428000  0.25942000  0.58932000  1.0 -0.149759752
C  C224  1  0.58932000  0.19698000  0.95428000  1.0 -0.149759752
C  C225  1  0.41068000  0.04572000  0.80302000  1.0 -0.149759752
C  C226  1  0.04572000  0.41068000  0.74058000  1.0 -0.149759752
C  C227  1  0.74058000  0.80302000  0.04572000  1.0 -0.149759752
C  C228  1  0.80302000  0.74058000  0.41068000  1.0 -0.149759752
C  C229  1  0.25942000  0.19698000  0.58932000  1.0 -0.149759752
C  C230  1  0.95428000  0.58932000  0.19698000  1.0 -0.149759752
C  C231  1  0.19698000  0.25942000  0.95428000  1.0 -0.149759752
C  C232  1  0.58932000  0.95428000  0.25942000  1.0 -0.149759752
C  C233  1  0.04572000  0.80302000  0.41068000  1.0 -0.149759752
C  C234  1  0.41068000  0.74058000  0.04572000  1.0 -0.149759752
C  C235  1  0.80302000  0.04572000  0.74058000  1.0 -0.149759752
C  C236  1  0.74058000  0.41068000  0.80302000  1.0 -0.149759752
C  C237  1  0.19698000  0.95428000  0.58932000  1.0 -0.149759752
C  C238  1  0.25942000  0.58932000  0.95428000  1.0 -0.149759752
C  C239  1  0.58932000  0.25942000  0.19698000  1.0 -0.149759752
C  C240  1  0.95428000  0.19698000  0.25942000  1.0 -0.149759752
C  C241  1  0.19698000  0.58932000  0.95428000  1.0 -0.149759752
C  C242  1  0.25942000  0.95428000  0.58932000  1.0 -0.149759752
C  C243  1  0.58932000  0.19698000  0.25942000  1.0 -0.149759752
C  C244  1  0.95428000  0.25942000  0.19698000  1.0 -0.149759752
C  C245  1  0.74058000  0.04572000  0.80302000  1.0 -0.149759752
C  C246  1  0.80302000  0.41068000  0.74058000  1.0 -0.149759752
C  C247  1  0.04572000  0.74058000  0.41068000  1.0 -0.149759752
C  C248  1  0.41068000  0.80302000  0.04572000  1.0 -0.149759752
C  C249  1  0.58932000  0.95428000  0.19698000  1.0 -0.149759752
C  C250  1  0.95428000  0.58932000  0.25942000  1.0 -0.149759752
C  C251  1  0.25942000  0.19698000  0.95428000  1.0 -0.149759752
C  C252  1  0.19698000  0.25942000  0.58932000  1.0 -0.149759752
C  C253  1  0.74058000  0.80302000  0.41068000  1.0 -0.149759752
C  C254  1  0.04572000  0.41068000  0.80302000  1.0 -0.149759752
C  C255  1  0.80302000  0.74058000  0.04572000  1.0 -0.149759752
C  C256  1  0.41068000  0.04572000  0.74058000  1.0 -0.149759752
C  C257  1  0.95428000  0.19698000  0.58932000  1.0 -0.149759752
C  C258  1  0.58932000  0.25942000  0.95428000  1.0 -0.149759752
C  C259  1  0.19698000  0.95428000  0.25942000  1.0 -0.149759752
C  C260  1  0.25942000  0.58932000  0.19698000  1.0 -0.149759752
C  C261  1  0.80302000  0.04572000  0.41068000  1.0 -0.149759752
C  C262  1  0.74058000  0.41068000  0.04572000  1.0 -0.149759752
C  C263  1  0.41068000  0.74058000  0.80302000  1.0 -0.149759752
C  C264  1  0.04572000  0.80302000  0.74058000  1.0 -0.149759752
C  C265  1  0.73540000  0.46420000  0.06500000  1.0 -0.0014211488
C  C266  1  0.73540000  0.06500000  0.46420000  1.0 0.0026301987
C  C267  1  0.46420000  0.73540000  0.73540000  1.0 0.0057453305
C  C268  1  0.06500000  0.73540000  0.73540000  1.0 0.0057453305
C  C269  1  0.26460000  0.93500000  0.26460000  1.0 0.0057453305
C  C270  1  0.26460000  0.53580000  0.26460000  1.0 0.0026301987
C  C271  1  0.93500000  0.26460000  0.53580000  1.0 0.0026301987
C  C272  1  0.53580000  0.26460000  0.93500000  1.0 0.0026301987
C  C273  1  0.46420000  0.06500000  0.73540000  1.0 0.0026301987
C  C274  1  0.06500000  0.46420000  0.73540000  1.0 0.0026301987
C  C275  1  0.73540000  0.73540000  0.06500000  1.0 -0.0014211488
C  C276  1  0.73540000  0.73540000  0.46420000  1.0 -0.0014211488
C  C277  1  0.26460000  0.26460000  0.53580000  1.0 0.0057453305
C  C278  1  0.93500000  0.53580000  0.26460000  1.0 0.0026301987
C  C279  1  0.26460000  0.26460000  0.93500000  1.0 0.0026301987
C  C280  1  0.53580000  0.93500000  0.26460000  1.0 0.0026301987
C  C281  1  0.06500000  0.73540000  0.46420000  1.0 -0.0116370487
C  C282  1  0.46420000  0.73540000  0.06500000  1.0 0.0026301987
C  C283  1  0.73540000  0.06500000  0.73540000  1.0 0.0026301987
C  C284  1  0.73540000  0.46420000  0.73540000  1.0 0.0026301987
C  C285  1  0.26460000  0.93500000  0.53580000  1.0 0.0057453305
C  C286  1  0.26460000  0.53580000  0.93500000  1.0 0.0026301987
C  C287  1  0.53580000  0.26460000  0.26460000  1.0 0.0026301987
C  C288  1  0.93500000  0.26460000  0.26460000  1.0 0.0026301987
C  C289  1  0.78440000  0.39220000  0.03900000  1.0 0.1041620468
C  C290  1  0.78440000  0.03900000  0.39220000  1.0 0.1059855429
C  C291  1  0.39220000  0.78440000  0.78440000  1.0 0.1041620468
C  C292  1  0.03900000  0.78440000  0.78440000  1.0 0.1041620468
C  C293  1  0.21560000  0.96100000  0.21560000  1.0 0.1041620468
C  C294  1  0.21560000  0.60780000  0.21560000  1.0 0.1059855429
C  C295  1  0.96100000  0.21560000  0.60780000  1.0 0.1041620468
C  C296  1  0.60780000  0.21560000  0.96100000  1.0 0.1059855429
C  C297  1  0.39220000  0.03900000  0.78440000  1.0 0.1041620468
C  C298  1  0.03900000  0.39220000  0.78440000  1.0 0.1059855429
C  C299  1  0.78440000  0.78440000  0.03900000  1.0 0.1059855429
C  C300  1  0.78440000  0.78440000  0.39220000  1.0 0.1041620468
C  C301  1  0.21560000  0.21560000  0.60780000  1.0 0.1059855429
C  C302  1  0.96100000  0.60780000  0.21560000  1.0 0.1041620468
C  C303  1  0.21560000  0.21560000  0.96100000  1.0 0.1059855429
C  C304  1  0.60780000  0.96100000  0.21560000  1.0 0.1041620468
C  C305  1  0.03900000  0.78440000  0.39220000  1.0 0.1059855429
C  C306  1  0.39220000  0.78440000  0.03900000  1.0 0.1059855429
C  C307  1  0.78440000  0.03900000  0.78440000  1.0 0.1059855429
C  C308  1  0.78440000  0.39220000  0.78440000  1.0 0.1059855429
C  C309  1  0.21560000  0.96100000  0.60780000  1.0 0.1059855429
C  C310  1  0.21560000  0.60780000  0.96100000  1.0 0.1059855429
C  C311  1  0.60780000  0.21560000  0.21560000  1.0 0.1059855429
C  C312  1  0.96100000  0.21560000  0.21560000  1.0 0.1041620468
C  C313  1  0.80970000  0.35230000  0.02830000  1.0 0.0672675481
C  C314  1  0.80970000  0.02830000  0.35230000  1.0 0.0672675481
C  C315  1  0.35230000  0.80970000  0.80970000  1.0 0.0672675481
C  C316  1  0.02830000  0.80970000  0.80970000  1.0 0.0672675481
C  C317  1  0.19030000  0.97170000  0.19030000  1.0 0.0672675481
C  C318  1  0.19030000  0.64770000  0.19030000  1.0 0.0672675481
C  C319  1  0.97170000  0.19030000  0.64770000  1.0 0.0672675481
C  C320  1  0.64770000  0.19030000  0.97170000  1.0 0.0672675481
C  C321  1  0.35230000  0.02830000  0.80970000  1.0 0.0672675481
C  C322  1  0.02830000  0.35230000  0.80970000  1.0 0.0672675481
C  C323  1  0.80970000  0.80970000  0.02830000  1.0 0.0672675481
C  C324  1  0.80970000  0.80970000  0.35230000  1.0 0.0672675481
C  C325  1  0.19030000  0.19030000  0.64770000  1.0 0.0672675481
C  C326  1  0.97170000  0.64770000  0.19030000  1.0 0.0672675481
C  C327  1  0.19030000  0.19030000  0.97170000  1.0 0.0672675481
C  C328  1  0.64770000  0.97170000  0.19030000  1.0 0.0672675481
C  C329  1  0.02830000  0.80970000  0.35230000  1.0 0.0672675481
C  C330  1  0.35230000  0.80970000  0.02830000  1.0 0.0672675481
C  C331  1  0.80970000  0.02830000  0.80970000  1.0 0.0672675481
C  C332  1  0.80970000  0.35230000  0.80970000  1.0 0.0672675481
C  C333  1  0.19030000  0.97170000  0.64770000  1.0 0.0672675481
C  C334  1  0.19030000  0.64770000  0.97170000  1.0 0.0672675481
C  C335  1  0.64770000  0.19030000  0.19030000  1.0 0.0672675481
C  C336  1  0.97170000  0.19030000  0.19030000  1.0 0.0672675481
C  C337  1  0.71680000  0.50560000  0.06080000  1.0 0.1993197222
C  C338  1  0.71680000  0.06080000  0.50560000  1.0 0.1911016862
C  C339  1  0.50560000  0.71680000  0.71680000  1.0 0.1911016862
C  C340  1  0.06080000  0.71680000  0.71680000  1.0 0.1911016862
C  C341  1  0.28320000  0.93920000  0.28320000  1.0 0.1911016862
C  C342  1  0.28320000  0.49440000  0.28320000  1.0 0.1911016862
C  C343  1  0.93920000  0.28320000  0.49440000  1.0 0.1911016862
C  C344  1  0.49440000  0.28320000  0.93920000  1.0 0.1911016862
C  C345  1  0.50560000  0.06080000  0.71680000  1.0 0.1993197222
C  C346  1  0.06080000  0.50560000  0.71680000  1.0 0.1911016862
C  C347  1  0.71680000  0.71680000  0.06080000  1.0 0.1993197222
C  C348  1  0.71680000  0.71680000  0.50560000  1.0 0.1993197222
C  C349  1  0.28320000  0.28320000  0.49440000  1.0 0.1911016862
C  C350  1  0.93920000  0.49440000  0.28320000  1.0 0.1993197222
C  C351  1  0.28320000  0.28320000  0.93920000  1.0 0.1911016862
C  C352  1  0.49440000  0.93920000  0.28320000  1.0 0.1993197222
C  C353  1  0.06080000  0.71680000  0.50560000  1.0 0.1993197222
C  C354  1  0.50560000  0.71680000  0.06080000  1.0 0.1993197222
C  C355  1  0.71680000  0.06080000  0.71680000  1.0 0.1911016862
C  C356  1  0.71680000  0.50560000  0.71680000  1.0 0.1911016862
C  C357  1  0.28320000  0.93920000  0.49440000  1.0 0.1911016862
C  C358  1  0.28320000  0.49440000  0.93920000  1.0 0.1911016862
C  C359  1  0.49440000  0.28320000  0.28320000  1.0 0.1911016862
C  C360  1  0.93920000  0.28320000  0.28320000  1.0 0.1911016862
N  N1  1  0.73070000  0.53010000  0.06450000  1.0 -0.1822728849
N  N2  1  0.67470000  0.06450000  0.53010000  1.0 -0.18763831
N  N3  1  0.53010000  0.73070000  0.67470000  1.0 -0.1822728849
N  N4  1  0.06450000  0.67470000  0.73070000  1.0 -0.1822728849
N  N5  1  0.32530000  0.93550000  0.26930000  1.0 -0.18763831
N  N6  1  0.26930000  0.46990000  0.32530000  1.0 -0.18763831
N  N7  1  0.93550000  0.32530000  0.46990000  1.0 -0.1822728849
N  N8  1  0.46990000  0.26930000  0.93550000  1.0 -0.1822728849
N  N9  1  0.53010000  0.06450000  0.73070000  1.0 -0.18763831
N  N10  1  0.06450000  0.53010000  0.67470000  1.0 -0.18763831
N  N11  1  0.67470000  0.73070000  0.06450000  1.0 -0.18763831
N  N12  1  0.73070000  0.67470000  0.53010000  1.0 -0.18763831
N  N13  1  0.32530000  0.26930000  0.46990000  1.0 -0.18763831
N  N14  1  0.93550000  0.46990000  0.26930000  1.0 -0.1822728849
N  N15  1  0.26930000  0.32530000  0.93550000  1.0 -0.1822728849
N  N16  1  0.46990000  0.93550000  0.32530000  1.0 -0.18763831
N  N17  1  0.06450000  0.73070000  0.53010000  1.0 -0.18763831
N  N18  1  0.53010000  0.67470000  0.06450000  1.0 -0.18763831
N  N19  1  0.73070000  0.06450000  0.67470000  1.0 -0.1822728849
N  N20  1  0.67470000  0.53010000  0.73070000  1.0 -0.1822728849
N  N21  1  0.26930000  0.93550000  0.46990000  1.0 -0.1822728849
N  N22  1  0.32530000  0.46990000  0.93550000  1.0 -0.1822728849
N  N23  1  0.46990000  0.32530000  0.26930000  1.0 -0.1822728849
N  N24  1  0.93550000  0.26930000  0.32530000  1.0 -0.18763831
N  N25  1  0.26930000  0.46990000  0.93550000  1.0 -0.1822728849
N  N26  1  0.32530000  0.93550000  0.46990000  1.0 -0.1822728849
N  N27  1  0.46990000  0.26930000  0.32530000  1.0 -0.1822728849
N  N28  1  0.93550000  0.32530000  0.26930000  1.0 -0.18763831
N  N29  1  0.67470000  0.06450000  0.73070000  1.0 -0.1822728849
N  N30  1  0.73070000  0.53010000  0.67470000  1.0 -0.1822728849
N  N31  1  0.06450000  0.67470000  0.53010000  1.0 -0.18763831
N  N32  1  0.53010000  0.73070000  0.06450000  1.0 -0.18763831
N  N33  1  0.46990000  0.93550000  0.26930000  1.0 -0.18763831
N  N34  1  0.93550000  0.46990000  0.32530000  1.0 -0.18763831
N  N35  1  0.32530000  0.26930000  0.93550000  1.0 -0.1822728849
N  N36  1  0.26930000  0.32530000  0.46990000  1.0 -0.18763831
N  N37  1  0.67470000  0.73070000  0.53010000  1.0 -0.18763831
N  N38  1  0.06450000  0.53010000  0.73070000  1.0 -0.18763831
N  N39  1  0.73070000  0.67470000  0.06450000  1.0 -0.18763831
N  N40  1  0.53010000  0.06450000  0.67470000  1.0 -0.1822728849
N  N41  1  0.93550000  0.26930000  0.46990000  1.0 -0.1822728849
N  N42  1  0.46990000  0.32530000  0.93550000  1.0 -0.1822728849
N  N43  1  0.26930000  0.93550000  0.32530000  1.0 -0.1822728849
N  N44  1  0.32530000  0.46990000  0.26930000  1.0 -0.18763831
N  N45  1  0.73070000  0.06450000  0.53010000  1.0 -0.18763831
N  N46  1  0.67470000  0.53010000  0.06450000  1.0 -0.1822728849
N  N47  1  0.53010000  0.67470000  0.73070000  1.0 -0.18763831
N  N48  1  0.06450000  0.73070000  0.67470000  1.0 -0.1822728849
N  N49  1  0.70150000  0.56370000  0.06810000  1.0 -0.0200780046
N  N50  1  0.66666667  0.06810000  0.56370000  1.0 -0.0116370487
N  N51  1  0.56370000  0.70150000  0.66666667  1.0 -0.0116370487
N  N52  1  0.06810000  0.66666667  0.70150000  1.0 -0.0200780046
N  N53  1  0.33333333  0.93190000  0.29850000  1.0 -0.0200780046
N  N54  1  0.29850000  0.43630000  0.33333333  1.0 -0.0116370487
N  N55  1  0.93190000  0.33333333  0.43630000  1.0 -0.0200780046
N  N56  1  0.43630000  0.29850000  0.93190000  1.0 -0.0200780046
N  N57  1  0.56370000  0.06810000  0.70150000  1.0 -0.0200780046
N  N58  1  0.06810000  0.56370000  0.66666667  1.0 -0.0116370487
N  N59  1  0.66666667  0.70150000  0.06810000  1.0 -0.0200780046
N  N60  1  0.70150000  0.66666667  0.56370000  1.0 -0.0267150699
N  N61  1  0.33333333  0.29850000  0.43630000  1.0 -0.0116370487
N  N62  1  0.93190000  0.43630000  0.29850000  1.0 -0.0200780046
N  N63  1  0.29850000  0.33333333  0.93190000  1.0 -0.0200780046
N  N64  1  0.43630000  0.93190000  0.33333333  1.0 -0.0200780046
N  N65  1  0.06810000  0.70150000  0.56370000  1.0 -0.0200780046
N  N66  1  0.56370000  0.66666667  0.06810000  1.0 -0.0200780046
N  N67  1  0.70150000  0.06810000  0.66666667  1.0 -0.0200780046
N  N68  1  0.66666667  0.56370000  0.70150000  1.0 -0.0200780046
N  N69  1  0.29850000  0.93190000  0.43630000  1.0 -0.0200780046
N  N70  1  0.33333333  0.43630000  0.93190000  1.0 -0.0200780046
N  N71  1  0.43630000  0.33333333  0.29850000  1.0 -0.0200780046
N  N72  1  0.93190000  0.29850000  0.33333333  1.0 -0.0116370487
N  N73  1  0.29850000  0.43630000  0.93190000  1.0 -0.0200780046
N  N74  1  0.33333333  0.93190000  0.43630000  1.0 -0.0200780046
N  N75  1  0.43630000  0.29850000  0.33333333  1.0 -0.0200780046
N  N76  1  0.93190000  0.33333333  0.29850000  1.0 -0.0200780046
N  N77  1  0.66666667  0.06810000  0.70150000  1.0 -0.0200780046
N  N78  1  0.70150000  0.56370000  0.66666667  1.0 -0.0200780046
N  N79  1  0.06810000  0.66666667  0.56370000  1.0 -0.0200780046
N  N80  1  0.56370000  0.70150000  0.06810000  1.0 -0.0200780046
N  N81  1  0.43630000  0.93190000  0.29850000  1.0 -0.0200780046
N  N82  1  0.93190000  0.43630000  0.33333333  1.0 -0.0200780046
N  N83  1  0.33333333  0.29850000  0.93190000  1.0 -0.0200780046
N  N84  1  0.29850000  0.33333333  0.43630000  1.0 -0.0200780046
N  N85  1  0.66666667  0.70150000  0.56370000  1.0 -0.0200780046
N  N86  1  0.06810000  0.56370000  0.70150000  1.0 -0.0200780046
N  N87  1  0.70150000  0.66666667  0.06810000  1.0 -0.0200780046
N  N88  1  0.56370000  0.06810000  0.66666667  1.0 -0.0200780046
N  N89  1  0.93190000  0.29850000  0.43630000  1.0 -0.0200780046
N  N90  1  0.43630000  0.33333333  0.93190000  1.0 -0.0200780046
N  N91  1  0.29850000  0.93190000  0.33333333  1.0 -0.0116370487
N  N92  1  0.33333333  0.43630000  0.29850000  1.0 -0.0116370487
N  N93  1  0.70150000  0.06810000  0.56370000  1.0 -0.0116370487
N  N94  1  0.66666667  0.56370000  0.06810000  1.0 -0.0200780046
N  N95  1  0.56370000  0.66666667  0.70150000  1.0 -0.0200780046
N  N96  1  0.06810000  0.70150000  0.66666667  1.0 -0.0200780046
O  O1  1  0.93899000  0.29481000  0.00951000  1.0 -0.5125983648
O  O2  1  0.75669000  0.00951000  0.29481000  1.0 -0.5125983648
O  O3  1  0.29481000  0.93899000  0.75669000  1.0 -0.5125983648
O  O4  1  0.00951000  0.75669000  0.93899000  1.0 -0.5125983648
O  O5  1  0.24331000  0.99049000  0.06101000  1.0 -0.5125983648
O  O6  1  0.06101000  0.70519000  0.24331000  1.0 -0.5125983648
O  O7  1  0.99049000  0.24331000  0.70519000  1.0 -0.5125983648
O  O8  1  0.70519000  0.06101000  0.99049000  1.0 -0.5125983648
O  O9  1  0.29481000  0.00951000  0.93899000  1.0 -0.5125983648
O  O10  1  0.00951000  0.29481000  0.75669000  1.0 -0.5125983648
O  O11  1  0.75669000  0.93899000  0.00951000  1.0 -0.5125983648
O  O12  1  0.93899000  0.75669000  0.29481000  1.0 -0.5125983648
O  O13  1  0.24331000  0.06101000  0.70519000  1.0 -0.5125983648
O  O14  1  0.99049000  0.70519000  0.06101000  1.0 -0.5125983648
O  O15  1  0.06101000  0.24331000  0.99049000  1.0 -0.5125983648
O  O16  1  0.70519000  0.99049000  0.24331000  1.0 -0.5125983648
O  O17  1  0.00951000  0.93899000  0.29481000  1.0 -0.5125983648
O  O18  1  0.29481000  0.75669000  0.00951000  1.0 -0.5125983648
O  O19  1  0.93899000  0.00951000  0.75669000  1.0 -0.5125983648
O  O20  1  0.75669000  0.29481000  0.93899000  1.0 -0.5125983648
O  O21  1  0.06101000  0.99049000  0.70519000  1.0 -0.5125983648
O  O22  1  0.24331000  0.70519000  0.99049000  1.0 -0.5125983648
O  O23  1  0.70519000  0.24331000  0.06101000  1.0 -0.5125983648
O  O24  1  0.99049000  0.06101000  0.24331000  1.0 -0.5125983648
O  O25  1  0.06101000  0.70519000  0.99049000  1.0 -0.5125983648
O  O26  1  0.24331000  0.99049000  0.70519000  1.0 -0.5125983648
O  O27  1  0.70519000  0.06101000  0.24331000  1.0 -0.5125983648
O  O28  1  0.99049000  0.24331000  0.06101000  1.0 -0.5125983648
O  O29  1  0.75669000  0.00951000  0.93899000  1.0 -0.5125983648
O  O30  1  0.93899000  0.29481000  0.75669000  1.0 -0.5125983648
O  O31  1  0.00951000  0.75669000  0.29481000  1.0 -0.5125983648
O  O32  1  0.29481000  0.93899000  0.00951000  1.0 -0.5125983648
O  O33  1  0.70519000  0.99049000  0.06101000  1.0 -0.5125983648
O  O34  1  0.99049000  0.70519000  0.24331000  1.0 -0.5125983648
O  O35  1  0.24331000  0.06101000  0.99049000  1.0 -0.5125983648
O  O36  1  0.06101000  0.24331000  0.70519000  1.0 -0.5125983648
O  O37  1  0.75669000  0.93899000  0.29481000  1.0 -0.5125983648
O  O38  1  0.00951000  0.29481000  0.93899000  1.0 -0.5125983648
O  O39  1  0.93899000  0.75669000  0.00951000  1.0 -0.5125983648
O  O40  1  0.29481000  0.00951000  0.75669000  1.0 -0.5125983648
O  O41  1  0.99049000  0.06101000  0.70519000  1.0 -0.5125983648
O  O42  1  0.70519000  0.24331000  0.99049000  1.0 -0.5125983648
O  O43  1  0.06101000  0.99049000  0.24331000  1.0 -0.5125983648
O  O44  1  0.24331000  0.70519000  0.06101000  1.0 -0.5125983648
O  O45  1  0.93899000  0.00951000  0.29481000  1.0 -0.5125983648
O  O46  1  0.75669000  0.29481000  0.00951000  1.0 -0.5125983648
O  O47  1  0.29481000  0.75669000  0.93899000  1.0 -0.5125983648
O  O48  1  0.00951000  0.93899000  0.75669000  1.0 -0.5125983648
O  O49  1  0.94104000  0.23354000  0.01086000  1.0 -0.5661929324
O  O50  1  0.81456000  0.01086000  0.23354000  1.0 -0.5661929324
O  O51  1  0.23354000  0.94104000  0.81456000  1.0 -0.5661929324
O  O52  1  0.01086000  0.81456000  0.94104000  1.0 -0.5661929324
O  O53  1  0.18544000  0.98914000  0.05896000  1.0 -0.5661929324
O  O54  1  0.05896000  0.76646000  0.18544000  1.0 -0.5661929324
O  O55  1  0.98914000  0.18544000  0.76646000  1.0 -0.5661929324
O  O56  1  0.76646000  0.05896000  0.98914000  1.0 -0.5661929324
O  O57  1  0.23354000  0.01086000  0.94104000  1.0 -0.5661929324
O  O58  1  0.01086000  0.23354000  0.81456000  1.0 -0.5661929324
O  O59  1  0.81456000  0.94104000  0.01086000  1.0 -0.5661929324
O  O60  1  0.94104000  0.81456000  0.23354000  1.0 -0.5661929324
O  O61  1  0.18544000  0.05896000  0.76646000  1.0 -0.5661929324
O  O62  1  0.98914000  0.76646000  0.05896000  1.0 -0.5661929324
O  O63  1  0.05896000  0.18544000  0.98914000  1.0 -0.5661929324
O  O64  1  0.76646000  0.98914000  0.18544000  1.0 -0.5646297837
O  O65  1  0.01086000  0.94104000  0.23354000  1.0 -0.5661929324
O  O66  1  0.23354000  0.81456000  0.01086000  1.0 -0.5661929324
O  O67  1  0.94104000  0.01086000  0.81456000  1.0 -0.5661929324
O  O68  1  0.81456000  0.23354000  0.94104000  1.0 -0.5661929324
O  O69  1  0.05896000  0.98914000  0.76646000  1.0 -0.5661929324
O  O70  1  0.18544000  0.76646000  0.98914000  1.0 -0.5661929324
O  O71  1  0.76646000  0.18544000  0.05896000  1.0 -0.5661929324
O  O72  1  0.98914000  0.05896000  0.18544000  1.0 -0.5661929324
O  O73  1  0.05896000  0.76646000  0.98914000  1.0 -0.5661929324
O  O74  1  0.18544000  0.98914000  0.76646000  1.0 -0.5661929324
O  O75  1  0.76646000  0.05896000  0.18544000  1.0 -0.5661929324
O  O76  1  0.98914000  0.18544000  0.05896000  1.0 -0.5661929324
O  O77  1  0.81456000  0.01086000  0.94104000  1.0 -0.5661929324
O  O78  1  0.94104000  0.23354000  0.81456000  1.0 -0.5661929324
O  O79  1  0.01086000  0.81456000  0.23354000  1.0 -0.5661929324
O  O80  1  0.23354000  0.94104000  0.01086000  1.0 -0.5661929324
O  O81  1  0.76646000  0.98914000  0.05896000  1.0 -0.5661929324
O  O82  1  0.98914000  0.76646000  0.18544000  1.0 -0.5661929324
O  O83  1  0.18544000  0.05896000  0.98914000  1.0 -0.5661929324
O  O84  1  0.05896000  0.18544000  0.76646000  1.0 -0.5661929324
O  O85  1  0.81456000  0.94104000  0.23354000  1.0 -0.5661929324
O  O86  1  0.01086000  0.23354000  0.94104000  1.0 -0.5661929324
O  O87  1  0.94104000  0.81456000  0.01086000  1.0 -0.5661929324
O  O88  1  0.23354000  0.01086000  0.81456000  1.0 -0.5661929324
O  O89  1  0.98914000  0.05896000  0.76646000  1.0 -0.5661929324
O  O90  1  0.76646000  0.18544000  0.98914000  1.0 -0.5661929324
O  O91  1  0.05896000  0.98914000  0.18544000  1.0 -0.5661929324
O  O92  1  0.18544000  0.76646000  0.05896000  1.0 -0.5661929324
O  O93  1  0.94104000  0.01086000  0.23354000  1.0 -0.5661929324
O  O94  1  0.81456000  0.23354000  0.01086000  1.0 -0.5646297837
O  O95  1  0.23354000  0.81456000  0.94104000  1.0 -0.5661929324
O  O96  1  0.01086000  0.94104000  0.81456000  1.0 -0.5661929324
O  O97  1  0.63080000  0.63080000  0.10760000  1.0 -0.821318462
O  O98  1  0.63080000  0.10760000  0.63080000  1.0 -0.8293636745
O  O99  1  0.63080000  0.63080000  0.63080000  1.0 -0.821318462
O  O100  1  0.10760000  0.63080000  0.63080000  1.0 -0.8293636745
O  O101  1  0.36920000  0.89240000  0.36920000  1.0 -0.821318462
O  O102  1  0.36920000  0.36920000  0.36920000  1.0 -0.821318462
O  O103  1  0.89240000  0.36920000  0.36920000  1.0 -0.821318462
O  O104  1  0.36920000  0.36920000  0.89240000  1.0 -0.8293636745
