# DDEC6 charges by PACMAN v1.1 (https://github.com/mtap-research/PACMAN-charge/)
data_ADASAB_ASR_pacman
_symmetry_space_group_name_H-M   'P 1'
_cell_length_a   45.20600000
_cell_length_b   45.20600000
_cell_length_c   45.20600000
_cell_angle_alpha   60.00000000
_cell_angle_beta   60.00000000
_cell_angle_gamma   60.00000000
_symmetry_Int_Tables_number   1
_chemical_formula_structural   Cu6H33C63N12O13
_chemical_formula_sum   'Cu48 H264 C504 N96 O104'
_cell_volume   65324.07131409
_cell_formula_units_Z   8
loop_
 _symmetry_equiv_pos_site_id
 _symmetry_equiv_pos_as_xyz
  1  'x, y, z'
loop_
 _atom_site_type_symbol
 _atom_site_label
 _atom_site_symmetry_multiplicity
 _atom_site_fract_x
 _atom_site_fract_y
 _atom_site_fract_z
 _atom_site_occupancy
 _atom_site_charge
Cu  Cu1  1  0.50000000  0.16466000  0.50000000  1.0 0.8106360459
Cu  Cu2  1  0.16466000  0.50000000  0.83534000  1.0 0.8106360459
Cu  Cu3  1  0.50000000  0.83534000  0.50000000  1.0 0.8106360459
Cu  Cu4  1  0.83534000  0.50000000  0.16466000  1.0 0.8106360459
Cu  Cu5  1  0.50000000  0.50000000  0.16466000  1.0 0.8106360459
Cu  Cu6  1  0.83534000  0.16466000  0.50000000  1.0 0.8106360459
Cu  Cu7  1  0.50000000  0.50000000  0.83534000  1.0 0.8106360459
Cu  Cu8  1  0.16466000  0.83534000  0.50000000  1.0 0.8106360459
Cu  Cu9  1  0.16466000  0.50000000  0.50000000  1.0 0.8106360459
Cu  Cu10  1  0.50000000  0.83534000  0.16466000  1.0 0.8106360459
Cu  Cu11  1  0.83534000  0.50000000  0.50000000  1.0 0.8106360459
Cu  Cu12  1  0.50000000  0.16466000  0.83534000  1.0 0.8106360459
Cu  Cu13  1  0.50000000  0.10568000  0.50000000  1.0 0.8585019483
Cu  Cu14  1  0.10568000  0.50000000  0.89432000  1.0 0.8585019483
Cu  Cu15  1  0.50000000  0.89432000  0.50000000  1.0 0.8585019483
Cu  Cu16  1  0.89432000  0.50000000  0.10568000  1.0 0.8585019483
Cu  Cu17  1  0.50000000  0.50000000  0.10568000  1.0 0.8585019483
Cu  Cu18  1  0.89432000  0.10568000  0.50000000  1.0 0.8585019483
Cu  Cu19  1  0.50000000  0.50000000  0.89432000  1.0 0.8585019483
Cu  Cu20  1  0.10568000  0.89432000  0.50000000  1.0 0.8585019483
Cu  Cu21  1  0.10568000  0.50000000  0.50000000  1.0 0.8585019483
Cu  Cu22  1  0.50000000  0.89432000  0.10568000  1.0 0.8585019483
Cu  Cu23  1  0.89432000  0.50000000  0.50000000  1.0 0.8585019483
Cu  Cu24  1  0.50000000  0.10568000  0.89432000  1.0 0.8585019483
Cu  Cu25  1  0.81681000  0.89207000  0.39905000  1.0 0.4675231654
Cu  Cu26  1  0.89207000  0.81681000  0.89207000  1.0 0.4514077553
Cu  Cu27  1  0.39905000  0.89207000  0.81681000  1.0 0.4675231654
Cu  Cu28  1  0.89207000  0.39905000  0.89207000  1.0 0.4599990868
Cu  Cu29  1  0.39905000  0.81681000  0.89207000  1.0 0.4810697957
Cu  Cu30  1  0.89207000  0.89207000  0.81681000  1.0 0.4599990868
Cu  Cu31  1  0.81681000  0.39905000  0.89207000  1.0 0.4675231654
Cu  Cu32  1  0.89207000  0.89207000  0.39905000  1.0 0.4675231654
Cu  Cu33  1  0.89207000  0.39905000  0.81681000  1.0 0.4810697957
Cu  Cu34  1  0.81681000  0.89207000  0.89207000  1.0 0.4675231654
Cu  Cu35  1  0.89207000  0.81681000  0.39905000  1.0 0.4675231654
Cu  Cu36  1  0.39905000  0.89207000  0.89207000  1.0 0.4810697957
Cu  Cu37  1  0.18319000  0.10793000  0.10793000  1.0 0.4514077553
Cu  Cu38  1  0.10793000  0.18319000  0.60095000  1.0 0.4675231654
Cu  Cu39  1  0.60095000  0.10793000  0.10793000  1.0 0.4514077553
Cu  Cu40  1  0.10793000  0.60095000  0.18319000  1.0 0.4675231654
Cu  Cu41  1  0.60095000  0.18319000  0.10793000  1.0 0.4675231654
Cu  Cu42  1  0.10793000  0.10793000  0.60095000  1.0 0.4675231654
Cu  Cu43  1  0.18319000  0.60095000  0.10793000  1.0 0.4514077553
Cu  Cu44  1  0.10793000  0.10793000  0.18319000  1.0 0.4514077553
Cu  Cu45  1  0.10793000  0.60095000  0.10793000  1.0 0.4514077553
Cu  Cu46  1  0.18319000  0.10793000  0.60095000  1.0 0.4675231654
Cu  Cu47  1  0.10793000  0.18319000  0.10793000  1.0 0.4514077553
Cu  Cu48  1  0.60095000  0.10793000  0.18319000  1.0 0.4514077553
H  H1  1  0.61000000  0.13840000  0.47200000  1.0 0.1392351273
H  H2  1  0.13840000  0.61000000  0.77960000  1.0 0.1392351273
H  H3  1  0.47200000  0.77960000  0.61000000  1.0 0.1392351273
H  H4  1  0.77960000  0.47200000  0.13840000  1.0 0.1392351273
H  H5  1  0.47200000  0.61000000  0.13840000  1.0 0.1392351273
H  H6  1  0.77960000  0.13840000  0.61000000  1.0 0.1392351273
H  H7  1  0.61000000  0.47200000  0.77960000  1.0 0.1392351273
H  H8  1  0.13840000  0.77960000  0.47200000  1.0 0.1392351273
H  H9  1  0.13840000  0.47200000  0.61000000  1.0 0.1392351273
H  H10  1  0.61000000  0.77960000  0.13840000  1.0 0.1392351273
H  H11  1  0.77960000  0.61000000  0.47200000  1.0 0.1392351273
H  H12  1  0.47200000  0.13840000  0.77960000  1.0 0.1392351273
H  H13  1  0.39000000  0.86160000  0.22040000  1.0 0.1392351273
H  H14  1  0.86160000  0.39000000  0.52800000  1.0 0.1392351273
H  H15  1  0.52800000  0.22040000  0.86160000  1.0 0.1392351273
H  H16  1  0.22040000  0.52800000  0.39000000  1.0 0.1392351273
H  H17  1  0.52800000  0.39000000  0.22040000  1.0 0.1392351273
H  H18  1  0.22040000  0.86160000  0.52800000  1.0 0.1392351273
H  H19  1  0.39000000  0.52800000  0.86160000  1.0 0.1392351273
H  H20  1  0.86160000  0.22040000  0.39000000  1.0 0.1392351273
H  H21  1  0.86160000  0.52800000  0.22040000  1.0 0.1392351273
H  H22  1  0.39000000  0.22040000  0.52800000  1.0 0.1392351273
H  H23  1  0.22040000  0.39000000  0.86160000  1.0 0.1392351273
H  H24  1  0.52800000  0.86160000  0.39000000  1.0 0.1392351273
H  H25  1  0.39000000  0.86160000  0.52800000  1.0 0.1392351273
H  H26  1  0.86160000  0.39000000  0.22040000  1.0 0.1392351273
H  H27  1  0.52800000  0.22040000  0.39000000  1.0 0.1392351273
H  H28  1  0.22040000  0.52800000  0.86160000  1.0 0.1392351273
H  H29  1  0.52800000  0.39000000  0.86160000  1.0 0.1392351273
H  H30  1  0.22040000  0.86160000  0.39000000  1.0 0.1392351273
H  H31  1  0.39000000  0.52800000  0.22040000  1.0 0.1392351273
H  H32  1  0.86160000  0.22040000  0.52800000  1.0 0.1392351273
H  H33  1  0.86160000  0.52800000  0.39000000  1.0 0.1392351273
H  H34  1  0.39000000  0.22040000  0.86160000  1.0 0.1392351273
H  H35  1  0.22040000  0.39000000  0.52800000  1.0 0.1392351273
H  H36  1  0.52800000  0.86160000  0.22040000  1.0 0.1392351273
H  H37  1  0.61000000  0.13840000  0.77960000  1.0 0.1392351273
H  H38  1  0.13840000  0.61000000  0.47200000  1.0 0.1392351273
H  H39  1  0.47200000  0.77960000  0.13840000  1.0 0.1392351273
H  H40  1  0.77960000  0.47200000  0.61000000  1.0 0.1392351273
H  H41  1  0.47200000  0.61000000  0.77960000  1.0 0.1392351273
H  H42  1  0.77960000  0.13840000  0.47200000  1.0 0.1392351273
H  H43  1  0.61000000  0.47200000  0.13840000  1.0 0.1392351273
H  H44  1  0.13840000  0.77960000  0.61000000  1.0 0.1392351273
H  H45  1  0.13840000  0.47200000  0.77960000  1.0 0.1392351273
H  H46  1  0.61000000  0.77960000  0.47200000  1.0 0.1392351273
H  H47  1  0.77960000  0.61000000  0.13840000  1.0 0.1392351273
H  H48  1  0.47200000  0.13840000  0.61000000  1.0 0.1392351273
H  H49  1  0.67080000  0.11980000  0.45660000  1.0 0.1124498625
H  H50  1  0.11980000  0.67080000  0.75280000  1.0 0.1124498625
H  H51  1  0.45660000  0.75280000  0.67080000  1.0 0.1124498625
H  H52  1  0.75280000  0.45660000  0.11980000  1.0 0.1124498625
H  H53  1  0.45660000  0.67080000  0.11980000  1.0 0.1124498625
H  H54  1  0.75280000  0.11980000  0.67080000  1.0 0.1124498625
H  H55  1  0.67080000  0.45660000  0.75280000  1.0 0.1124498625
H  H56  1  0.11980000  0.75280000  0.45660000  1.0 0.1124498625
H  H57  1  0.11980000  0.45660000  0.67080000  1.0 0.1124498625
H  H58  1  0.67080000  0.75280000  0.11980000  1.0 0.1124498625
H  H59  1  0.75280000  0.67080000  0.45660000  1.0 0.1124498625
H  H60  1  0.45660000  0.11980000  0.75280000  1.0 0.1124498625
H  H61  1  0.32920000  0.88020000  0.24720000  1.0 0.1124498625
H  H62  1  0.88020000  0.32920000  0.54340000  1.0 0.1124498625
H  H63  1  0.54340000  0.24720000  0.88020000  1.0 0.1124498625
H  H64  1  0.24720000  0.54340000  0.32920000  1.0 0.1124498625
H  H65  1  0.54340000  0.32920000  0.24720000  1.0 0.1124498625
H  H66  1  0.24720000  0.88020000  0.54340000  1.0 0.1124498625
H  H67  1  0.32920000  0.54340000  0.88020000  1.0 0.1124498625
H  H68  1  0.88020000  0.24720000  0.32920000  1.0 0.1124498625
H  H69  1  0.88020000  0.54340000  0.24720000  1.0 0.1124498625
H  H70  1  0.32920000  0.24720000  0.54340000  1.0 0.1124498625
H  H71  1  0.24720000  0.32920000  0.88020000  1.0 0.1124498625
H  H72  1  0.54340000  0.88020000  0.32920000  1.0 0.1124498625
H  H73  1  0.32920000  0.88020000  0.54340000  1.0 0.1124498625
H  H74  1  0.88020000  0.32920000  0.24720000  1.0 0.1124498625
H  H75  1  0.54340000  0.24720000  0.32920000  1.0 0.1124498625
H  H76  1  0.24720000  0.54340000  0.88020000  1.0 0.1124498625
H  H77  1  0.54340000  0.32920000  0.88020000  1.0 0.1124498625
H  H78  1  0.24720000  0.88020000  0.32920000  1.0 0.1124498625
H  H79  1  0.32920000  0.54340000  0.24720000  1.0 0.1124498625
H  H80  1  0.88020000  0.24720000  0.54340000  1.0 0.1124498625
H  H81  1  0.88020000  0.54340000  0.32920000  1.0 0.1124498625
H  H82  1  0.32920000  0.24720000  0.88020000  1.0 0.1124498625
H  H83  1  0.24720000  0.32920000  0.54340000  1.0 0.1124498625
H  H84  1  0.54340000  0.88020000  0.24720000  1.0 0.1124498625
H  H85  1  0.67080000  0.11980000  0.75280000  1.0 0.1124498625
H  H86  1  0.11980000  0.67080000  0.45660000  1.0 0.1124498625
H  H87  1  0.45660000  0.75280000  0.11980000  1.0 0.1124498625
H  H88  1  0.75280000  0.45660000  0.67080000  1.0 0.1124498625
H  H89  1  0.45660000  0.67080000  0.75280000  1.0 0.1124498625
H  H90  1  0.75280000  0.11980000  0.45660000  1.0 0.1124498625
H  H91  1  0.67080000  0.45660000  0.11980000  1.0 0.1124498625
H  H92  1  0.11980000  0.75280000  0.67080000  1.0 0.1124498625
H  H93  1  0.11980000  0.45660000  0.75280000  1.0 0.1124498625
H  H94  1  0.67080000  0.75280000  0.45660000  1.0 0.1124498625
H  H95  1  0.75280000  0.67080000  0.11980000  1.0 0.1124498625
H  H96  1  0.45660000  0.11980000  0.67080000  1.0 0.1124498625
H  H97  1  0.67520000  0.02260000  0.47000000  1.0 0.1209279908
H  H98  1  0.02260000  0.67520000  0.83220000  1.0 0.1209279908
H  H99  1  0.47000000  0.83220000  0.67520000  1.0 0.1209279908
H  H100  1  0.83220000  0.47000000  0.02260000  1.0 0.1209279908
H  H101  1  0.47000000  0.67520000  0.02260000  1.0 0.1209279908
H  H102  1  0.83220000  0.02260000  0.67520000  1.0 0.1209279908
H  H103  1  0.67520000  0.47000000  0.83220000  1.0 0.1209279908
H  H104  1  0.02260000  0.83220000  0.47000000  1.0 0.1209279908
H  H105  1  0.02260000  0.47000000  0.67520000  1.0 0.1209279908
H  H106  1  0.67520000  0.83220000  0.02260000  1.0 0.1209279908
H  H107  1  0.83220000  0.67520000  0.47000000  1.0 0.1209279908
H  H108  1  0.47000000  0.02260000  0.83220000  1.0 0.1209279908
H  H109  1  0.32480000  0.97740000  0.16780000  1.0 0.1209279908
H  H110  1  0.97740000  0.32480000  0.53000000  1.0 0.1209279908
H  H111  1  0.53000000  0.16780000  0.97740000  1.0 0.1209279908
H  H112  1  0.16780000  0.53000000  0.32480000  1.0 0.1209279908
H  H113  1  0.53000000  0.32480000  0.16780000  1.0 0.1209279908
H  H114  1  0.16780000  0.97740000  0.53000000  1.0 0.1209279908
H  H115  1  0.32480000  0.53000000  0.97740000  1.0 0.1209279908
H  H116  1  0.97740000  0.16780000  0.32480000  1.0 0.1209279908
H  H117  1  0.97740000  0.53000000  0.16780000  1.0 0.1209279908
H  H118  1  0.32480000  0.16780000  0.53000000  1.0 0.1209279908
H  H119  1  0.16780000  0.32480000  0.97740000  1.0 0.1209279908
H  H120  1  0.53000000  0.97740000  0.32480000  1.0 0.1209279908
H  H121  1  0.32480000  0.97740000  0.53000000  1.0 0.1209279908
H  H122  1  0.97740000  0.32480000  0.16780000  1.0 0.1209279908
H  H123  1  0.53000000  0.16780000  0.32480000  1.0 0.1209279908
H  H124  1  0.16780000  0.53000000  0.97740000  1.0 0.1209279908
H  H125  1  0.53000000  0.32480000  0.97740000  1.0 0.1209279908
H  H126  1  0.16780000  0.97740000  0.32480000  1.0 0.1209279908
H  H127  1  0.32480000  0.53000000  0.16780000  1.0 0.1209279908
H  H128  1  0.97740000  0.16780000  0.53000000  1.0 0.1209279908
H  H129  1  0.97740000  0.53000000  0.32480000  1.0 0.1209279908
H  H130  1  0.32480000  0.16780000  0.97740000  1.0 0.1209279908
H  H131  1  0.16780000  0.32480000  0.53000000  1.0 0.1209279908
H  H132  1  0.53000000  0.97740000  0.16780000  1.0 0.1209279908
H  H133  1  0.67520000  0.02260000  0.83220000  1.0 0.1209279908
H  H134  1  0.02260000  0.67520000  0.47000000  1.0 0.1209279908
H  H135  1  0.47000000  0.83220000  0.02260000  1.0 0.1209279908
H  H136  1  0.83220000  0.47000000  0.67520000  1.0 0.1209279908
H  H137  1  0.47000000  0.67520000  0.83220000  1.0 0.1209279908
H  H138  1  0.83220000  0.02260000  0.47000000  1.0 0.1209279908
H  H139  1  0.67520000  0.47000000  0.02260000  1.0 0.1209279908
H  H140  1  0.02260000  0.83220000  0.67520000  1.0 0.1209279908
H  H141  1  0.02260000  0.47000000  0.83220000  1.0 0.1209279908
H  H142  1  0.67520000  0.83220000  0.47000000  1.0 0.1209279908
H  H143  1  0.83220000  0.67520000  0.02260000  1.0 0.1209279908
H  H144  1  0.47000000  0.02260000  0.67520000  1.0 0.1209279908
H  H145  1  0.61060000  0.04420000  0.48520000  1.0 0.1341128944
H  H146  1  0.04420000  0.61060000  0.86000000  1.0 0.1341128944
H  H147  1  0.48520000  0.86000000  0.61060000  1.0 0.1341128944
H  H148  1  0.86000000  0.48520000  0.04420000  1.0 0.1341128944
H  H149  1  0.48520000  0.61060000  0.04420000  1.0 0.1341128944
H  H150  1  0.86000000  0.04420000  0.61060000  1.0 0.1341128944
H  H151  1  0.61060000  0.48520000  0.86000000  1.0 0.1341128944
H  H152  1  0.04420000  0.86000000  0.48520000  1.0 0.1341128944
H  H153  1  0.04420000  0.48520000  0.61060000  1.0 0.1341128944
H  H154  1  0.61060000  0.86000000  0.04420000  1.0 0.1341128944
H  H155  1  0.86000000  0.61060000  0.48520000  1.0 0.1341128944
H  H156  1  0.48520000  0.04420000  0.86000000  1.0 0.1341128944
H  H157  1  0.38940000  0.95580000  0.14000000  1.0 0.1341128944
H  H158  1  0.95580000  0.38940000  0.51480000  1.0 0.1341128944
H  H159  1  0.51480000  0.14000000  0.95580000  1.0 0.1341128944
H  H160  1  0.14000000  0.51480000  0.38940000  1.0 0.1341128944
H  H161  1  0.51480000  0.38940000  0.14000000  1.0 0.1341128944
H  H162  1  0.14000000  0.95580000  0.51480000  1.0 0.1341128944
H  H163  1  0.38940000  0.51480000  0.95580000  1.0 0.1341128944
H  H164  1  0.95580000  0.14000000  0.38940000  1.0 0.1341128944
H  H165  1  0.95580000  0.51480000  0.14000000  1.0 0.1341128944
H  H166  1  0.38940000  0.14000000  0.51480000  1.0 0.1341128944
H  H167  1  0.14000000  0.38940000  0.95580000  1.0 0.1341128944
H  H168  1  0.51480000  0.95580000  0.38940000  1.0 0.1341128944
H  H169  1  0.38940000  0.95580000  0.51480000  1.0 0.1341128944
H  H170  1  0.95580000  0.38940000  0.14000000  1.0 0.1341128944
H  H171  1  0.51480000  0.14000000  0.38940000  1.0 0.1341128944
H  H172  1  0.14000000  0.51480000  0.95580000  1.0 0.1341128944
H  H173  1  0.51480000  0.38940000  0.95580000  1.0 0.1341128944
H  H174  1  0.14000000  0.95580000  0.38940000  1.0 0.1341128944
H  H175  1  0.38940000  0.51480000  0.14000000  1.0 0.1341128944
H  H176  1  0.95580000  0.14000000  0.51480000  1.0 0.1341128944
H  H177  1  0.95580000  0.51480000  0.38940000  1.0 0.1341128944
H  H178  1  0.38940000  0.14000000  0.95580000  1.0 0.1341128944
H  H179  1  0.14000000  0.38940000  0.51480000  1.0 0.1341128944
H  H180  1  0.51480000  0.95580000  0.14000000  1.0 0.1341128944
H  H181  1  0.61060000  0.04420000  0.86000000  1.0 0.1341128944
H  H182  1  0.04420000  0.61060000  0.48520000  1.0 0.1341128944
H  H183  1  0.48520000  0.86000000  0.04420000  1.0 0.1341128944
H  H184  1  0.86000000  0.48520000  0.61060000  1.0 0.1341128944
H  H185  1  0.48520000  0.61060000  0.86000000  1.0 0.1341128944
H  H186  1  0.86000000  0.04420000  0.48520000  1.0 0.1341128944
H  H187  1  0.61060000  0.48520000  0.04420000  1.0 0.1341128944
H  H188  1  0.04420000  0.86000000  0.61060000  1.0 0.1341128944
H  H189  1  0.04420000  0.48520000  0.86000000  1.0 0.1341128944
H  H190  1  0.61060000  0.86000000  0.48520000  1.0 0.1341128944
H  H191  1  0.86000000  0.61060000  0.04420000  1.0 0.1341128944
H  H192  1  0.48520000  0.04420000  0.61060000  1.0 0.1341128944
H  H193  1  0.72410000  0.08570000  0.46610000  1.0 0.1005454147
H  H194  1  0.08570000  0.72410000  0.72410000  1.0 0.1005454147
H  H195  1  0.46610000  0.72410000  0.72410000  1.0 0.1005454147
H  H196  1  0.72410000  0.46610000  0.08570000  1.0 0.1005454147
H  H197  1  0.46610000  0.72410000  0.08570000  1.0 0.1005454147
H  H198  1  0.72410000  0.08570000  0.72410000  1.0 0.1124498625
H  H199  1  0.72410000  0.46610000  0.72410000  1.0 0.1124498625
H  H200  1  0.08570000  0.72410000  0.46610000  1.0 0.1005454147
H  H201  1  0.08570000  0.46610000  0.72410000  1.0 0.1124498625
H  H202  1  0.72410000  0.72410000  0.08570000  1.0 0.1005454147
H  H203  1  0.72410000  0.72410000  0.46610000  1.0 0.1124498625
H  H204  1  0.46610000  0.08570000  0.72410000  1.0 0.1124498625
H  H205  1  0.27590000  0.91430000  0.27590000  1.0 0.1005454147
H  H206  1  0.91430000  0.27590000  0.53390000  1.0 0.1124498625
H  H207  1  0.53390000  0.27590000  0.91430000  1.0 0.1124498625
H  H208  1  0.27590000  0.53390000  0.27590000  1.0 0.1124498625
H  H209  1  0.53390000  0.27590000  0.27590000  1.0 0.1005454147
H  H210  1  0.27590000  0.91430000  0.53390000  1.0 0.1124498625
H  H211  1  0.27590000  0.53390000  0.91430000  1.0 0.1005454147
H  H212  1  0.91430000  0.27590000  0.27590000  1.0 0.1005454147
H  H213  1  0.91430000  0.53390000  0.27590000  1.0 0.1124498625
H  H214  1  0.27590000  0.27590000  0.53390000  1.0 0.1124498625
H  H215  1  0.27590000  0.27590000  0.91430000  1.0 0.1124498625
H  H216  1  0.53390000  0.91430000  0.27590000  1.0 0.1005454147
H  H217  1  0.73280000  0.01320000  0.43080000  1.0 0.1209279908
H  H218  1  0.01320000  0.73280000  0.82320000  1.0 0.1209279908
H  H219  1  0.43080000  0.82320000  0.73280000  1.0 0.1209279908
H  H220  1  0.82320000  0.43080000  0.01320000  1.0 0.1209279908
H  H221  1  0.43080000  0.73280000  0.01320000  1.0 0.1209279908
H  H222  1  0.82320000  0.01320000  0.73280000  1.0 0.1209279908
H  H223  1  0.73280000  0.43080000  0.82320000  1.0 0.1209279908
H  H224  1  0.01320000  0.82320000  0.43080000  1.0 0.1209279908
H  H225  1  0.01320000  0.43080000  0.73280000  1.0 0.1209279908
H  H226  1  0.73280000  0.82320000  0.01320000  1.0 0.1209279908
H  H227  1  0.82320000  0.73280000  0.43080000  1.0 0.1209279908
H  H228  1  0.43080000  0.01320000  0.82320000  1.0 0.1209279908
H  H229  1  0.26720000  0.98680000  0.17680000  1.0 0.1209279908
H  H230  1  0.98680000  0.26720000  0.56920000  1.0 0.1209279908
H  H231  1  0.56920000  0.17680000  0.98680000  1.0 0.1209279908
H  H232  1  0.17680000  0.56920000  0.26720000  1.0 0.1209279908
H  H233  1  0.56920000  0.26720000  0.17680000  1.0 0.1209279908
H  H234  1  0.17680000  0.98680000  0.56920000  1.0 0.1209279908
H  H235  1  0.26720000  0.56920000  0.98680000  1.0 0.1209279908
H  H236  1  0.98680000  0.17680000  0.26720000  1.0 0.1209279908
H  H237  1  0.98680000  0.56920000  0.17680000  1.0 0.1209279908
H  H238  1  0.26720000  0.17680000  0.56920000  1.0 0.1209279908
H  H239  1  0.17680000  0.26720000  0.98680000  1.0 0.1209279908
H  H240  1  0.56920000  0.98680000  0.26720000  1.0 0.1209279908
H  H241  1  0.26720000  0.98680000  0.56920000  1.0 0.1209279908
H  H242  1  0.98680000  0.26720000  0.17680000  1.0 0.1209279908
H  H243  1  0.56920000  0.17680000  0.26720000  1.0 0.1209279908
H  H244  1  0.17680000  0.56920000  0.98680000  1.0 0.1209279908
H  H245  1  0.56920000  0.26720000  0.98680000  1.0 0.1209279908
H  H246  1  0.17680000  0.98680000  0.26720000  1.0 0.1209279908
H  H247  1  0.26720000  0.56920000  0.17680000  1.0 0.1209279908
H  H248  1  0.98680000  0.17680000  0.56920000  1.0 0.1209279908
H  H249  1  0.98680000  0.56920000  0.26720000  1.0 0.1209279908
H  H250  1  0.26720000  0.17680000  0.98680000  1.0 0.1209279908
H  H251  1  0.17680000  0.26720000  0.56920000  1.0 0.1209279908
H  H252  1  0.56920000  0.98680000  0.17680000  1.0 0.1209279908
H  H253  1  0.73280000  0.01320000  0.82320000  1.0 0.1209279908
H  H254  1  0.01320000  0.73280000  0.43080000  1.0 0.1209279908
H  H255  1  0.43080000  0.82320000  0.01320000  1.0 0.1209279908
H  H256  1  0.82320000  0.43080000  0.73280000  1.0 0.1209279908
H  H257  1  0.43080000  0.73280000  0.82320000  1.0 0.1209279908
H  H258  1  0.82320000  0.01320000  0.43080000  1.0 0.1209279908
H  H259  1  0.73280000  0.43080000  0.01320000  1.0 0.1209279908
H  H260  1  0.01320000  0.82320000  0.73280000  1.0 0.1209279908
H  H261  1  0.01320000  0.43080000  0.82320000  1.0 0.1209279908
H  H262  1  0.73280000  0.82320000  0.43080000  1.0 0.1209279908
H  H263  1  0.82320000  0.73280000  0.01320000  1.0 0.1209279908
H  H264  1  0.43080000  0.01320000  0.73280000  1.0 0.1209279908
C  C1  1  0.56620000  0.10660000  0.48880000  1.0 0.5777442181
C  C2  1  0.10660000  0.56620000  0.83840000  1.0 0.5777442181
C  C3  1  0.48880000  0.83840000  0.56620000  1.0 0.5777442181
C  C4  1  0.83840000  0.48880000  0.10660000  1.0 0.5777442181
C  C5  1  0.48880000  0.56620000  0.10660000  1.0 0.5777442181
C  C6  1  0.83840000  0.10660000  0.56620000  1.0 0.5777442181
C  C7  1  0.56620000  0.48880000  0.83840000  1.0 0.5777442181
C  C8  1  0.10660000  0.83840000  0.48880000  1.0 0.5777442181
C  C9  1  0.10660000  0.48880000  0.56620000  1.0 0.5777442181
C  C10  1  0.56620000  0.83840000  0.10660000  1.0 0.5777442181
C  C11  1  0.83840000  0.56620000  0.48880000  1.0 0.5777442181
C  C12  1  0.48880000  0.10660000  0.83840000  1.0 0.5777442181
C  C13  1  0.43380000  0.89340000  0.16160000  1.0 0.5777442181
C  C14  1  0.89340000  0.43380000  0.51120000  1.0 0.5777442181
C  C15  1  0.51120000  0.16160000  0.89340000  1.0 0.5777442181
C  C16  1  0.16160000  0.51120000  0.43380000  1.0 0.5777442181
C  C17  1  0.51120000  0.43380000  0.16160000  1.0 0.5777442181
C  C18  1  0.16160000  0.89340000  0.51120000  1.0 0.5777442181
C  C19  1  0.43380000  0.51120000  0.89340000  1.0 0.5777442181
C  C20  1  0.89340000  0.16160000  0.43380000  1.0 0.5777442181
C  C21  1  0.89340000  0.51120000  0.16160000  1.0 0.5777442181
C  C22  1  0.43380000  0.16160000  0.51120000  1.0 0.5777442181
C  C23  1  0.16160000  0.43380000  0.89340000  1.0 0.5777442181
C  C24  1  0.51120000  0.89340000  0.43380000  1.0 0.5777442181
C  C25  1  0.43380000  0.89340000  0.51120000  1.0 0.5777442181
C  C26  1  0.89340000  0.43380000  0.16160000  1.0 0.5777442181
C  C27  1  0.51120000  0.16160000  0.43380000  1.0 0.5777442181
C  C28  1  0.16160000  0.51120000  0.89340000  1.0 0.5777442181
C  C29  1  0.51120000  0.43380000  0.89340000  1.0 0.5777442181
C  C30  1  0.16160000  0.89340000  0.43380000  1.0 0.5777442181
C  C31  1  0.43380000  0.51120000  0.16160000  1.0 0.5777442181
C  C32  1  0.89340000  0.16160000  0.51120000  1.0 0.5777442181
C  C33  1  0.89340000  0.51120000  0.43380000  1.0 0.5777442181
C  C34  1  0.43380000  0.16160000  0.89340000  1.0 0.5777442181
C  C35  1  0.16160000  0.43380000  0.51120000  1.0 0.5777442181
C  C36  1  0.51120000  0.89340000  0.16160000  1.0 0.5777442181
C  C37  1  0.56620000  0.10660000  0.83840000  1.0 0.5777442181
C  C38  1  0.10660000  0.56620000  0.48880000  1.0 0.5777442181
C  C39  1  0.48880000  0.83840000  0.10660000  1.0 0.5777442181
C  C40  1  0.83840000  0.48880000  0.56620000  1.0 0.5777442181
C  C41  1  0.48880000  0.56620000  0.83840000  1.0 0.5777442181
C  C42  1  0.83840000  0.10660000  0.48880000  1.0 0.5777442181
C  C43  1  0.56620000  0.48880000  0.10660000  1.0 0.5777442181
C  C44  1  0.10660000  0.83840000  0.56620000  1.0 0.5777442181
C  C45  1  0.10660000  0.48880000  0.83840000  1.0 0.5777442181
C  C46  1  0.56620000  0.83840000  0.48880000  1.0 0.5777442181
C  C47  1  0.83840000  0.56620000  0.10660000  1.0 0.5777442181
C  C48  1  0.48880000  0.10660000  0.56620000  1.0 0.5777442181
C  C49  1  0.60800000  0.09160000  0.47940000  1.0 -0.0182084243
C  C50  1  0.09160000  0.60800000  0.82100000  1.0 -0.0182084243
C  C51  1  0.47940000  0.82100000  0.60800000  1.0 -0.0182084243
C  C52  1  0.82100000  0.47940000  0.09160000  1.0 -0.0182084243
C  C53  1  0.47940000  0.60800000  0.09160000  1.0 -0.0182084243
C  C54  1  0.82100000  0.09160000  0.60800000  1.0 -0.0182084243
C  C55  1  0.60800000  0.47940000  0.82100000  1.0 -0.0182084243
C  C56  1  0.09160000  0.82100000  0.47940000  1.0 -0.0182084243
C  C57  1  0.09160000  0.47940000  0.60800000  1.0 -0.0182084243
C  C58  1  0.60800000  0.82100000  0.09160000  1.0 -0.0182084243
C  C59  1  0.82100000  0.60800000  0.47940000  1.0 -0.0182084243
C  C60  1  0.47940000  0.09160000  0.82100000  1.0 -0.0182084243
C  C61  1  0.39200000  0.90840000  0.17900000  1.0 -0.0182084243
C  C62  1  0.90840000  0.39200000  0.52060000  1.0 -0.0182084243
C  C63  1  0.52060000  0.17900000  0.90840000  1.0 -0.0182084243
C  C64  1  0.17900000  0.52060000  0.39200000  1.0 -0.0182084243
C  C65  1  0.52060000  0.39200000  0.17900000  1.0 -0.0182084243
C  C66  1  0.17900000  0.90840000  0.52060000  1.0 -0.0182084243
C  C67  1  0.39200000  0.52060000  0.90840000  1.0 -0.0182084243
C  C68  1  0.90840000  0.17900000  0.39200000  1.0 -0.0182084243
C  C69  1  0.90840000  0.52060000  0.17900000  1.0 -0.0182084243
C  C70  1  0.39200000  0.17900000  0.52060000  1.0 -0.0182084243
C  C71  1  0.17900000  0.39200000  0.90840000  1.0 -0.0182084243
C  C72  1  0.52060000  0.90840000  0.39200000  1.0 -0.0182084243
C  C73  1  0.39200000  0.90840000  0.52060000  1.0 -0.0182084243
C  C74  1  0.90840000  0.39200000  0.17900000  1.0 -0.0182084243
C  C75  1  0.52060000  0.17900000  0.39200000  1.0 -0.0182084243
C  C76  1  0.17900000  0.52060000  0.90840000  1.0 -0.0182084243
C  C77  1  0.52060000  0.39200000  0.90840000  1.0 -0.0182084243
C  C78  1  0.17900000  0.90840000  0.39200000  1.0 -0.0182084243
C  C79  1  0.39200000  0.52060000  0.17900000  1.0 -0.0182084243
C  C80  1  0.90840000  0.17900000  0.52060000  1.0 -0.0182084243
C  C81  1  0.90840000  0.52060000  0.39200000  1.0 -0.0182084243
C  C82  1  0.39200000  0.17900000  0.90840000  1.0 -0.0182084243
C  C83  1  0.17900000  0.39200000  0.52060000  1.0 -0.0182084243
C  C84  1  0.52060000  0.90840000  0.17900000  1.0 -0.0182084243
C  C85  1  0.60800000  0.09160000  0.82100000  1.0 -0.0182084243
C  C86  1  0.09160000  0.60800000  0.47940000  1.0 -0.0182084243
C  C87  1  0.47940000  0.82100000  0.09160000  1.0 -0.0182084243
C  C88  1  0.82100000  0.47940000  0.60800000  1.0 -0.0182084243
C  C89  1  0.47940000  0.60800000  0.82100000  1.0 -0.0182084243
C  C90  1  0.82100000  0.09160000  0.47940000  1.0 -0.0182084243
C  C91  1  0.60800000  0.47940000  0.09160000  1.0 -0.0182084243
C  C92  1  0.09160000  0.82100000  0.60800000  1.0 -0.0182084243
C  C93  1  0.09160000  0.47940000  0.82100000  1.0 -0.0182084243
C  C94  1  0.60800000  0.82100000  0.47940000  1.0 -0.0182084243
C  C95  1  0.82100000  0.60800000  0.09160000  1.0 -0.0182084243
C  C96  1  0.47940000  0.09160000  0.60800000  1.0 -0.0182084243
C  C97  1  0.62430000  0.11450000  0.47130000  1.0 -0.1031340779
C  C98  1  0.11450000  0.62430000  0.78990000  1.0 -0.1031340779
C  C99  1  0.47130000  0.78990000  0.62430000  1.0 -0.1031340779
C  C100  1  0.78990000  0.47130000  0.11450000  1.0 -0.1031340779
C  C101  1  0.47130000  0.62430000  0.11450000  1.0 -0.1031340779
C  C102  1  0.78990000  0.11450000  0.62430000  1.0 -0.1031340779
C  C103  1  0.62430000  0.47130000  0.78990000  1.0 -0.1031340779
C  C104  1  0.11450000  0.78990000  0.47130000  1.0 -0.1031340779
C  C105  1  0.11450000  0.47130000  0.62430000  1.0 -0.1031340779
C  C106  1  0.62430000  0.78990000  0.11450000  1.0 -0.1031340779
C  C107  1  0.78990000  0.62430000  0.47130000  1.0 -0.1031340779
C  C108  1  0.47130000  0.11450000  0.78990000  1.0 -0.1031340779
C  C109  1  0.37570000  0.88550000  0.21010000  1.0 -0.1031340779
C  C110  1  0.88550000  0.37570000  0.52870000  1.0 -0.1031340779
C  C111  1  0.52870000  0.21010000  0.88550000  1.0 -0.1031340779
C  C112  1  0.21010000  0.52870000  0.37570000  1.0 -0.1031340779
C  C113  1  0.52870000  0.37570000  0.21010000  1.0 -0.1031340779
C  C114  1  0.21010000  0.88550000  0.52870000  1.0 -0.1031340779
C  C115  1  0.37570000  0.52870000  0.88550000  1.0 -0.1031340779
C  C116  1  0.88550000  0.21010000  0.37570000  1.0 -0.1031340779
C  C117  1  0.88550000  0.52870000  0.21010000  1.0 -0.1031340779
C  C118  1  0.37570000  0.21010000  0.52870000  1.0 -0.1031340779
C  C119  1  0.21010000  0.37570000  0.88550000  1.0 -0.1031340779
C  C120  1  0.52870000  0.88550000  0.37570000  1.0 -0.1031340779
C  C121  1  0.37570000  0.88550000  0.52870000  1.0 -0.1031340779
C  C122  1  0.88550000  0.37570000  0.21010000  1.0 -0.1031340779
C  C123  1  0.52870000  0.21010000  0.37570000  1.0 -0.1031340779
C  C124  1  0.21010000  0.52870000  0.88550000  1.0 -0.1031340779
C  C125  1  0.52870000  0.37570000  0.88550000  1.0 -0.1031340779
C  C126  1  0.21010000  0.88550000  0.37570000  1.0 -0.1031340779
C  C127  1  0.37570000  0.52870000  0.21010000  1.0 -0.1031340779
C  C128  1  0.88550000  0.21010000  0.52870000  1.0 -0.1031340779
C  C129  1  0.88550000  0.52870000  0.37570000  1.0 -0.1031340779
C  C130  1  0.37570000  0.21010000  0.88550000  1.0 -0.1031340779
C  C131  1  0.21010000  0.37570000  0.52870000  1.0 -0.1031340779
C  C132  1  0.52870000  0.88550000  0.21010000  1.0 -0.1031340779
C  C133  1  0.62430000  0.11450000  0.78990000  1.0 -0.1031340779
C  C134  1  0.11450000  0.62430000  0.47130000  1.0 -0.1031340779
C  C135  1  0.47130000  0.78990000  0.11450000  1.0 -0.1031340779
C  C136  1  0.78990000  0.47130000  0.62430000  1.0 -0.1031340779
C  C137  1  0.47130000  0.62430000  0.78990000  1.0 -0.1031340779
C  C138  1  0.78990000  0.11450000  0.47130000  1.0 -0.1031340779
C  C139  1  0.62430000  0.47130000  0.11450000  1.0 -0.1031340779
C  C140  1  0.11450000  0.78990000  0.62430000  1.0 -0.1031340779
C  C141  1  0.11450000  0.47130000  0.78990000  1.0 -0.1031340779
C  C142  1  0.62430000  0.78990000  0.47130000  1.0 -0.1031340779
C  C143  1  0.78990000  0.62430000  0.11450000  1.0 -0.1031340779
C  C144  1  0.47130000  0.11450000  0.62430000  1.0 -0.1031340779
C  C145  1  0.65990000  0.10350000  0.46210000  1.0 -0.1473125028
C  C146  1  0.10350000  0.65990000  0.77450000  1.0 -0.1473125028
C  C147  1  0.46210000  0.77450000  0.65990000  1.0 -0.1473125028
C  C148  1  0.77450000  0.46210000  0.10350000  1.0 -0.1473125028
C  C149  1  0.46210000  0.65990000  0.10350000  1.0 -0.1473125028
C  C150  1  0.77450000  0.10350000  0.65990000  1.0 -0.1473125028
C  C151  1  0.65990000  0.46210000  0.77450000  1.0 -0.1473125028
C  C152  1  0.10350000  0.77450000  0.46210000  1.0 -0.1473125028
C  C153  1  0.10350000  0.46210000  0.65990000  1.0 -0.1473125028
C  C154  1  0.65990000  0.77450000  0.10350000  1.0 -0.1473125028
C  C155  1  0.77450000  0.65990000  0.46210000  1.0 -0.1473125028
C  C156  1  0.46210000  0.10350000  0.77450000  1.0 -0.1473125028
C  C157  1  0.34010000  0.89650000  0.22550000  1.0 -0.1473125028
C  C158  1  0.89650000  0.34010000  0.53790000  1.0 -0.1473125028
C  C159  1  0.53790000  0.22550000  0.89650000  1.0 -0.1473125028
C  C160  1  0.22550000  0.53790000  0.34010000  1.0 -0.1473125028
C  C161  1  0.53790000  0.34010000  0.22550000  1.0 -0.1473125028
C  C162  1  0.22550000  0.89650000  0.53790000  1.0 -0.1473125028
C  C163  1  0.34010000  0.53790000  0.89650000  1.0 -0.1473125028
C  C164  1  0.89650000  0.22550000  0.34010000  1.0 -0.1473125028
C  C165  1  0.89650000  0.53790000  0.22550000  1.0 -0.1473125028
C  C166  1  0.34010000  0.22550000  0.53790000  1.0 -0.1473125028
C  C167  1  0.22550000  0.34010000  0.89650000  1.0 -0.1473125028
C  C168  1  0.53790000  0.89650000  0.34010000  1.0 -0.1473125028
C  C169  1  0.34010000  0.89650000  0.53790000  1.0 -0.1473125028
C  C170  1  0.89650000  0.34010000  0.22550000  1.0 -0.1473125028
C  C171  1  0.53790000  0.22550000  0.34010000  1.0 -0.1473125028
C  C172  1  0.22550000  0.53790000  0.89650000  1.0 -0.1473125028
C  C173  1  0.53790000  0.34010000  0.89650000  1.0 -0.1473125028
C  C174  1  0.22550000  0.89650000  0.34010000  1.0 -0.1473125028
C  C175  1  0.34010000  0.53790000  0.22550000  1.0 -0.1473125028
C  C176  1  0.89650000  0.22550000  0.53790000  1.0 -0.1473125028
C  C177  1  0.89650000  0.53790000  0.34010000  1.0 -0.1473125028
C  C178  1  0.34010000  0.22550000  0.89650000  1.0 -0.1473125028
C  C179  1  0.22550000  0.34010000  0.53790000  1.0 -0.1473125028
C  C180  1  0.53790000  0.89650000  0.22550000  1.0 -0.1473125028
C  C181  1  0.65990000  0.10350000  0.77450000  1.0 -0.1473125028
C  C182  1  0.10350000  0.65990000  0.46210000  1.0 -0.1473125028
C  C183  1  0.46210000  0.77450000  0.10350000  1.0 -0.1473125028
C  C184  1  0.77450000  0.46210000  0.65990000  1.0 -0.1473125028
C  C185  1  0.46210000  0.65990000  0.77450000  1.0 -0.1473125028
C  C186  1  0.77450000  0.10350000  0.46210000  1.0 -0.1473125028
C  C187  1  0.65990000  0.46210000  0.10350000  1.0 -0.1473125028
C  C188  1  0.10350000  0.77450000  0.65990000  1.0 -0.1473125028
C  C189  1  0.10350000  0.46210000  0.77450000  1.0 -0.1473125028
C  C190  1  0.65990000  0.77450000  0.46210000  1.0 -0.1473125028
C  C191  1  0.77450000  0.65990000  0.10350000  1.0 -0.1473125028
C  C192  1  0.46210000  0.10350000  0.65990000  1.0 -0.1473125028
C  C193  1  0.68160000  0.06940000  0.46060000  1.0 0.1005454147
C  C194  1  0.06940000  0.68160000  0.78840000  1.0 0.1005454147
C  C195  1  0.46060000  0.78840000  0.68160000  1.0 0.091918338
C  C196  1  0.78840000  0.46060000  0.06940000  1.0 0.091918338
C  C197  1  0.46060000  0.68160000  0.06940000  1.0 0.091918338
C  C198  1  0.78840000  0.06940000  0.68160000  1.0 0.1005454147
C  C199  1  0.68160000  0.46060000  0.78840000  1.0 0.091918338
C  C200  1  0.06940000  0.78840000  0.46060000  1.0 0.091918338
C  C201  1  0.06940000  0.46060000  0.68160000  1.0 0.1005454147
C  C202  1  0.68160000  0.78840000  0.06940000  1.0 0.091918338
C  C203  1  0.78840000  0.68160000  0.46060000  1.0 0.091918338
C  C204  1  0.46060000  0.06940000  0.78840000  1.0 0.091918338
C  C205  1  0.31840000  0.93060000  0.21160000  1.0 0.091918338
C  C206  1  0.93060000  0.31840000  0.53940000  1.0 0.091918338
C  C207  1  0.53940000  0.21160000  0.93060000  1.0 0.091918338
C  C208  1  0.21160000  0.53940000  0.31840000  1.0 0.091918338
C  C209  1  0.53940000  0.31840000  0.21160000  1.0 0.091918338
C  C210  1  0.21160000  0.93060000  0.53940000  1.0 0.091918338
C  C211  1  0.31840000  0.53940000  0.93060000  1.0 0.091918338
C  C212  1  0.93060000  0.21160000  0.31840000  1.0 0.1005454147
C  C213  1  0.93060000  0.53940000  0.21160000  1.0 0.091918338
C  C214  1  0.31840000  0.21160000  0.53940000  1.0 0.091918338
C  C215  1  0.21160000  0.31840000  0.93060000  1.0 0.091918338
C  C216  1  0.53940000  0.93060000  0.31840000  1.0 0.091918338
C  C217  1  0.31840000  0.93060000  0.53940000  1.0 0.091918338
C  C218  1  0.93060000  0.31840000  0.21160000  1.0 0.091918338
C  C219  1  0.53940000  0.21160000  0.31840000  1.0 0.091918338
C  C220  1  0.21160000  0.53940000  0.93060000  1.0 0.1005454147
C  C221  1  0.53940000  0.31840000  0.93060000  1.0 0.1005454147
C  C222  1  0.21160000  0.93060000  0.31840000  1.0 0.091918338
C  C223  1  0.31840000  0.53940000  0.21160000  1.0 0.091918338
C  C224  1  0.93060000  0.21160000  0.53940000  1.0 0.091918338
C  C225  1  0.93060000  0.53940000  0.31840000  1.0 0.091918338
C  C226  1  0.31840000  0.21160000  0.93060000  1.0 0.091918338
C  C227  1  0.21160000  0.31840000  0.53940000  1.0 0.1005454147
C  C228  1  0.53940000  0.93060000  0.21160000  1.0 0.091918338
C  C229  1  0.68160000  0.06940000  0.78840000  1.0 0.091918338
C  C230  1  0.06940000  0.68160000  0.46060000  1.0 0.091918338
C  C231  1  0.46060000  0.78840000  0.06940000  1.0 0.091918338
C  C232  1  0.78840000  0.46060000  0.68160000  1.0 0.091918338
C  C233  1  0.46060000  0.68160000  0.78840000  1.0 0.1005454147
C  C234  1  0.78840000  0.06940000  0.46060000  1.0 0.091918338
C  C235  1  0.68160000  0.46060000  0.06940000  1.0 0.091918338
C  C236  1  0.06940000  0.78840000  0.68160000  1.0 0.091918338
C  C237  1  0.06940000  0.46060000  0.78840000  1.0 0.091918338
C  C238  1  0.68160000  0.78840000  0.46060000  1.0 0.091918338
C  C239  1  0.78840000  0.68160000  0.06940000  1.0 0.091918338
C  C240  1  0.46060000  0.06940000  0.68160000  1.0 0.091918338
C  C241  1  0.66190000  0.04670000  0.47010000  1.0 -0.1887309
C  C242  1  0.04670000  0.66190000  0.82130000  1.0 -0.1887309
C  C243  1  0.47010000  0.82130000  0.66190000  1.0 -0.1887309
C  C244  1  0.82130000  0.47010000  0.04670000  1.0 -0.1887309
C  C245  1  0.47010000  0.66190000  0.04670000  1.0 -0.1887309
C  C246  1  0.82130000  0.04670000  0.66190000  1.0 -0.1887309
C  C247  1  0.66190000  0.47010000  0.82130000  1.0 -0.1887309
C  C248  1  0.04670000  0.82130000  0.47010000  1.0 -0.1887309
C  C249  1  0.04670000  0.47010000  0.66190000  1.0 -0.1887309
C  C250  1  0.66190000  0.82130000  0.04670000  1.0 -0.1887309
C  C251  1  0.82130000  0.66190000  0.47010000  1.0 -0.1887309
C  C252  1  0.47010000  0.04670000  0.82130000  1.0 -0.1887309
C  C253  1  0.33810000  0.95330000  0.17870000  1.0 -0.1887309
C  C254  1  0.95330000  0.33810000  0.52990000  1.0 -0.1887309
C  C255  1  0.52990000  0.17870000  0.95330000  1.0 -0.1887309
C  C256  1  0.17870000  0.52990000  0.33810000  1.0 -0.1887309
C  C257  1  0.52990000  0.33810000  0.17870000  1.0 -0.1887309
C  C258  1  0.17870000  0.95330000  0.52990000  1.0 -0.1887309
C  C259  1  0.33810000  0.52990000  0.95330000  1.0 -0.1887309
C  C260  1  0.95330000  0.17870000  0.33810000  1.0 -0.1887309
C  C261  1  0.95330000  0.52990000  0.17870000  1.0 -0.1887309
C  C262  1  0.33810000  0.17870000  0.52990000  1.0 -0.1887309
C  C263  1  0.17870000  0.33810000  0.95330000  1.0 -0.1887309
C  C264  1  0.52990000  0.95330000  0.33810000  1.0 -0.1887309
C  C265  1  0.33810000  0.95330000  0.52990000  1.0 -0.1887309
C  C266  1  0.95330000  0.33810000  0.17870000  1.0 -0.1887309
C  C267  1  0.52990000  0.17870000  0.33810000  1.0 -0.1887309
C  C268  1  0.17870000  0.52990000  0.95330000  1.0 -0.1887309
C  C269  1  0.52990000  0.33810000  0.95330000  1.0 -0.1887309
C  C270  1  0.17870000  0.95330000  0.33810000  1.0 -0.1887309
C  C271  1  0.33810000  0.52990000  0.17870000  1.0 -0.1887309
C  C272  1  0.95330000  0.17870000  0.52990000  1.0 -0.1887309
C  C273  1  0.95330000  0.52990000  0.33810000  1.0 -0.1887309
C  C274  1  0.33810000  0.17870000  0.95330000  1.0 -0.1887309
C  C275  1  0.17870000  0.33810000  0.52990000  1.0 -0.1887309
C  C276  1  0.52990000  0.95330000  0.17870000  1.0 -0.1887309
C  C277  1  0.66190000  0.04670000  0.82130000  1.0 -0.1887309
C  C278  1  0.04670000  0.66190000  0.47010000  1.0 -0.1887309
C  C279  1  0.47010000  0.82130000  0.04670000  1.0 -0.1887309
C  C280  1  0.82130000  0.47010000  0.66190000  1.0 -0.1887309
C  C281  1  0.47010000  0.66190000  0.82130000  1.0 -0.1887309
C  C282  1  0.82130000  0.04670000  0.47010000  1.0 -0.1887309
C  C283  1  0.66190000  0.47010000  0.04670000  1.0 -0.1887309
C  C284  1  0.04670000  0.82130000  0.66190000  1.0 -0.1887309
C  C285  1  0.04670000  0.47010000  0.82130000  1.0 -0.1887309
C  C286  1  0.66190000  0.82130000  0.47010000  1.0 -0.1887309
C  C287  1  0.82130000  0.66190000  0.04670000  1.0 -0.1887309
C  C288  1  0.47010000  0.04670000  0.66190000  1.0 -0.1887309
C  C289  1  0.62330000  0.05890000  0.47950000  1.0 -0.0789912676
C  C290  1  0.05890000  0.62330000  0.83830000  1.0 -0.0789912676
C  C291  1  0.47950000  0.83830000  0.62330000  1.0 -0.0789912676
C  C292  1  0.83830000  0.47950000  0.05890000  1.0 -0.0789912676
C  C293  1  0.47950000  0.62330000  0.05890000  1.0 -0.0789912676
C  C294  1  0.83830000  0.05890000  0.62330000  1.0 -0.0789912676
C  C295  1  0.62330000  0.47950000  0.83830000  1.0 -0.0789912676
C  C296  1  0.05890000  0.83830000  0.47950000  1.0 -0.0789912676
C  C297  1  0.05890000  0.47950000  0.62330000  1.0 -0.0789912676
C  C298  1  0.62330000  0.83830000  0.05890000  1.0 -0.0789912676
C  C299  1  0.83830000  0.62330000  0.47950000  1.0 -0.0789912676
C  C300  1  0.47950000  0.05890000  0.83830000  1.0 -0.0789912676
C  C301  1  0.37670000  0.94110000  0.16170000  1.0 -0.0789912676
C  C302  1  0.94110000  0.37670000  0.52050000  1.0 -0.0789912676
C  C303  1  0.52050000  0.16170000  0.94110000  1.0 -0.0789912676
C  C304  1  0.16170000  0.52050000  0.37670000  1.0 -0.0789912676
C  C305  1  0.52050000  0.37670000  0.16170000  1.0 -0.0789912676
C  C306  1  0.16170000  0.94110000  0.52050000  1.0 -0.0789912676
C  C307  1  0.37670000  0.52050000  0.94110000  1.0 -0.0789912676
C  C308  1  0.94110000  0.16170000  0.37670000  1.0 -0.0789912676
C  C309  1  0.94110000  0.52050000  0.16170000  1.0 -0.0789912676
C  C310  1  0.37670000  0.16170000  0.52050000  1.0 -0.0789912676
C  C311  1  0.16170000  0.37670000  0.94110000  1.0 -0.0789912676
C  C312  1  0.52050000  0.94110000  0.37670000  1.0 -0.0789912676
C  C313  1  0.37670000  0.94110000  0.52050000  1.0 -0.0789912676
C  C314  1  0.94110000  0.37670000  0.16170000  1.0 -0.0789912676
C  C315  1  0.52050000  0.16170000  0.37670000  1.0 -0.0789912676
C  C316  1  0.16170000  0.52050000  0.94110000  1.0 -0.0789912676
C  C317  1  0.52050000  0.37670000  0.94110000  1.0 -0.0789912676
C  C318  1  0.16170000  0.94110000  0.37670000  1.0 -0.0789912676
C  C319  1  0.37670000  0.52050000  0.16170000  1.0 -0.0789912676
C  C320  1  0.94110000  0.16170000  0.52050000  1.0 -0.0789912676
C  C321  1  0.94110000  0.52050000  0.37670000  1.0 -0.0789912676
C  C322  1  0.37670000  0.16170000  0.94110000  1.0 -0.0789912676
C  C323  1  0.16170000  0.37670000  0.52050000  1.0 -0.0789912676
C  C324  1  0.52050000  0.94110000  0.16170000  1.0 -0.0789912676
C  C325  1  0.62330000  0.05890000  0.83830000  1.0 -0.0789912676
C  C326  1  0.05890000  0.62330000  0.47950000  1.0 -0.0789912676
C  C327  1  0.47950000  0.83830000  0.05890000  1.0 -0.0789912676
C  C328  1  0.83830000  0.47950000  0.62330000  1.0 -0.0789912676
C  C329  1  0.47950000  0.62330000  0.83830000  1.0 -0.0789912676
C  C330  1  0.83830000  0.05890000  0.47950000  1.0 -0.0789912676
C  C331  1  0.62330000  0.47950000  0.05890000  1.0 -0.0789912676
C  C332  1  0.05890000  0.83830000  0.62330000  1.0 -0.0789912676
C  C333  1  0.05890000  0.47950000  0.83830000  1.0 -0.0789912676
C  C334  1  0.62330000  0.83830000  0.47950000  1.0 -0.0789912676
C  C335  1  0.83830000  0.62330000  0.05890000  1.0 -0.0789912676
C  C336  1  0.47950000  0.05890000  0.62330000  1.0 -0.0789912676
C  C337  1  0.73850000  0.06638000  0.45662000  1.0 -0.2060793278
C  C338  1  0.06638000  0.73850000  0.73850000  1.0 -0.2060793278
C  C339  1  0.45662000  0.73850000  0.73850000  1.0 -0.2060793278
C  C340  1  0.73850000  0.45662000  0.06638000  1.0 -0.2060793278
C  C341  1  0.45662000  0.73850000  0.06638000  1.0 -0.2060793278
C  C342  1  0.73850000  0.06638000  0.73850000  1.0 -0.2060793278
C  C343  1  0.73850000  0.45662000  0.73850000  1.0 -0.2060793278
C  C344  1  0.06638000  0.73850000  0.45662000  1.0 -0.2060793278
C  C345  1  0.06638000  0.45662000  0.73850000  1.0 -0.2060793278
C  C346  1  0.73850000  0.73850000  0.06638000  1.0 -0.2060793278
C  C347  1  0.73850000  0.73850000  0.45662000  1.0 -0.2060793278
C  C348  1  0.45662000  0.06638000  0.73850000  1.0 -0.2060793278
C  C349  1  0.26150000  0.93362000  0.26150000  1.0 -0.2060793278
C  C350  1  0.93362000  0.26150000  0.54338000  1.0 -0.2060793278
C  C351  1  0.54338000  0.26150000  0.93362000  1.0 -0.2060793278
C  C352  1  0.26150000  0.54338000  0.26150000  1.0 -0.2060793278
C  C353  1  0.54338000  0.26150000  0.26150000  1.0 -0.2060793278
C  C354  1  0.26150000  0.93362000  0.54338000  1.0 -0.2060793278
C  C355  1  0.26150000  0.54338000  0.93362000  1.0 -0.2039962089
C  C356  1  0.93362000  0.26150000  0.26150000  1.0 -0.2060793278
C  C357  1  0.93362000  0.54338000  0.26150000  1.0 -0.2060793278
C  C358  1  0.26150000  0.26150000  0.54338000  1.0 -0.2060793278
C  C359  1  0.26150000  0.26150000  0.93362000  1.0 -0.2060793278
C  C360  1  0.54338000  0.93362000  0.26150000  1.0 -0.2060793278
C  C361  1  0.72360000  0.05120000  0.44940000  1.0 0.091918338
C  C362  1  0.05120000  0.72360000  0.77580000  1.0 0.091918338
C  C363  1  0.44940000  0.77580000  0.72360000  1.0 0.091918338
C  C364  1  0.77580000  0.44940000  0.05120000  1.0 0.091918338
C  C365  1  0.44940000  0.72360000  0.05120000  1.0 0.091918338
C  C366  1  0.77580000  0.05120000  0.72360000  1.0 0.091918338
C  C367  1  0.72360000  0.44940000  0.77580000  1.0 0.091918338
C  C368  1  0.05120000  0.77580000  0.44940000  1.0 0.091918338
C  C369  1  0.05120000  0.44940000  0.72360000  1.0 0.091918338
C  C370  1  0.72360000  0.77580000  0.05120000  1.0 0.091918338
C  C371  1  0.77580000  0.72360000  0.44940000  1.0 0.091918338
C  C372  1  0.44940000  0.05120000  0.77580000  1.0 0.091918338
C  C373  1  0.27640000  0.94880000  0.22420000  1.0 0.091918338
C  C374  1  0.94880000  0.27640000  0.55060000  1.0 0.091918338
C  C375  1  0.55060000  0.22420000  0.94880000  1.0 0.091918338
C  C376  1  0.22420000  0.55060000  0.27640000  1.0 0.091918338
C  C377  1  0.55060000  0.27640000  0.22420000  1.0 0.091918338
C  C378  1  0.22420000  0.94880000  0.55060000  1.0 0.091918338
C  C379  1  0.27640000  0.55060000  0.94880000  1.0 0.091918338
C  C380  1  0.94880000  0.22420000  0.27640000  1.0 0.091918338
C  C381  1  0.94880000  0.55060000  0.22420000  1.0 0.091918338
C  C382  1  0.27640000  0.22420000  0.55060000  1.0 0.091918338
C  C383  1  0.22420000  0.27640000  0.94880000  1.0 0.091918338
C  C384  1  0.55060000  0.94880000  0.27640000  1.0 0.091918338
C  C385  1  0.27640000  0.94880000  0.55060000  1.0 0.091918338
C  C386  1  0.94880000  0.27640000  0.22420000  1.0 0.091918338
C  C387  1  0.55060000  0.22420000  0.27640000  1.0 0.091918338
C  C388  1  0.22420000  0.55060000  0.94880000  1.0 0.091918338
C  C389  1  0.55060000  0.27640000  0.94880000  1.0 0.091918338
C  C390  1  0.22420000  0.94880000  0.27640000  1.0 0.091918338
C  C391  1  0.27640000  0.55060000  0.22420000  1.0 0.091918338
C  C392  1  0.94880000  0.22420000  0.55060000  1.0 0.091918338
C  C393  1  0.94880000  0.55060000  0.27640000  1.0 0.091918338
C  C394  1  0.27640000  0.22420000  0.94880000  1.0 0.091918338
C  C395  1  0.22420000  0.27640000  0.55060000  1.0 0.091918338
C  C396  1  0.55060000  0.94880000  0.22420000  1.0 0.091918338
C  C397  1  0.72360000  0.05120000  0.77580000  1.0 0.091918338
C  C398  1  0.05120000  0.72360000  0.44940000  1.0 0.091918338
C  C399  1  0.44940000  0.77580000  0.05120000  1.0 0.091918338
C  C400  1  0.77580000  0.44940000  0.72360000  1.0 0.091918338
C  C401  1  0.44940000  0.72360000  0.77580000  1.0 0.091918338
C  C402  1  0.77580000  0.05120000  0.44940000  1.0 0.091918338
C  C403  1  0.72360000  0.44940000  0.05120000  1.0 0.091918338
C  C404  1  0.05120000  0.77580000  0.72360000  1.0 0.091918338
C  C405  1  0.05120000  0.44940000  0.77580000  1.0 0.091918338
C  C406  1  0.72360000  0.77580000  0.44940000  1.0 0.091918338
C  C407  1  0.77580000  0.72360000  0.05120000  1.0 0.091918338
C  C408  1  0.44940000  0.05120000  0.72360000  1.0 0.091918338
C  C409  1  0.74370000  0.02290000  0.43570000  1.0 -0.1831056865
C  C410  1  0.02290000  0.74370000  0.79770000  1.0 -0.1831056865
C  C411  1  0.43570000  0.79770000  0.74370000  1.0 -0.1831056865
C  C412  1  0.79770000  0.43570000  0.02290000  1.0 -0.1831056865
C  C413  1  0.43570000  0.74370000  0.02290000  1.0 -0.1831056865
C  C414  1  0.79770000  0.02290000  0.74370000  1.0 -0.1831056865
C  C415  1  0.74370000  0.43570000  0.79770000  1.0 -0.1831056865
C  C416  1  0.02290000  0.79770000  0.43570000  1.0 -0.1831056865
C  C417  1  0.02290000  0.43570000  0.74370000  1.0 -0.1831056865
C  C418  1  0.74370000  0.79770000  0.02290000  1.0 -0.1831056865
C  C419  1  0.79770000  0.74370000  0.43570000  1.0 -0.1831056865
C  C420  1  0.43570000  0.02290000  0.79770000  1.0 -0.1831056865
C  C421  1  0.25630000  0.97710000  0.20230000  1.0 -0.1831056865
C  C422  1  0.97710000  0.25630000  0.56430000  1.0 -0.1831056865
C  C423  1  0.56430000  0.20230000  0.97710000  1.0 -0.1831056865
C  C424  1  0.20230000  0.56430000  0.25630000  1.0 -0.1831056865
C  C425  1  0.56430000  0.25630000  0.20230000  1.0 -0.1831056865
C  C426  1  0.20230000  0.97710000  0.56430000  1.0 -0.1831056865
C  C427  1  0.25630000  0.56430000  0.97710000  1.0 -0.1831056865
C  C428  1  0.97710000  0.20230000  0.25630000  1.0 -0.1831056865
C  C429  1  0.97710000  0.56430000  0.20230000  1.0 -0.1831056865
C  C430  1  0.25630000  0.20230000  0.56430000  1.0 -0.1831056865
C  C431  1  0.20230000  0.25630000  0.97710000  1.0 -0.1831056865
C  C432  1  0.56430000  0.97710000  0.25630000  1.0 -0.1831056865
C  C433  1  0.25630000  0.97710000  0.56430000  1.0 -0.1831056865
C  C434  1  0.97710000  0.25630000  0.20230000  1.0 -0.1831056865
C  C435  1  0.56430000  0.20230000  0.25630000  1.0 -0.1831056865
C  C436  1  0.20230000  0.56430000  0.97710000  1.0 -0.1831056865
C  C437  1  0.56430000  0.25630000  0.97710000  1.0 -0.1831056865
C  C438  1  0.20230000  0.97710000  0.25630000  1.0 -0.1831056865
C  C439  1  0.25630000  0.56430000  0.20230000  1.0 -0.1831056865
C  C440  1  0.97710000  0.20230000  0.56430000  1.0 -0.1831056865
C  C441  1  0.97710000  0.56430000  0.25630000  1.0 -0.1831056865
C  C442  1  0.25630000  0.20230000  0.97710000  1.0 -0.1831056865
C  C443  1  0.20230000  0.25630000  0.56430000  1.0 -0.1831056865
C  C444  1  0.56430000  0.97710000  0.20230000  1.0 -0.1831056865
C  C445  1  0.74370000  0.02290000  0.79770000  1.0 -0.1831056865
C  C446  1  0.02290000  0.74370000  0.43570000  1.0 -0.1831056865
C  C447  1  0.43570000  0.79770000  0.02290000  1.0 -0.1831056865
C  C448  1  0.79770000  0.43570000  0.74370000  1.0 -0.1831056865
C  C449  1  0.43570000  0.74370000  0.79770000  1.0 -0.1831056865
C  C450  1  0.79770000  0.02290000  0.43570000  1.0 -0.1831056865
C  C451  1  0.74370000  0.43570000  0.02290000  1.0 -0.1831056865
C  C452  1  0.02290000  0.79770000  0.74370000  1.0 -0.1831056865
C  C453  1  0.02290000  0.43570000  0.79770000  1.0 -0.1831056865
C  C454  1  0.74370000  0.79770000  0.43570000  1.0 -0.1831056865
C  C455  1  0.79770000  0.74370000  0.02290000  1.0 -0.1831056865
C  C456  1  0.43570000  0.02290000  0.74370000  1.0 -0.1831056865
C  C457  1  0.78060000  0.00946000  0.42934000  1.0 0.0274928705
C  C458  1  0.00946000  0.78060000  0.78060000  1.0 0.0274928705
C  C459  1  0.42934000  0.78060000  0.78060000  1.0 0.0274928705
C  C460  1  0.78060000  0.42934000  0.00946000  1.0 0.0274928705
C  C461  1  0.42934000  0.78060000  0.00946000  1.0 0.0274928705
C  C462  1  0.78060000  0.00946000  0.78060000  1.0 0.0274928705
C  C463  1  0.78060000  0.42934000  0.78060000  1.0 0.0274928705
C  C464  1  0.00946000  0.78060000  0.42934000  1.0 0.0274928705
C  C465  1  0.00946000  0.42934000  0.78060000  1.0 0.0274928705
C  C466  1  0.78060000  0.78060000  0.00946000  1.0 0.0274928705
C  C467  1  0.78060000  0.78060000  0.42934000  1.0 0.0274928705
C  C468  1  0.42934000  0.00946000  0.78060000  1.0 0.0274928705
C  C469  1  0.21940000  0.99054000  0.21940000  1.0 0.0274928705
C  C470  1  0.99054000  0.21940000  0.57066000  1.0 0.0274928705
C  C471  1  0.57066000  0.21940000  0.99054000  1.0 0.0274928705
C  C472  1  0.21940000  0.57066000  0.21940000  1.0 0.0274928705
C  C473  1  0.57066000  0.21940000  0.21940000  1.0 0.0274928705
C  C474  1  0.21940000  0.99054000  0.57066000  1.0 0.0274928705
C  C475  1  0.21940000  0.57066000  0.99054000  1.0 0.0274928705
C  C476  1  0.99054000  0.21940000  0.21940000  1.0 0.0274928705
C  C477  1  0.99054000  0.57066000  0.21940000  1.0 0.0274928705
C  C478  1  0.21940000  0.21940000  0.57066000  1.0 0.0274928705
C  C479  1  0.21940000  0.21940000  0.99054000  1.0 0.0274928705
C  C480  1  0.57066000  0.99054000  0.21940000  1.0 0.0274928705
C  C481  1  0.80080000  0.97960000  0.41880000  1.0 0.216621576
C  C482  1  0.97960000  0.80080000  0.80080000  1.0 0.2142201536
C  C483  1  0.41880000  0.80080000  0.80080000  1.0 0.216621576
C  C484  1  0.80080000  0.41880000  0.97960000  1.0 0.216621576
C  C485  1  0.41880000  0.80080000  0.97960000  1.0 0.216621576
C  C486  1  0.80080000  0.97960000  0.80080000  1.0 0.216621576
C  C487  1  0.80080000  0.41880000  0.80080000  1.0 0.216621576
C  C488  1  0.97960000  0.80080000  0.41880000  1.0 0.216621576
C  C489  1  0.97960000  0.41880000  0.80080000  1.0 0.216621576
C  C490  1  0.80080000  0.80080000  0.97960000  1.0 0.216621576
C  C491  1  0.80080000  0.80080000  0.41880000  1.0 0.2142201536
C  C492  1  0.41880000  0.97960000  0.80080000  1.0 0.216621576
C  C493  1  0.19920000  0.02040000  0.19920000  1.0 0.216621576
C  C494  1  0.02040000  0.19920000  0.58120000  1.0 0.216621576
C  C495  1  0.58120000  0.19920000  0.02040000  1.0 0.216621576
C  C496  1  0.19920000  0.58120000  0.19920000  1.0 0.216621576
C  C497  1  0.58120000  0.19920000  0.19920000  1.0 0.216621576
C  C498  1  0.19920000  0.02040000  0.58120000  1.0 0.216621576
C  C499  1  0.19920000  0.58120000  0.02040000  1.0 0.216621576
C  C500  1  0.02040000  0.19920000  0.19920000  1.0 0.216621576
C  C501  1  0.02040000  0.58120000  0.19920000  1.0 0.216621576
C  C502  1  0.19920000  0.19920000  0.58120000  1.0 0.216621576
C  C503  1  0.19920000  0.19920000  0.02040000  1.0 0.216621576
C  C504  1  0.58120000  0.02040000  0.19920000  1.0 0.216621576
N  N1  1  0.78970000  0.96090000  0.41110000  1.0 -0.239028795
N  N2  1  0.96090000  0.78970000  0.83830000  1.0 -0.2315974619
N  N3  1  0.41110000  0.83830000  0.78970000  1.0 -0.239028795
N  N4  1  0.83830000  0.41110000  0.96090000  1.0 -0.239028795
N  N5  1  0.41110000  0.78970000  0.96090000  1.0 -0.246525032
N  N6  1  0.83830000  0.96090000  0.78970000  1.0 -0.2315974619
N  N7  1  0.78970000  0.41110000  0.83830000  1.0 -0.239028795
N  N8  1  0.96090000  0.83830000  0.41110000  1.0 -0.2315974619
N  N9  1  0.96090000  0.41110000  0.78970000  1.0 -0.239028795
N  N10  1  0.78970000  0.83830000  0.96090000  1.0 -0.2315974619
N  N11  1  0.83830000  0.78970000  0.41110000  1.0 -0.2315974619
N  N12  1  0.41110000  0.96090000  0.83830000  1.0 -0.239028795
N  N13  1  0.21030000  0.03910000  0.16170000  1.0 -0.239028795
N  N14  1  0.03910000  0.21030000  0.58890000  1.0 -0.2315974619
N  N15  1  0.58890000  0.16170000  0.03910000  1.0 -0.239028795
N  N16  1  0.16170000  0.58890000  0.21030000  1.0 -0.239028795
N  N17  1  0.58890000  0.21030000  0.16170000  1.0 -0.239028795
N  N18  1  0.16170000  0.03910000  0.58890000  1.0 -0.2315974619
N  N19  1  0.21030000  0.58890000  0.03910000  1.0 -0.2315974619
N  N20  1  0.03910000  0.16170000  0.21030000  1.0 -0.2315974619
N  N21  1  0.03910000  0.58890000  0.16170000  1.0 -0.239028795
N  N22  1  0.21030000  0.16170000  0.58890000  1.0 -0.239028795
N  N23  1  0.16170000  0.21030000  0.03910000  1.0 -0.2315974619
N  N24  1  0.58890000  0.03910000  0.21030000  1.0 -0.2315974619
N  N25  1  0.21030000  0.03910000  0.58890000  1.0 -0.2315974619
N  N26  1  0.03910000  0.21030000  0.16170000  1.0 -0.2315974619
N  N27  1  0.58890000  0.16170000  0.21030000  1.0 -0.2315974619
N  N28  1  0.16170000  0.58890000  0.03910000  1.0 -0.2315974619
N  N29  1  0.58890000  0.21030000  0.03910000  1.0 -0.2315974619
N  N30  1  0.16170000  0.03910000  0.21030000  1.0 -0.2315974619
N  N31  1  0.21030000  0.58890000  0.16170000  1.0 -0.2315974619
N  N32  1  0.03910000  0.16170000  0.58890000  1.0 -0.239028795
N  N33  1  0.03910000  0.58890000  0.21030000  1.0 -0.2315974619
N  N34  1  0.21030000  0.16170000  0.03910000  1.0 -0.2315974619
N  N35  1  0.16170000  0.21030000  0.58890000  1.0 -0.239028795
N  N36  1  0.58890000  0.03910000  0.16170000  1.0 -0.239028795
N  N37  1  0.78970000  0.96090000  0.83830000  1.0 -0.2315974619
N  N38  1  0.96090000  0.78970000  0.41110000  1.0 -0.2315974619
N  N39  1  0.41110000  0.83830000  0.96090000  1.0 -0.246525032
N  N40  1  0.83830000  0.41110000  0.78970000  1.0 -0.2315974619
N  N41  1  0.41110000  0.78970000  0.83830000  1.0 -0.239028795
N  N42  1  0.83830000  0.96090000  0.41110000  1.0 -0.239028795
N  N43  1  0.78970000  0.41110000  0.96090000  1.0 -0.239028795
N  N44  1  0.96090000  0.83830000  0.78970000  1.0 -0.2315974619
N  N45  1  0.96090000  0.41110000  0.83830000  1.0 -0.239028795
N  N46  1  0.78970000  0.83830000  0.41110000  1.0 -0.2315974619
N  N47  1  0.83830000  0.78970000  0.96090000  1.0 -0.2315974619
N  N48  1  0.41110000  0.96090000  0.78970000  1.0 -0.239028795
N  N49  1  0.81860000  0.93260000  0.39960000  1.0 -0.0098628119
N  N50  1  0.93260000  0.81860000  0.84920000  1.0 -0.0182084243
N  N51  1  0.39960000  0.84920000  0.81860000  1.0 -0.0259427676
N  N52  1  0.84920000  0.39960000  0.93260000  1.0 -0.0098628119
N  N53  1  0.39960000  0.81860000  0.93260000  1.0 -0.0098628119
N  N54  1  0.84920000  0.93260000  0.81860000  1.0 -0.0098628119
N  N55  1  0.81860000  0.39960000  0.84920000  1.0 -0.0259427676
N  N56  1  0.93260000  0.84920000  0.39960000  1.0 -0.0182084243
N  N57  1  0.93260000  0.39960000  0.81860000  1.0 -0.0259427676
N  N58  1  0.81860000  0.84920000  0.93260000  1.0 -0.0182084243
N  N59  1  0.84920000  0.81860000  0.39960000  1.0 -0.0098628119
N  N60  1  0.39960000  0.93260000  0.84920000  1.0 -0.0182084243
N  N61  1  0.18140000  0.06740000  0.15080000  1.0 -0.0182084243
N  N62  1  0.06740000  0.18140000  0.60040000  1.0 -0.0098628119
N  N63  1  0.60040000  0.15080000  0.06740000  1.0 -0.0098628119
N  N64  1  0.15080000  0.60040000  0.18140000  1.0 -0.0098628119
N  N65  1  0.60040000  0.18140000  0.15080000  1.0 -0.0098628119
N  N66  1  0.15080000  0.06740000  0.60040000  1.0 -0.0259427676
N  N67  1  0.18140000  0.60040000  0.06740000  1.0 -0.0098628119
N  N68  1  0.06740000  0.15080000  0.18140000  1.0 -0.0098628119
N  N69  1  0.06740000  0.60040000  0.15080000  1.0 -0.0182084243
N  N70  1  0.18140000  0.15080000  0.60040000  1.0 -0.0182084243
N  N71  1  0.15080000  0.18140000  0.06740000  1.0 -0.0182084243
N  N72  1  0.60040000  0.06740000  0.18140000  1.0 -0.0098628119
N  N73  1  0.18140000  0.06740000  0.60040000  1.0 -0.0259427676
N  N74  1  0.06740000  0.18140000  0.15080000  1.0 -0.0098628119
N  N75  1  0.60040000  0.15080000  0.18140000  1.0 -0.0098628119
N  N76  1  0.15080000  0.60040000  0.06740000  1.0 -0.0098628119
N  N77  1  0.60040000  0.18140000  0.06740000  1.0 -0.0182084243
N  N78  1  0.15080000  0.06740000  0.18140000  1.0 -0.0098628119
N  N79  1  0.18140000  0.60040000  0.15080000  1.0 -0.0182084243
N  N80  1  0.06740000  0.15080000  0.60040000  1.0 -0.0182084243
N  N81  1  0.06740000  0.60040000  0.18140000  1.0 -0.0098628119
N  N82  1  0.18140000  0.15080000  0.06740000  1.0 -0.0182084243
N  N83  1  0.15080000  0.18140000  0.60040000  1.0 -0.0182084243
N  N84  1  0.60040000  0.06740000  0.15080000  1.0 -0.0098628119
N  N85  1  0.81860000  0.93260000  0.84920000  1.0 -0.0182084243
N  N86  1  0.93260000  0.81860000  0.39960000  1.0 -0.0098628119
N  N87  1  0.39960000  0.84920000  0.93260000  1.0 -0.0098628119
N  N88  1  0.84920000  0.39960000  0.81860000  1.0 -0.0182084243
N  N89  1  0.39960000  0.81860000  0.84920000  1.0 -0.0098628119
N  N90  1  0.84920000  0.93260000  0.39960000  1.0 -0.0098628119
N  N91  1  0.81860000  0.39960000  0.93260000  1.0 -0.0098628119
N  N92  1  0.93260000  0.84920000  0.81860000  1.0 -0.0182084243
N  N93  1  0.93260000  0.39960000  0.84920000  1.0 -0.0259427676
N  N94  1  0.81860000  0.84920000  0.39960000  1.0 -0.0182084243
N  N95  1  0.84920000  0.81860000  0.93260000  1.0 -0.0259427676
N  N96  1  0.39960000  0.93260000  0.81860000  1.0 -0.0098628119
O  O1  1  0.87110000  0.87110000  0.38670000  1.0 -0.7221282697
O  O2  1  0.87110000  0.87110000  0.87110000  1.0 -0.7221282697
O  O3  1  0.38670000  0.87110000  0.87110000  1.0 -0.7256605204
O  O4  1  0.87110000  0.38670000  0.87110000  1.0 -0.7256605204
O  O5  1  0.12890000  0.12890000  0.12890000  1.0 -0.7221282697
O  O6  1  0.12890000  0.12890000  0.61330000  1.0 -0.7256605204
O  O7  1  0.61330000  0.12890000  0.12890000  1.0 -0.7221282697
O  O8  1  0.12890000  0.61330000  0.12890000  1.0 -0.7221282697
O  O9  1  0.55462000  0.13804000  0.49112000  1.0 -0.519601498
O  O10  1  0.13804000  0.55462000  0.81622000  1.0 -0.519601498
O  O11  1  0.49112000  0.81622000  0.55462000  1.0 -0.519601498
O  O12  1  0.81622000  0.49112000  0.13804000  1.0 -0.519601498
O  O13  1  0.49112000  0.55462000  0.13804000  1.0 -0.519601498
O  O14  1  0.81622000  0.13804000  0.55462000  1.0 -0.519601498
O  O15  1  0.55462000  0.49112000  0.81622000  1.0 -0.519601498
O  O16  1  0.13804000  0.81622000  0.49112000  1.0 -0.519601498
O  O17  1  0.13804000  0.49112000  0.55462000  1.0 -0.519601498
O  O18  1  0.55462000  0.81622000  0.13804000  1.0 -0.519601498
O  O19  1  0.81622000  0.55462000  0.49112000  1.0 -0.519601498
O  O20  1  0.49112000  0.13804000  0.81622000  1.0 -0.519601498
O  O21  1  0.44538000  0.86196000  0.18378000  1.0 -0.519601498
O  O22  1  0.86196000  0.44538000  0.50888000  1.0 -0.519601498
O  O23  1  0.50888000  0.18378000  0.86196000  1.0 -0.519601498
O  O24  1  0.18378000  0.50888000  0.44538000  1.0 -0.519601498
O  O25  1  0.50888000  0.44538000  0.18378000  1.0 -0.519601498
O  O26  1  0.18378000  0.86196000  0.50888000  1.0 -0.519601498
O  O27  1  0.44538000  0.50888000  0.86196000  1.0 -0.519601498
O  O28  1  0.86196000  0.18378000  0.44538000  1.0 -0.519601498
O  O29  1  0.86196000  0.50888000  0.18378000  1.0 -0.519601498
O  O30  1  0.44538000  0.18378000  0.50888000  1.0 -0.519601498
O  O31  1  0.18378000  0.44538000  0.86196000  1.0 -0.519601498
O  O32  1  0.50888000  0.86196000  0.44538000  1.0 -0.519601498
O  O33  1  0.44538000  0.86196000  0.50888000  1.0 -0.519601498
O  O34  1  0.86196000  0.44538000  0.18378000  1.0 -0.519601498
O  O35  1  0.50888000  0.18378000  0.44538000  1.0 -0.519601498
O  O36  1  0.18378000  0.50888000  0.86196000  1.0 -0.519601498
O  O37  1  0.50888000  0.44538000  0.86196000  1.0 -0.519601498
O  O38  1  0.18378000  0.86196000  0.44538000  1.0 -0.519601498
O  O39  1  0.44538000  0.50888000  0.18378000  1.0 -0.519601498
O  O40  1  0.86196000  0.18378000  0.50888000  1.0 -0.519601498
O  O41  1  0.86196000  0.50888000  0.44538000  1.0 -0.519601498
O  O42  1  0.44538000  0.18378000  0.86196000  1.0 -0.519601498
O  O43  1  0.18378000  0.44538000  0.50888000  1.0 -0.519601498
O  O44  1  0.50888000  0.86196000  0.18378000  1.0 -0.519601498
O  O45  1  0.55462000  0.13804000  0.81622000  1.0 -0.519601498
O  O46  1  0.13804000  0.55462000  0.49112000  1.0 -0.519601498
O  O47  1  0.49112000  0.81622000  0.13804000  1.0 -0.519601498
O  O48  1  0.81622000  0.49112000  0.55462000  1.0 -0.519601498
O  O49  1  0.49112000  0.55462000  0.81622000  1.0 -0.519601498
O  O50  1  0.81622000  0.13804000  0.49112000  1.0 -0.519601498
O  O51  1  0.55462000  0.49112000  0.13804000  1.0 -0.519601498
O  O52  1  0.13804000  0.81622000  0.55462000  1.0 -0.519601498
O  O53  1  0.13804000  0.49112000  0.81622000  1.0 -0.519601498
O  O54  1  0.55462000  0.81622000  0.49112000  1.0 -0.519601498
O  O55  1  0.81622000  0.55462000  0.13804000  1.0 -0.519601498
O  O56  1  0.49112000  0.13804000  0.55462000  1.0 -0.519601498
O  O57  1  0.55142000  0.08780000  0.49108000  1.0 -0.5018161847
O  O58  1  0.08780000  0.55142000  0.86970000  1.0 -0.5018161847
O  O59  1  0.49108000  0.86970000  0.55142000  1.0 -0.5018161847
O  O60  1  0.86970000  0.49108000  0.08780000  1.0 -0.5018161847
O  O61  1  0.49108000  0.55142000  0.08780000  1.0 -0.5018161847
O  O62  1  0.86970000  0.08780000  0.55142000  1.0 -0.5018161847
O  O63  1  0.55142000  0.49108000  0.86970000  1.0 -0.5018161847
O  O64  1  0.08780000  0.86970000  0.49108000  1.0 -0.5018161847
O  O65  1  0.08780000  0.49108000  0.55142000  1.0 -0.5018161847
O  O66  1  0.55142000  0.86970000  0.08780000  1.0 -0.5018161847
O  O67  1  0.86970000  0.55142000  0.49108000  1.0 -0.5018161847
O  O68  1  0.49108000  0.08780000  0.86970000  1.0 -0.5018161847
O  O69  1  0.44858000  0.91220000  0.13030000  1.0 -0.5018161847
O  O70  1  0.91220000  0.44858000  0.50892000  1.0 -0.5018161847
O  O71  1  0.50892000  0.13030000  0.91220000  1.0 -0.5018161847
O  O72  1  0.13030000  0.50892000  0.44858000  1.0 -0.5018161847
O  O73  1  0.50892000  0.44858000  0.13030000  1.0 -0.5018161847
O  O74  1  0.13030000  0.91220000  0.50892000  1.0 -0.5018161847
O  O75  1  0.44858000  0.50892000  0.91220000  1.0 -0.5018161847
O  O76  1  0.91220000  0.13030000  0.44858000  1.0 -0.5018161847
O  O77  1  0.91220000  0.50892000  0.13030000  1.0 -0.5018161847
O  O78  1  0.44858000  0.13030000  0.50892000  1.0 -0.5018161847
O  O79  1  0.13030000  0.44858000  0.91220000  1.0 -0.5018161847
O  O80  1  0.50892000  0.91220000  0.44858000  1.0 -0.5018161847
O  O81  1  0.44858000  0.91220000  0.50892000  1.0 -0.5018161847
O  O82  1  0.91220000  0.44858000  0.13030000  1.0 -0.5018161847
O  O83  1  0.50892000  0.13030000  0.44858000  1.0 -0.5018161847
O  O84  1  0.13030000  0.50892000  0.91220000  1.0 -0.5018161847
O  O85  1  0.50892000  0.44858000  0.91220000  1.0 -0.5018161847
O  O86  1  0.13030000  0.91220000  0.44858000  1.0 -0.5018161847
O  O87  1  0.44858000  0.50892000  0.13030000  1.0 -0.5018161847
O  O88  1  0.91220000  0.13030000  0.50892000  1.0 -0.5018161847
O  O89  1  0.91220000  0.50892000  0.44858000  1.0 -0.5018161847
O  O90  1  0.44858000  0.13030000  0.91220000  1.0 -0.5018161847
O  O91  1  0.13030000  0.44858000  0.50892000  1.0 -0.5018161847
O  O92  1  0.50892000  0.91220000  0.13030000  1.0 -0.5018161847
O  O93  1  0.55142000  0.08780000  0.86970000  1.0 -0.5018161847
O  O94  1  0.08780000  0.55142000  0.49108000  1.0 -0.5018161847
O  O95  1  0.49108000  0.86970000  0.08780000  1.0 -0.5018161847
O  O96  1  0.86970000  0.49108000  0.55142000  1.0 -0.5018161847
O  O97  1  0.49108000  0.55142000  0.86970000  1.0 -0.5018161847
O  O98  1  0.86970000  0.08780000  0.49108000  1.0 -0.5018161847
O  O99  1  0.55142000  0.49108000  0.08780000  1.0 -0.5018161847
O  O100  1  0.08780000  0.86970000  0.55142000  1.0 -0.5018161847
O  O101  1  0.08780000  0.49108000  0.86970000  1.0 -0.5018161847
O  O102  1  0.55142000  0.86970000  0.49108000  1.0 -0.5018161847
O  O103  1  0.86970000  0.55142000  0.08780000  1.0 -0.5018161847
O  O104  1  0.49108000  0.08780000  0.55142000  1.0 -0.5018161847
