# DDEC6 charges by PACMAN v1.1 (https://github.com/mtap-research/PACMAN-charge/)
data_ADATEG_FSR_pacman
_symmetry_space_group_name_H-M   'P 1'
_cell_length_a   48.51040000
_cell_length_b   48.51040000
_cell_length_c   48.51040000
_cell_angle_alpha   60.00000000
_cell_angle_beta   60.00000000
_cell_angle_gamma   60.00000000
_symmetry_Int_Tables_number   1
_chemical_formula_structural   Cu6H114C198N2O27
_chemical_formula_sum   'Cu24 H456 C792 N8 O108'
_cell_volume   80721.56425006
_cell_formula_units_Z   4
loop_
 _symmetry_equiv_pos_site_id
 _symmetry_equiv_pos_as_xyz
  1  'x, y, z'
loop_
 _atom_site_type_symbol
 _atom_site_label
 _atom_site_symmetry_multiplicity
 _atom_site_fract_x
 _atom_site_fract_y
 _atom_site_fract_z
 _atom_site_occupancy
 _atom_site_charge
Cu  Cu1  1  0.00000000  0.36766000  0.63234000  1.0 0.8093811473
Cu  Cu2  1  0.36766000  0.00000000  0.00000000  1.0 0.8093811473
Cu  Cu3  1  0.63234000  0.00000000  0.00000000  1.0 0.8093811473
Cu  Cu4  1  0.00000000  0.63234000  0.36766000  1.0 0.8167547684
Cu  Cu5  1  0.63234000  0.00000000  0.36766000  1.0 0.8167547684
Cu  Cu6  1  0.00000000  0.36766000  0.00000000  1.0 0.8093811473
Cu  Cu7  1  0.00000000  0.63234000  0.00000000  1.0 0.8093811473
Cu  Cu8  1  0.36766000  0.00000000  0.63234000  1.0 0.8093811473
Cu  Cu9  1  0.36766000  0.63234000  0.00000000  1.0 0.8093811473
Cu  Cu10  1  0.00000000  0.00000000  0.36766000  1.0 0.8167547684
Cu  Cu11  1  0.00000000  0.00000000  0.63234000  1.0 0.8093811473
Cu  Cu12  1  0.63234000  0.36766000  0.00000000  1.0 0.8093811473
Cu  Cu13  1  0.00000000  0.31436000  0.68564000  1.0 0.7928767105
Cu  Cu14  1  0.31436000  0.00000000  0.00000000  1.0 0.7928767105
Cu  Cu15  1  0.68564000  0.00000000  0.00000000  1.0 0.7928767105
Cu  Cu16  1  0.00000000  0.68564000  0.31436000  1.0 0.7928767105
Cu  Cu17  1  0.68564000  0.00000000  0.31436000  1.0 0.7928767105
Cu  Cu18  1  0.00000000  0.31436000  0.00000000  1.0 0.7928767105
Cu  Cu19  1  0.00000000  0.68564000  0.00000000  1.0 0.8093811473
Cu  Cu20  1  0.31436000  0.00000000  0.68564000  1.0 0.8093811473
Cu  Cu21  1  0.31436000  0.68564000  0.00000000  1.0 0.7928767105
Cu  Cu22  1  0.00000000  0.00000000  0.31436000  1.0 0.7928767105
Cu  Cu23  1  0.00000000  0.00000000  0.68564000  1.0 0.8093811473
Cu  Cu24  1  0.68564000  0.31436000  0.00000000  1.0 0.7928767105
H  H1  1  0.97750000  0.34010000  0.57850000  1.0 0.1304287441
H  H2  1  0.34010000  0.97750000  0.10390000  1.0 0.1304287441
H  H3  1  0.57850000  0.10390000  0.97750000  1.0 0.1304287441
H  H4  1  0.10390000  0.57850000  0.34010000  1.0 0.1304287441
H  H5  1  0.57850000  0.97750000  0.34010000  1.0 0.1304287441
H  H6  1  0.10390000  0.34010000  0.97750000  1.0 0.1304287441
H  H7  1  0.97750000  0.57850000  0.10390000  1.0 0.1304287441
H  H8  1  0.34010000  0.10390000  0.57850000  1.0 0.1304287441
H  H9  1  0.34010000  0.57850000  0.97750000  1.0 0.1304287441
H  H10  1  0.97750000  0.10390000  0.34010000  1.0 0.1304287441
H  H11  1  0.10390000  0.97750000  0.57850000  1.0 0.1304287441
H  H12  1  0.57850000  0.34010000  0.10390000  1.0 0.1304287441
H  H13  1  0.02250000  0.65990000  0.89610000  1.0 0.1304287441
H  H14  1  0.65990000  0.02250000  0.42150000  1.0 0.1304287441
H  H15  1  0.42150000  0.89610000  0.65990000  1.0 0.1304287441
H  H16  1  0.89610000  0.42150000  0.02250000  1.0 0.1304287441
H  H17  1  0.42150000  0.02250000  0.89610000  1.0 0.1304287441
H  H18  1  0.89610000  0.65990000  0.42150000  1.0 0.1304287441
H  H19  1  0.02250000  0.42150000  0.65990000  1.0 0.1304287441
H  H20  1  0.65990000  0.89610000  0.02250000  1.0 0.1304287441
H  H21  1  0.65990000  0.42150000  0.89610000  1.0 0.1304287441
H  H22  1  0.02250000  0.89610000  0.42150000  1.0 0.1304287441
H  H23  1  0.89610000  0.02250000  0.65990000  1.0 0.1304287441
H  H24  1  0.42150000  0.65990000  0.02250000  1.0 0.1304287441
H  H25  1  0.02250000  0.65990000  0.42150000  1.0 0.1304287441
H  H26  1  0.65990000  0.02250000  0.89610000  1.0 0.1304287441
H  H27  1  0.42150000  0.89610000  0.02250000  1.0 0.1304287441
H  H28  1  0.89610000  0.42150000  0.65990000  1.0 0.1304287441
H  H29  1  0.42150000  0.02250000  0.65990000  1.0 0.1304287441
H  H30  1  0.89610000  0.65990000  0.02250000  1.0 0.1304287441
H  H31  1  0.02250000  0.42150000  0.89610000  1.0 0.1304287441
H  H32  1  0.65990000  0.89610000  0.42150000  1.0 0.1304287441
H  H33  1  0.65990000  0.42150000  0.02250000  1.0 0.1304287441
H  H34  1  0.02250000  0.89610000  0.65990000  1.0 0.1304287441
H  H35  1  0.89610000  0.02250000  0.42150000  1.0 0.1304287441
H  H36  1  0.42150000  0.65990000  0.89610000  1.0 0.1304287441
H  H37  1  0.97750000  0.34010000  0.10390000  1.0 0.1304287441
H  H38  1  0.34010000  0.97750000  0.57850000  1.0 0.1304287441
H  H39  1  0.57850000  0.10390000  0.34010000  1.0 0.1304287441
H  H40  1  0.10390000  0.57850000  0.97750000  1.0 0.1304287441
H  H41  1  0.57850000  0.97750000  0.10390000  1.0 0.1304287441
H  H42  1  0.10390000  0.34010000  0.57850000  1.0 0.1304287441
H  H43  1  0.97750000  0.57850000  0.34010000  1.0 0.1304287441
H  H44  1  0.34010000  0.10390000  0.97750000  1.0 0.1304287441
H  H45  1  0.34010000  0.57850000  0.10390000  1.0 0.1304287441
H  H46  1  0.97750000  0.10390000  0.57850000  1.0 0.1304287441
H  H47  1  0.10390000  0.97750000  0.34010000  1.0 0.1304287441
H  H48  1  0.57850000  0.34010000  0.97750000  1.0 0.1304287441
H  H49  1  0.96360000  0.31760000  0.55640000  1.0 0.1157834092
H  H50  1  0.31760000  0.96360000  0.16240000  1.0 0.1157834092
H  H51  1  0.55640000  0.16240000  0.96360000  1.0 0.1157834092
H  H52  1  0.16240000  0.55640000  0.31760000  1.0 0.1157834092
H  H53  1  0.55640000  0.96360000  0.31760000  1.0 0.1157834092
H  H54  1  0.16240000  0.31760000  0.96360000  1.0 0.1157834092
H  H55  1  0.96360000  0.55640000  0.16240000  1.0 0.1157834092
H  H56  1  0.31760000  0.16240000  0.55640000  1.0 0.1157834092
H  H57  1  0.31760000  0.55640000  0.96360000  1.0 0.1157834092
H  H58  1  0.96360000  0.16240000  0.31760000  1.0 0.1157834092
H  H59  1  0.16240000  0.96360000  0.55640000  1.0 0.1157834092
H  H60  1  0.55640000  0.31760000  0.16240000  1.0 0.1157834092
H  H61  1  0.03640000  0.68240000  0.83760000  1.0 0.1157834092
H  H62  1  0.68240000  0.03640000  0.44360000  1.0 0.1157834092
H  H63  1  0.44360000  0.83760000  0.68240000  1.0 0.1157834092
H  H64  1  0.83760000  0.44360000  0.03640000  1.0 0.1157834092
H  H65  1  0.44360000  0.03640000  0.83760000  1.0 0.1157834092
H  H66  1  0.83760000  0.68240000  0.44360000  1.0 0.1157834092
H  H67  1  0.03640000  0.44360000  0.68240000  1.0 0.1157834092
H  H68  1  0.68240000  0.83760000  0.03640000  1.0 0.1157834092
H  H69  1  0.68240000  0.44360000  0.83760000  1.0 0.1157834092
H  H70  1  0.03640000  0.83760000  0.44360000  1.0 0.1157834092
H  H71  1  0.83760000  0.03640000  0.68240000  1.0 0.1157834092
H  H72  1  0.44360000  0.68240000  0.03640000  1.0 0.1157834092
H  H73  1  0.03640000  0.68240000  0.44360000  1.0 0.1157834092
H  H74  1  0.68240000  0.03640000  0.83760000  1.0 0.1157834092
H  H75  1  0.44360000  0.83760000  0.03640000  1.0 0.1157834092
H  H76  1  0.83760000  0.44360000  0.68240000  1.0 0.1157834092
H  H77  1  0.44360000  0.03640000  0.68240000  1.0 0.1157834092
H  H78  1  0.83760000  0.68240000  0.03640000  1.0 0.1157834092
H  H79  1  0.03640000  0.44360000  0.83760000  1.0 0.1157834092
H  H80  1  0.68240000  0.83760000  0.44360000  1.0 0.1157834092
H  H81  1  0.68240000  0.44360000  0.03640000  1.0 0.1157834092
H  H82  1  0.03640000  0.83760000  0.68240000  1.0 0.1157834092
H  H83  1  0.83760000  0.03640000  0.44360000  1.0 0.1157834092
H  H84  1  0.44360000  0.68240000  0.83760000  1.0 0.1157834092
H  H85  1  0.96360000  0.31760000  0.16240000  1.0 0.1157834092
H  H86  1  0.31760000  0.96360000  0.55640000  1.0 0.1157834092
H  H87  1  0.55640000  0.16240000  0.31760000  1.0 0.1157834092
H  H88  1  0.16240000  0.55640000  0.96360000  1.0 0.1157834092
H  H89  1  0.55640000  0.96360000  0.16240000  1.0 0.1157834092
H  H90  1  0.16240000  0.31760000  0.55640000  1.0 0.1157834092
H  H91  1  0.96360000  0.55640000  0.31760000  1.0 0.1157834092
H  H92  1  0.31760000  0.16240000  0.96360000  1.0 0.1157834092
H  H93  1  0.31760000  0.55640000  0.16240000  1.0 0.1157834092
H  H94  1  0.96360000  0.16240000  0.55640000  1.0 0.1157834092
H  H95  1  0.16240000  0.96360000  0.31760000  1.0 0.1157834092
H  H96  1  0.55640000  0.31760000  0.96360000  1.0 0.1157834092
H  H97  1  0.96220000  0.23480000  0.64060000  1.0 0.1112649729
H  H98  1  0.23480000  0.96220000  0.16240000  1.0 0.1112649729
H  H99  1  0.64060000  0.16240000  0.96220000  1.0 0.1112649729
H  H100  1  0.16240000  0.64060000  0.23480000  1.0 0.1112649729
H  H101  1  0.64060000  0.96220000  0.23480000  1.0 0.1112649729
H  H102  1  0.16240000  0.23480000  0.96220000  1.0 0.1112649729
H  H103  1  0.96220000  0.64060000  0.16240000  1.0 0.1112649729
H  H104  1  0.23480000  0.16240000  0.64060000  1.0 0.1112649729
H  H105  1  0.23480000  0.64060000  0.96220000  1.0 0.1112649729
H  H106  1  0.96220000  0.16240000  0.23480000  1.0 0.1112649729
H  H107  1  0.16240000  0.96220000  0.64060000  1.0 0.1112649729
H  H108  1  0.64060000  0.23480000  0.16240000  1.0 0.1112649729
H  H109  1  0.03780000  0.76520000  0.83760000  1.0 0.1112649729
H  H110  1  0.76520000  0.03780000  0.35940000  1.0 0.1112649729
H  H111  1  0.35940000  0.83760000  0.76520000  1.0 0.1112649729
H  H112  1  0.83760000  0.35940000  0.03780000  1.0 0.1112649729
H  H113  1  0.35940000  0.03780000  0.83760000  1.0 0.1112649729
H  H114  1  0.83760000  0.76520000  0.35940000  1.0 0.1112649729
H  H115  1  0.03780000  0.35940000  0.76520000  1.0 0.1112649729
H  H116  1  0.76520000  0.83760000  0.03780000  1.0 0.1112649729
H  H117  1  0.76520000  0.35940000  0.83760000  1.0 0.1112649729
H  H118  1  0.03780000  0.83760000  0.35940000  1.0 0.1112649729
H  H119  1  0.83760000  0.03780000  0.76520000  1.0 0.1112649729
H  H120  1  0.35940000  0.76520000  0.03780000  1.0 0.1112649729
H  H121  1  0.03780000  0.76520000  0.35940000  1.0 0.1112649729
H  H122  1  0.76520000  0.03780000  0.83760000  1.0 0.1112649729
H  H123  1  0.35940000  0.83760000  0.03780000  1.0 0.1112649729
H  H124  1  0.83760000  0.35940000  0.76520000  1.0 0.1112649729
H  H125  1  0.35940000  0.03780000  0.76520000  1.0 0.1112649729
H  H126  1  0.83760000  0.76520000  0.03780000  1.0 0.1112649729
H  H127  1  0.03780000  0.35940000  0.83760000  1.0 0.1112649729
H  H128  1  0.76520000  0.83760000  0.35940000  1.0 0.1112649729
H  H129  1  0.76520000  0.35940000  0.03780000  1.0 0.1112649729
H  H130  1  0.03780000  0.83760000  0.76520000  1.0 0.1112649729
H  H131  1  0.83760000  0.03780000  0.35940000  1.0 0.1112649729
H  H132  1  0.35940000  0.76520000  0.83760000  1.0 0.1112649729
H  H133  1  0.96220000  0.23480000  0.16240000  1.0 0.1112649729
H  H134  1  0.23480000  0.96220000  0.64060000  1.0 0.1112649729
H  H135  1  0.64060000  0.16240000  0.23480000  1.0 0.1112649729
H  H136  1  0.16240000  0.64060000  0.96220000  1.0 0.1112649729
H  H137  1  0.64060000  0.96220000  0.16240000  1.0 0.1112649729
H  H138  1  0.16240000  0.23480000  0.64060000  1.0 0.1112649729
H  H139  1  0.96220000  0.64060000  0.23480000  1.0 0.1112649729
H  H140  1  0.23480000  0.16240000  0.96220000  1.0 0.1112649729
H  H141  1  0.23480000  0.64060000  0.16240000  1.0 0.1112649729
H  H142  1  0.96220000  0.16240000  0.64060000  1.0 0.1112649729
H  H143  1  0.16240000  0.96220000  0.23480000  1.0 0.1112649729
H  H144  1  0.64060000  0.23480000  0.96220000  1.0 0.1112649729
H  H145  1  0.97610000  0.25710000  0.66210000  1.0 0.1304287441
H  H146  1  0.25710000  0.97610000  0.10470000  1.0 0.1304287441
H  H147  1  0.66210000  0.10470000  0.97610000  1.0 0.1304287441
H  H148  1  0.10470000  0.66210000  0.25710000  1.0 0.1304287441
H  H149  1  0.66210000  0.97610000  0.25710000  1.0 0.1304287441
H  H150  1  0.10470000  0.25710000  0.97610000  1.0 0.1304287441
H  H151  1  0.97610000  0.66210000  0.10470000  1.0 0.1304287441
H  H152  1  0.25710000  0.10470000  0.66210000  1.0 0.1304287441
H  H153  1  0.25710000  0.66210000  0.97610000  1.0 0.1304287441
H  H154  1  0.97610000  0.10470000  0.25710000  1.0 0.1304287441
H  H155  1  0.10470000  0.97610000  0.66210000  1.0 0.1304287441
H  H156  1  0.66210000  0.25710000  0.10470000  1.0 0.1304287441
H  H157  1  0.02390000  0.74290000  0.89530000  1.0 0.1304287441
H  H158  1  0.74290000  0.02390000  0.33790000  1.0 0.1304287441
H  H159  1  0.33790000  0.89530000  0.74290000  1.0 0.1304287441
H  H160  1  0.89530000  0.33790000  0.02390000  1.0 0.1304287441
H  H161  1  0.33790000  0.02390000  0.89530000  1.0 0.1304287441
H  H162  1  0.89530000  0.74290000  0.33790000  1.0 0.1304287441
H  H163  1  0.02390000  0.33790000  0.74290000  1.0 0.1304287441
H  H164  1  0.74290000  0.89530000  0.02390000  1.0 0.1304287441
H  H165  1  0.74290000  0.33790000  0.89530000  1.0 0.1304287441
H  H166  1  0.02390000  0.89530000  0.33790000  1.0 0.1304287441
H  H167  1  0.89530000  0.02390000  0.74290000  1.0 0.1304287441
H  H168  1  0.33790000  0.74290000  0.02390000  1.0 0.1304287441
H  H169  1  0.02390000  0.74290000  0.33790000  1.0 0.1304287441
H  H170  1  0.74290000  0.02390000  0.89530000  1.0 0.1304287441
H  H171  1  0.33790000  0.89530000  0.02390000  1.0 0.1304287441
H  H172  1  0.89530000  0.33790000  0.74290000  1.0 0.1304287441
H  H173  1  0.33790000  0.02390000  0.74290000  1.0 0.1304287441
H  H174  1  0.89530000  0.74290000  0.02390000  1.0 0.1304287441
H  H175  1  0.02390000  0.33790000  0.89530000  1.0 0.1304287441
H  H176  1  0.74290000  0.89530000  0.33790000  1.0 0.1304287441
H  H177  1  0.74290000  0.33790000  0.02390000  1.0 0.1304287441
H  H178  1  0.02390000  0.89530000  0.74290000  1.0 0.1304287441
H  H179  1  0.89530000  0.02390000  0.33790000  1.0 0.1304287441
H  H180  1  0.33790000  0.74290000  0.89530000  1.0 0.1304287441
H  H181  1  0.97610000  0.25710000  0.10470000  1.0 0.1304287441
H  H182  1  0.25710000  0.97610000  0.66210000  1.0 0.1304287441
H  H183  1  0.66210000  0.10470000  0.25710000  1.0 0.1304287441
H  H184  1  0.10470000  0.66210000  0.97610000  1.0 0.1304287441
H  H185  1  0.66210000  0.97610000  0.10470000  1.0 0.1304287441
H  H186  1  0.10470000  0.25710000  0.66210000  1.0 0.1304287441
H  H187  1  0.97610000  0.66210000  0.25710000  1.0 0.1304287441
H  H188  1  0.25710000  0.10470000  0.97610000  1.0 0.1304287441
H  H189  1  0.25710000  0.66210000  0.10470000  1.0 0.1304287441
H  H190  1  0.97610000  0.10470000  0.66210000  1.0 0.1304287441
H  H191  1  0.10470000  0.97610000  0.25710000  1.0 0.1304287441
H  H192  1  0.66210000  0.25710000  0.97610000  1.0 0.1304287441
H  H193  1  0.97090000  0.20830000  0.61250000  1.0 0.10075301
H  H194  1  0.20830000  0.97090000  0.20830000  1.0 0.10075301
H  H195  1  0.61250000  0.20830000  0.97090000  1.0 0.10075301
H  H196  1  0.20830000  0.61250000  0.20830000  1.0 0.10075301
H  H197  1  0.61250000  0.97090000  0.20830000  1.0 0.10075301
H  H198  1  0.20830000  0.20830000  0.97090000  1.0 0.10075301
H  H199  1  0.97090000  0.61250000  0.20830000  1.0 0.10075301
H  H200  1  0.20830000  0.20830000  0.61250000  1.0 0.10075301
H  H201  1  0.20830000  0.61250000  0.97090000  1.0 0.10075301
H  H202  1  0.97090000  0.20830000  0.20830000  1.0 0.10075301
H  H203  1  0.20830000  0.97090000  0.61250000  1.0 0.10075301
H  H204  1  0.61250000  0.20830000  0.20830000  1.0 0.10075301
H  H205  1  0.02910000  0.79170000  0.79170000  1.0 0.10075301
H  H206  1  0.79170000  0.02910000  0.38750000  1.0 0.10075301
H  H207  1  0.38750000  0.79170000  0.79170000  1.0 0.10075301
H  H208  1  0.79170000  0.38750000  0.02910000  1.0 0.10075301
H  H209  1  0.38750000  0.02910000  0.79170000  1.0 0.10075301
H  H210  1  0.79170000  0.79170000  0.38750000  1.0 0.10075301
H  H211  1  0.02910000  0.38750000  0.79170000  1.0 0.10075301
H  H212  1  0.79170000  0.79170000  0.02910000  1.0 0.10075301
H  H213  1  0.79170000  0.38750000  0.79170000  1.0 0.10075301
H  H214  1  0.02910000  0.79170000  0.38750000  1.0 0.10075301
H  H215  1  0.79170000  0.02910000  0.79170000  1.0 0.10075301
H  H216  1  0.38750000  0.79170000  0.02910000  1.0 0.10075301
H  H217  1  0.93550000  0.29930000  0.54910000  1.0 0.1304287441
H  H218  1  0.29930000  0.93550000  0.21610000  1.0 0.1304287441
H  H219  1  0.54910000  0.21610000  0.93550000  1.0 0.1304287441
H  H220  1  0.21610000  0.54910000  0.29930000  1.0 0.1304287441
H  H221  1  0.54910000  0.93550000  0.29930000  1.0 0.1304287441
H  H222  1  0.21610000  0.29930000  0.93550000  1.0 0.1304287441
H  H223  1  0.93550000  0.54910000  0.21610000  1.0 0.1304287441
H  H224  1  0.29930000  0.21610000  0.54910000  1.0 0.1304287441
H  H225  1  0.29930000  0.54910000  0.93550000  1.0 0.1304287441
H  H226  1  0.93550000  0.21610000  0.29930000  1.0 0.1304287441
H  H227  1  0.21610000  0.93550000  0.54910000  1.0 0.1304287441
H  H228  1  0.54910000  0.29930000  0.21610000  1.0 0.1304287441
H  H229  1  0.06450000  0.70070000  0.78390000  1.0 0.1304287441
H  H230  1  0.70070000  0.06450000  0.45090000  1.0 0.1304287441
H  H231  1  0.45090000  0.78390000  0.70070000  1.0 0.1304287441
H  H232  1  0.78390000  0.45090000  0.06450000  1.0 0.1304287441
H  H233  1  0.45090000  0.06450000  0.78390000  1.0 0.1304287441
H  H234  1  0.78390000  0.70070000  0.45090000  1.0 0.1304287441
H  H235  1  0.06450000  0.45090000  0.70070000  1.0 0.1304287441
H  H236  1  0.70070000  0.78390000  0.06450000  1.0 0.1304287441
H  H237  1  0.70070000  0.45090000  0.78390000  1.0 0.1304287441
H  H238  1  0.06450000  0.78390000  0.45090000  1.0 0.1304287441
H  H239  1  0.78390000  0.06450000  0.70070000  1.0 0.1304287441
H  H240  1  0.45090000  0.70070000  0.06450000  1.0 0.1304287441
H  H241  1  0.06450000  0.70070000  0.45090000  1.0 0.1304287441
H  H242  1  0.70070000  0.06450000  0.78390000  1.0 0.1304287441
H  H243  1  0.45090000  0.78390000  0.06450000  1.0 0.1304287441
H  H244  1  0.78390000  0.45090000  0.70070000  1.0 0.1304287441
H  H245  1  0.45090000  0.06450000  0.70070000  1.0 0.1304287441
H  H246  1  0.78390000  0.70070000  0.06450000  1.0 0.1304287441
H  H247  1  0.06450000  0.45090000  0.78390000  1.0 0.1304287441
H  H248  1  0.70070000  0.78390000  0.45090000  1.0 0.1304287441
H  H249  1  0.70070000  0.45090000  0.06450000  1.0 0.1304287441
H  H250  1  0.06450000  0.78390000  0.70070000  1.0 0.1304287441
H  H251  1  0.78390000  0.06450000  0.45090000  1.0 0.1304287441
H  H252  1  0.45090000  0.70070000  0.78390000  1.0 0.1304287441
H  H253  1  0.93550000  0.29930000  0.21610000  1.0 0.1304287441
H  H254  1  0.29930000  0.93550000  0.54910000  1.0 0.1304287441
H  H255  1  0.54910000  0.21610000  0.29930000  1.0 0.1304287441
H  H256  1  0.21610000  0.54910000  0.93550000  1.0 0.1304287441
H  H257  1  0.54910000  0.93550000  0.21610000  1.0 0.1304287441
H  H258  1  0.21610000  0.29930000  0.54910000  1.0 0.1304287441
H  H259  1  0.93550000  0.54910000  0.29930000  1.0 0.1304287441
H  H260  1  0.29930000  0.21610000  0.93550000  1.0 0.1304287441
H  H261  1  0.29930000  0.54910000  0.21610000  1.0 0.1304287441
H  H262  1  0.93550000  0.21610000  0.54910000  1.0 0.1304287441
H  H263  1  0.21610000  0.93550000  0.29930000  1.0 0.1304287441
H  H264  1  0.54910000  0.29930000  0.93550000  1.0 0.1304287441
H  H265  1  0.92100000  0.30900000  0.39700000  1.0 0.0826184851
H  H266  1  0.30900000  0.92100000  0.37300000  1.0 0.0826184851
H  H267  1  0.39700000  0.37300000  0.92100000  1.0 0.0826184851
H  H268  1  0.37300000  0.39700000  0.30900000  1.0 0.0826184851
H  H269  1  0.39700000  0.92100000  0.30900000  1.0 0.0826184851
H  H270  1  0.37300000  0.30900000  0.92100000  1.0 0.0826184851
H  H271  1  0.92100000  0.39700000  0.37300000  1.0 0.0826184851
H  H272  1  0.30900000  0.37300000  0.39700000  1.0 0.0826184851
H  H273  1  0.30900000  0.39700000  0.92100000  1.0 0.0826184851
H  H274  1  0.92100000  0.37300000  0.30900000  1.0 0.0826184851
H  H275  1  0.37300000  0.92100000  0.39700000  1.0 0.0826184851
H  H276  1  0.39700000  0.30900000  0.37300000  1.0 0.0826184851
H  H277  1  0.07900000  0.69100000  0.62700000  1.0 0.0826184851
H  H278  1  0.69100000  0.07900000  0.60300000  1.0 0.0826184851
H  H279  1  0.60300000  0.62700000  0.69100000  1.0 0.0826184851
H  H280  1  0.62700000  0.60300000  0.07900000  1.0 0.0826184851
H  H281  1  0.60300000  0.07900000  0.62700000  1.0 0.0826184851
H  H282  1  0.62700000  0.69100000  0.60300000  1.0 0.0826184851
H  H283  1  0.07900000  0.60300000  0.69100000  1.0 0.0826184851
H  H284  1  0.69100000  0.62700000  0.07900000  1.0 0.0826184851
H  H285  1  0.69100000  0.60300000  0.62700000  1.0 0.0826184851
H  H286  1  0.07900000  0.62700000  0.60300000  1.0 0.0826184851
H  H287  1  0.62700000  0.07900000  0.69100000  1.0 0.0826184851
H  H288  1  0.60300000  0.69100000  0.07900000  1.0 0.0826184851
H  H289  1  0.07900000  0.69100000  0.60300000  1.0 0.0826184851
H  H290  1  0.69100000  0.07900000  0.62700000  1.0 0.0826184851
H  H291  1  0.60300000  0.62700000  0.07900000  1.0 0.0826184851
H  H292  1  0.62700000  0.60300000  0.69100000  1.0 0.0826184851
H  H293  1  0.60300000  0.07900000  0.69100000  1.0 0.0826184851
H  H294  1  0.62700000  0.69100000  0.07900000  1.0 0.0826184851
H  H295  1  0.07900000  0.60300000  0.62700000  1.0 0.0826184851
H  H296  1  0.69100000  0.62700000  0.60300000  1.0 0.0826184851
H  H297  1  0.69100000  0.60300000  0.07900000  1.0 0.0826184851
H  H298  1  0.07900000  0.62700000  0.69100000  1.0 0.0826184851
H  H299  1  0.62700000  0.07900000  0.60300000  1.0 0.0826184851
H  H300  1  0.60300000  0.69100000  0.62700000  1.0 0.0826184851
H  H301  1  0.92100000  0.30900000  0.37300000  1.0 0.0826184851
H  H302  1  0.30900000  0.92100000  0.39700000  1.0 0.0826184851
H  H303  1  0.39700000  0.37300000  0.30900000  1.0 0.0826184851
H  H304  1  0.37300000  0.39700000  0.92100000  1.0 0.0826184851
H  H305  1  0.39700000  0.92100000  0.37300000  1.0 0.0826184851
H  H306  1  0.37300000  0.30900000  0.39700000  1.0 0.0826184851
H  H307  1  0.92100000  0.39700000  0.30900000  1.0 0.0826184851
H  H308  1  0.30900000  0.37300000  0.92100000  1.0 0.0826184851
H  H309  1  0.30900000  0.39700000  0.37300000  1.0 0.0826184851
H  H310  1  0.92100000  0.37300000  0.39700000  1.0 0.0826184851
H  H311  1  0.37300000  0.92100000  0.30900000  1.0 0.0826184851
H  H312  1  0.39700000  0.30900000  0.92100000  1.0 0.0826184851
H  H313  1  0.92730000  0.28150000  0.44990000  1.0 0.1112649729
H  H314  1  0.28150000  0.92730000  0.34130000  1.0 0.1112649729
H  H315  1  0.44990000  0.34130000  0.92730000  1.0 0.1112649729
H  H316  1  0.34130000  0.44990000  0.28150000  1.0 0.1112649729
H  H317  1  0.44990000  0.92730000  0.28150000  1.0 0.1112649729
H  H318  1  0.34130000  0.28150000  0.92730000  1.0 0.1112649729
H  H319  1  0.92730000  0.44990000  0.34130000  1.0 0.1112649729
H  H320  1  0.28150000  0.34130000  0.44990000  1.0 0.1112649729
H  H321  1  0.28150000  0.44990000  0.92730000  1.0 0.1112649729
H  H322  1  0.92730000  0.34130000  0.28150000  1.0 0.1112649729
H  H323  1  0.34130000  0.92730000  0.44990000  1.0 0.1112649729
H  H324  1  0.44990000  0.28150000  0.34130000  1.0 0.1112649729
H  H325  1  0.07270000  0.71850000  0.65870000  1.0 0.1112649729
H  H326  1  0.71850000  0.07270000  0.55010000  1.0 0.1112649729
H  H327  1  0.55010000  0.65870000  0.71850000  1.0 0.1112649729
H  H328  1  0.65870000  0.55010000  0.07270000  1.0 0.1112649729
H  H329  1  0.55010000  0.07270000  0.65870000  1.0 0.1112649729
H  H330  1  0.65870000  0.71850000  0.55010000  1.0 0.1112649729
H  H331  1  0.07270000  0.55010000  0.71850000  1.0 0.1112649729
H  H332  1  0.71850000  0.65870000  0.07270000  1.0 0.1112649729
H  H333  1  0.71850000  0.55010000  0.65870000  1.0 0.1112649729
H  H334  1  0.07270000  0.65870000  0.55010000  1.0 0.1112649729
H  H335  1  0.65870000  0.07270000  0.71850000  1.0 0.1112649729
H  H336  1  0.55010000  0.71850000  0.07270000  1.0 0.1112649729
H  H337  1  0.07270000  0.71850000  0.55010000  1.0 0.1112649729
H  H338  1  0.71850000  0.07270000  0.65870000  1.0 0.1112649729
H  H339  1  0.55010000  0.65870000  0.07270000  1.0 0.1112649729
H  H340  1  0.65870000  0.55010000  0.71850000  1.0 0.1112649729
H  H341  1  0.55010000  0.07270000  0.71850000  1.0 0.1112649729
H  H342  1  0.65870000  0.71850000  0.07270000  1.0 0.1112649729
H  H343  1  0.07270000  0.55010000  0.65870000  1.0 0.1112649729
H  H344  1  0.71850000  0.65870000  0.55010000  1.0 0.1112649729
H  H345  1  0.71850000  0.55010000  0.07270000  1.0 0.1112649729
H  H346  1  0.07270000  0.65870000  0.71850000  1.0 0.1112649729
H  H347  1  0.65870000  0.07270000  0.55010000  1.0 0.1112649729
H  H348  1  0.55010000  0.71850000  0.65870000  1.0 0.1112649729
H  H349  1  0.92730000  0.28150000  0.34130000  1.0 0.1112649729
H  H350  1  0.28150000  0.92730000  0.44990000  1.0 0.1112649729
H  H351  1  0.44990000  0.34130000  0.28150000  1.0 0.1112649729
H  H352  1  0.34130000  0.44990000  0.92730000  1.0 0.1112649729
H  H353  1  0.44990000  0.92730000  0.34130000  1.0 0.1112649729
H  H354  1  0.34130000  0.28150000  0.44990000  1.0 0.1112649729
H  H355  1  0.92730000  0.44990000  0.28150000  1.0 0.1112649729
H  H356  1  0.28150000  0.34130000  0.92730000  1.0 0.1112649729
H  H357  1  0.28150000  0.44990000  0.34130000  1.0 0.1112649729
H  H358  1  0.92730000  0.34130000  0.44990000  1.0 0.1112649729
H  H359  1  0.34130000  0.92730000  0.28150000  1.0 0.1112649729
H  H360  1  0.44990000  0.28150000  0.92730000  1.0 0.1112649729
H  H361  1  0.86280000  0.36600000  0.47440000  1.0 0.1112649729
H  H362  1  0.36600000  0.86280000  0.29680000  1.0 0.1112649729
H  H363  1  0.47440000  0.29680000  0.86280000  1.0 0.1157834092
H  H364  1  0.29680000  0.47440000  0.36600000  1.0 0.1112649729
H  H365  1  0.47440000  0.86280000  0.36600000  1.0 0.1112649729
H  H366  1  0.29680000  0.36600000  0.86280000  1.0 0.1157834092
H  H367  1  0.86280000  0.47440000  0.29680000  1.0 0.1112649729
H  H368  1  0.36600000  0.29680000  0.47440000  1.0 0.1112649729
H  H369  1  0.36600000  0.47440000  0.86280000  1.0 0.1157834092
H  H370  1  0.86280000  0.29680000  0.36600000  1.0 0.1112649729
H  H371  1  0.29680000  0.86280000  0.47440000  1.0 0.1157834092
H  H372  1  0.47440000  0.36600000  0.29680000  1.0 0.1112649729
H  H373  1  0.13720000  0.63400000  0.70320000  1.0 0.1112649729
H  H374  1  0.63400000  0.13720000  0.52560000  1.0 0.1157834092
H  H375  1  0.52560000  0.70320000  0.63400000  1.0 0.1112649729
H  H376  1  0.70320000  0.52560000  0.13720000  1.0 0.1112649729
H  H377  1  0.52560000  0.13720000  0.70320000  1.0 0.1112649729
H  H378  1  0.70320000  0.63400000  0.52560000  1.0 0.1157834092
H  H379  1  0.13720000  0.52560000  0.63400000  1.0 0.1112649729
H  H380  1  0.63400000  0.70320000  0.13720000  1.0 0.1112649729
H  H381  1  0.63400000  0.52560000  0.70320000  1.0 0.1112649729
H  H382  1  0.13720000  0.70320000  0.52560000  1.0 0.1112649729
H  H383  1  0.70320000  0.13720000  0.63400000  1.0 0.1157834092
H  H384  1  0.52560000  0.63400000  0.13720000  1.0 0.1112649729
H  H385  1  0.13720000  0.63400000  0.52560000  1.0 0.1112649729
H  H386  1  0.63400000  0.13720000  0.70320000  1.0 0.1112649729
H  H387  1  0.52560000  0.70320000  0.13720000  1.0 0.1112649729
H  H388  1  0.70320000  0.52560000  0.63400000  1.0 0.1157834092
H  H389  1  0.52560000  0.13720000  0.63400000  1.0 0.1112649729
H  H390  1  0.70320000  0.63400000  0.13720000  1.0 0.1112649729
H  H391  1  0.13720000  0.52560000  0.70320000  1.0 0.1112649729
H  H392  1  0.63400000  0.70320000  0.52560000  1.0 0.1157834092
H  H393  1  0.63400000  0.52560000  0.13720000  1.0 0.1112649729
H  H394  1  0.13720000  0.70320000  0.63400000  1.0 0.1112649729
H  H395  1  0.70320000  0.13720000  0.52560000  1.0 0.1112649729
H  H396  1  0.52560000  0.63400000  0.70320000  1.0 0.1112649729
H  H397  1  0.86280000  0.36600000  0.29680000  1.0 0.1157834092
H  H398  1  0.36600000  0.86280000  0.47440000  1.0 0.1112649729
H  H399  1  0.47440000  0.29680000  0.36600000  1.0 0.1157834092
H  H400  1  0.29680000  0.47440000  0.86280000  1.0 0.1157834092
H  H401  1  0.47440000  0.86280000  0.29680000  1.0 0.1112649729
H  H402  1  0.29680000  0.36600000  0.47440000  1.0 0.1112649729
H  H403  1  0.86280000  0.47440000  0.36600000  1.0 0.1112649729
H  H404  1  0.36600000  0.29680000  0.86280000  1.0 0.1112649729
H  H405  1  0.36600000  0.47440000  0.29680000  1.0 0.1112649729
H  H406  1  0.86280000  0.29680000  0.47440000  1.0 0.1157834092
H  H407  1  0.29680000  0.86280000  0.36600000  1.0 0.1112649729
H  H408  1  0.47440000  0.36600000  0.86280000  1.0 0.1112649729
H  H409  1  0.85620000  0.32900000  0.42140000  1.0 0.0826184851
H  H410  1  0.32900000  0.85620000  0.39340000  1.0 0.0826184851
H  H411  1  0.42140000  0.39340000  0.85620000  1.0 0.0826184851
H  H412  1  0.39340000  0.42140000  0.32900000  1.0 0.0826184851
H  H413  1  0.42140000  0.85620000  0.32900000  1.0 0.0826184851
H  H414  1  0.39340000  0.32900000  0.85620000  1.0 0.0826184851
H  H415  1  0.85620000  0.42140000  0.39340000  1.0 0.0826184851
H  H416  1  0.32900000  0.39340000  0.42140000  1.0 0.0826184851
H  H417  1  0.32900000  0.42140000  0.85620000  1.0 0.0826184851
H  H418  1  0.85620000  0.39340000  0.32900000  1.0 0.0826184851
H  H419  1  0.39340000  0.85620000  0.42140000  1.0 0.0826184851
H  H420  1  0.42140000  0.32900000  0.39340000  1.0 0.0826184851
H  H421  1  0.14380000  0.67100000  0.60660000  1.0 0.0826184851
H  H422  1  0.67100000  0.14380000  0.57860000  1.0 0.0826184851
H  H423  1  0.57860000  0.60660000  0.67100000  1.0 0.0826184851
H  H424  1  0.60660000  0.57860000  0.14380000  1.0 0.0826184851
H  H425  1  0.57860000  0.14380000  0.60660000  1.0 0.0826184851
H  H426  1  0.60660000  0.67100000  0.57860000  1.0 0.0826184851
H  H427  1  0.14380000  0.57860000  0.67100000  1.0 0.0826184851
H  H428  1  0.67100000  0.60660000  0.14380000  1.0 0.0826184851
H  H429  1  0.67100000  0.57860000  0.60660000  1.0 0.0826184851
H  H430  1  0.14380000  0.60660000  0.57860000  1.0 0.0826184851
H  H431  1  0.60660000  0.14380000  0.67100000  1.0 0.0826184851
H  H432  1  0.57860000  0.67100000  0.14380000  1.0 0.0826184851
H  H433  1  0.14380000  0.67100000  0.57860000  1.0 0.0826184851
H  H434  1  0.67100000  0.14380000  0.60660000  1.0 0.0826184851
H  H435  1  0.57860000  0.60660000  0.14380000  1.0 0.0826184851
H  H436  1  0.60660000  0.57860000  0.67100000  1.0 0.0826184851
H  H437  1  0.57860000  0.14380000  0.67100000  1.0 0.0826184851
H  H438  1  0.60660000  0.67100000  0.14380000  1.0 0.0826184851
H  H439  1  0.14380000  0.57860000  0.60660000  1.0 0.0826184851
H  H440  1  0.67100000  0.60660000  0.57860000  1.0 0.0826184851
H  H441  1  0.67100000  0.57860000  0.14380000  1.0 0.0826184851
H  H442  1  0.14380000  0.60660000  0.67100000  1.0 0.0826184851
H  H443  1  0.60660000  0.14380000  0.57860000  1.0 0.0826184851
H  H444  1  0.57860000  0.67100000  0.60660000  1.0 0.0826184851
H  H445  1  0.85620000  0.32900000  0.39340000  1.0 0.0826184851
H  H446  1  0.32900000  0.85620000  0.42140000  1.0 0.0826184851
H  H447  1  0.42140000  0.39340000  0.32900000  1.0 0.0826184851
H  H448  1  0.39340000  0.42140000  0.85620000  1.0 0.0826184851
H  H449  1  0.42140000  0.85620000  0.39340000  1.0 0.0826184851
H  H450  1  0.39340000  0.32900000  0.42140000  1.0 0.0826184851
H  H451  1  0.85620000  0.42140000  0.32900000  1.0 0.0826184851
H  H452  1  0.32900000  0.39340000  0.85620000  1.0 0.0826184851
H  H453  1  0.32900000  0.42140000  0.39340000  1.0 0.0826184851
H  H454  1  0.85620000  0.39340000  0.42140000  1.0 0.0826184851
H  H455  1  0.39340000  0.85620000  0.32900000  1.0 0.0826184851
H  H456  1  0.42140000  0.32900000  0.85620000  1.0 0.0826184851
C  C1  1  0.98582000  0.31598000  0.63738000  1.0 0.5693698948
C  C2  1  0.31598000  0.98582000  0.06082000  1.0 0.5693698948
C  C3  1  0.63738000  0.06082000  0.98582000  1.0 0.5693698948
C  C4  1  0.06082000  0.63738000  0.31598000  1.0 0.5693698948
C  C5  1  0.63738000  0.98582000  0.31598000  1.0 0.5693698948
C  C6  1  0.06082000  0.31598000  0.98582000  1.0 0.5693698948
C  C7  1  0.98582000  0.63738000  0.06082000  1.0 0.5693698948
C  C8  1  0.31598000  0.06082000  0.63738000  1.0 0.5693698948
C  C9  1  0.31598000  0.63738000  0.98582000  1.0 0.5693698948
C  C10  1  0.98582000  0.06082000  0.31598000  1.0 0.5693698948
C  C11  1  0.06082000  0.98582000  0.63738000  1.0 0.5693698948
C  C12  1  0.63738000  0.31598000  0.06082000  1.0 0.5693698948
C  C13  1  0.01418000  0.68402000  0.93918000  1.0 0.5693698948
C  C14  1  0.68402000  0.01418000  0.36262000  1.0 0.5693698948
C  C15  1  0.36262000  0.93918000  0.68402000  1.0 0.5693698948
C  C16  1  0.93918000  0.36262000  0.01418000  1.0 0.5693698948
C  C17  1  0.36262000  0.01418000  0.93918000  1.0 0.5693698948
C  C18  1  0.93918000  0.68402000  0.36262000  1.0 0.5693698948
C  C19  1  0.01418000  0.36262000  0.68402000  1.0 0.5693698948
C  C20  1  0.68402000  0.93918000  0.01418000  1.0 0.5693698948
C  C21  1  0.68402000  0.36262000  0.93918000  1.0 0.5693698948
C  C22  1  0.01418000  0.93918000  0.36262000  1.0 0.5693698948
C  C23  1  0.93918000  0.01418000  0.68402000  1.0 0.5693698948
C  C24  1  0.36262000  0.68402000  0.01418000  1.0 0.5693698948
C  C25  1  0.01418000  0.68402000  0.36262000  1.0 0.5693698948
C  C26  1  0.68402000  0.01418000  0.93918000  1.0 0.5693698948
C  C27  1  0.36262000  0.93918000  0.01418000  1.0 0.5693698948
C  C28  1  0.93918000  0.36262000  0.68402000  1.0 0.5693698948
C  C29  1  0.36262000  0.01418000  0.68402000  1.0 0.5693698948
C  C30  1  0.93918000  0.68402000  0.01418000  1.0 0.5693698948
C  C31  1  0.01418000  0.36262000  0.93918000  1.0 0.5693698948
C  C32  1  0.68402000  0.93918000  0.36262000  1.0 0.5693698948
C  C33  1  0.68402000  0.36262000  0.01418000  1.0 0.5693698948
C  C34  1  0.01418000  0.93918000  0.68402000  1.0 0.5693698948
C  C35  1  0.93918000  0.01418000  0.36262000  1.0 0.5693698948
C  C36  1  0.36262000  0.68402000  0.93918000  1.0 0.5693698948
C  C37  1  0.98582000  0.31598000  0.06082000  1.0 0.5693698948
C  C38  1  0.31598000  0.98582000  0.63738000  1.0 0.5693698948
C  C39  1  0.63738000  0.06082000  0.31598000  1.0 0.5693698948
C  C40  1  0.06082000  0.63738000  0.98582000  1.0 0.5693698948
C  C41  1  0.63738000  0.98582000  0.06082000  1.0 0.5693698948
C  C42  1  0.06082000  0.31598000  0.63738000  1.0 0.5693698948
C  C43  1  0.98582000  0.63738000  0.31598000  1.0 0.5693698948
C  C44  1  0.31598000  0.06082000  0.98582000  1.0 0.5693698948
C  C45  1  0.31598000  0.63738000  0.06082000  1.0 0.5693698948
C  C46  1  0.98582000  0.06082000  0.63738000  1.0 0.5693698948
C  C47  1  0.06082000  0.98582000  0.31598000  1.0 0.5693698948
C  C48  1  0.63738000  0.31598000  0.98582000  1.0 0.5693698948
C  C49  1  0.97820000  0.30120000  0.62220000  1.0 -0.0325672674
C  C50  1  0.30120000  0.97820000  0.09840000  1.0 -0.0325672674
C  C51  1  0.62220000  0.09840000  0.97820000  1.0 -0.0325672674
C  C52  1  0.09840000  0.62220000  0.30120000  1.0 -0.0325672674
C  C53  1  0.62220000  0.97820000  0.30120000  1.0 -0.0350513507
C  C54  1  0.09840000  0.30120000  0.97820000  1.0 -0.0325672674
C  C55  1  0.97820000  0.62220000  0.09840000  1.0 -0.0325672674
C  C56  1  0.30120000  0.09840000  0.62220000  1.0 -0.0325672674
C  C57  1  0.30120000  0.62220000  0.97820000  1.0 -0.0325672674
C  C58  1  0.97820000  0.09840000  0.30120000  1.0 -0.0325672674
C  C59  1  0.09840000  0.97820000  0.62220000  1.0 -0.0325672674
C  C60  1  0.62220000  0.30120000  0.09840000  1.0 -0.0325672674
C  C61  1  0.02180000  0.69880000  0.90160000  1.0 -0.0325672674
C  C62  1  0.69880000  0.02180000  0.37780000  1.0 -0.0325672674
C  C63  1  0.37780000  0.90160000  0.69880000  1.0 -0.0325672674
C  C64  1  0.90160000  0.37780000  0.02180000  1.0 -0.0325672674
C  C65  1  0.37780000  0.02180000  0.90160000  1.0 -0.0325672674
C  C66  1  0.90160000  0.69880000  0.37780000  1.0 -0.0325672674
C  C67  1  0.02180000  0.37780000  0.69880000  1.0 -0.0325672674
C  C68  1  0.69880000  0.90160000  0.02180000  1.0 -0.0325672674
C  C69  1  0.69880000  0.37780000  0.90160000  1.0 -0.0325672674
C  C70  1  0.02180000  0.90160000  0.37780000  1.0 -0.0325672674
C  C71  1  0.90160000  0.02180000  0.69880000  1.0 -0.0325672674
C  C72  1  0.37780000  0.69880000  0.02180000  1.0 -0.0325672674
C  C73  1  0.02180000  0.69880000  0.37780000  1.0 -0.0325672674
C  C74  1  0.69880000  0.02180000  0.90160000  1.0 -0.0325672674
C  C75  1  0.37780000  0.90160000  0.02180000  1.0 -0.0325672674
C  C76  1  0.90160000  0.37780000  0.69880000  1.0 -0.0325672674
C  C77  1  0.37780000  0.02180000  0.69880000  1.0 -0.0325672674
C  C78  1  0.90160000  0.69880000  0.02180000  1.0 -0.0325672674
C  C79  1  0.02180000  0.37780000  0.90160000  1.0 -0.0325672674
C  C80  1  0.69880000  0.90160000  0.37780000  1.0 -0.0325672674
C  C81  1  0.69880000  0.37780000  0.02180000  1.0 -0.0325672674
C  C82  1  0.02180000  0.90160000  0.69880000  1.0 -0.0325672674
C  C83  1  0.90160000  0.02180000  0.37780000  1.0 -0.0325672674
C  C84  1  0.37780000  0.69880000  0.90160000  1.0 -0.0325672674
C  C85  1  0.97820000  0.30120000  0.09840000  1.0 -0.0325672674
C  C86  1  0.30120000  0.97820000  0.62220000  1.0 -0.0325672674
C  C87  1  0.62220000  0.09840000  0.30120000  1.0 -0.0325672674
C  C88  1  0.09840000  0.62220000  0.97820000  1.0 -0.0325672674
C  C89  1  0.62220000  0.97820000  0.09840000  1.0 -0.0325672674
C  C90  1  0.09840000  0.30120000  0.62220000  1.0 -0.0325672674
C  C91  1  0.97820000  0.62220000  0.30120000  1.0 -0.0325672674
C  C92  1  0.30120000  0.09840000  0.97820000  1.0 -0.0325672674
C  C93  1  0.30120000  0.62220000  0.09840000  1.0 -0.0325672674
C  C94  1  0.97820000  0.09840000  0.62220000  1.0 -0.0325672674
C  C95  1  0.09840000  0.97820000  0.30120000  1.0 -0.0350513507
C  C96  1  0.62220000  0.30120000  0.97820000  1.0 -0.0325672674
C  C97  1  0.97449000  0.31869000  0.59111000  1.0 -0.1002007084
C  C98  1  0.31869000  0.97449000  0.11571000  1.0 -0.1002007084
C  C99  1  0.59111000  0.11571000  0.97449000  1.0 -0.1002007084
C  C100  1  0.11571000  0.59111000  0.31869000  1.0 -0.1002007084
C  C101  1  0.59111000  0.97449000  0.31869000  1.0 -0.1002007084
C  C102  1  0.11571000  0.31869000  0.97449000  1.0 -0.1002007084
C  C103  1  0.97449000  0.59111000  0.11571000  1.0 -0.1002007084
C  C104  1  0.31869000  0.11571000  0.59111000  1.0 -0.1002007084
C  C105  1  0.31869000  0.59111000  0.97449000  1.0 -0.1002007084
C  C106  1  0.97449000  0.11571000  0.31869000  1.0 -0.1002007084
C  C107  1  0.11571000  0.97449000  0.59111000  1.0 -0.1002007084
C  C108  1  0.59111000  0.31869000  0.11571000  1.0 -0.1002007084
C  C109  1  0.02551000  0.68131000  0.88429000  1.0 -0.1002007084
C  C110  1  0.68131000  0.02551000  0.40889000  1.0 -0.1002007084
C  C111  1  0.40889000  0.88429000  0.68131000  1.0 -0.1002007084
C  C112  1  0.88429000  0.40889000  0.02551000  1.0 -0.1002007084
C  C113  1  0.40889000  0.02551000  0.88429000  1.0 -0.1002007084
C  C114  1  0.88429000  0.68131000  0.40889000  1.0 -0.1002007084
C  C115  1  0.02551000  0.40889000  0.68131000  1.0 -0.1002007084
C  C116  1  0.68131000  0.88429000  0.02551000  1.0 -0.1002007084
C  C117  1  0.68131000  0.40889000  0.88429000  1.0 -0.1002007084
C  C118  1  0.02551000  0.88429000  0.40889000  1.0 -0.1002007084
C  C119  1  0.88429000  0.02551000  0.68131000  1.0 -0.1002007084
C  C120  1  0.40889000  0.68131000  0.02551000  1.0 -0.1002007084
C  C121  1  0.02551000  0.68131000  0.40889000  1.0 -0.1002007084
C  C122  1  0.68131000  0.02551000  0.88429000  1.0 -0.1002007084
C  C123  1  0.40889000  0.88429000  0.02551000  1.0 -0.1002007084
C  C124  1  0.88429000  0.40889000  0.68131000  1.0 -0.1002007084
C  C125  1  0.40889000  0.02551000  0.68131000  1.0 -0.1002007084
C  C126  1  0.88429000  0.68131000  0.02551000  1.0 -0.1002007084
C  C127  1  0.02551000  0.40889000  0.88429000  1.0 -0.1002007084
C  C128  1  0.68131000  0.88429000  0.40889000  1.0 -0.1002007084
C  C129  1  0.68131000  0.40889000  0.02551000  1.0 -0.1002007084
C  C130  1  0.02551000  0.88429000  0.68131000  1.0 -0.1002007084
C  C131  1  0.88429000  0.02551000  0.40889000  1.0 -0.1002007084
C  C132  1  0.40889000  0.68131000  0.88429000  1.0 -0.1002007084
C  C133  1  0.97449000  0.31869000  0.11571000  1.0 -0.1002007084
C  C134  1  0.31869000  0.97449000  0.59111000  1.0 -0.1002007084
C  C135  1  0.59111000  0.11571000  0.31869000  1.0 -0.1002007084
C  C136  1  0.11571000  0.59111000  0.97449000  1.0 -0.1002007084
C  C137  1  0.59111000  0.97449000  0.11571000  1.0 -0.1002007084
C  C138  1  0.11571000  0.31869000  0.59111000  1.0 -0.1002007084
C  C139  1  0.97449000  0.59111000  0.31869000  1.0 -0.1002007084
C  C140  1  0.31869000  0.11571000  0.97449000  1.0 -0.1002007084
C  C141  1  0.31869000  0.59111000  0.11571000  1.0 -0.1002007084
C  C142  1  0.97449000  0.11571000  0.59111000  1.0 -0.1002007084
C  C143  1  0.11571000  0.97449000  0.31869000  1.0 -0.1002007084
C  C144  1  0.59111000  0.31869000  0.97449000  1.0 -0.1002007084
C  C145  1  0.96620000  0.30520000  0.57800000  1.0 -0.1428404419
C  C146  1  0.30520000  0.96620000  0.15060000  1.0 -0.1464985226
C  C147  1  0.57800000  0.15060000  0.96620000  1.0 -0.1428404419
C  C148  1  0.15060000  0.57800000  0.30520000  1.0 -0.1464985226
C  C149  1  0.57800000  0.96620000  0.30520000  1.0 -0.1464985226
C  C150  1  0.15060000  0.30520000  0.96620000  1.0 -0.1464985226
C  C151  1  0.96620000  0.57800000  0.15060000  1.0 -0.1428404419
C  C152  1  0.30520000  0.15060000  0.57800000  1.0 -0.1464985226
C  C153  1  0.30520000  0.57800000  0.96620000  1.0 -0.1464985226
C  C154  1  0.96620000  0.15060000  0.30520000  1.0 -0.1428404419
C  C155  1  0.15060000  0.96620000  0.57800000  1.0 -0.1464985226
C  C156  1  0.57800000  0.30520000  0.15060000  1.0 -0.1428404419
C  C157  1  0.03380000  0.69480000  0.84940000  1.0 -0.1428404419
C  C158  1  0.69480000  0.03380000  0.42200000  1.0 -0.1464985226
C  C159  1  0.42200000  0.84940000  0.69480000  1.0 -0.1464985226
C  C160  1  0.84940000  0.42200000  0.03380000  1.0 -0.1464985226
C  C161  1  0.42200000  0.03380000  0.84940000  1.0 -0.1464985226
C  C162  1  0.84940000  0.69480000  0.42200000  1.0 -0.1464985226
C  C163  1  0.03380000  0.42200000  0.69480000  1.0 -0.1464985226
C  C164  1  0.69480000  0.84940000  0.03380000  1.0 -0.1464985226
C  C165  1  0.69480000  0.42200000  0.84940000  1.0 -0.1464985226
C  C166  1  0.03380000  0.84940000  0.42200000  1.0 -0.1464985226
C  C167  1  0.84940000  0.03380000  0.69480000  1.0 -0.1464985226
C  C168  1  0.42200000  0.69480000  0.03380000  1.0 -0.1464985226
C  C169  1  0.03380000  0.69480000  0.42200000  1.0 -0.1464985226
C  C170  1  0.69480000  0.03380000  0.84940000  1.0 -0.1464985226
C  C171  1  0.42200000  0.84940000  0.03380000  1.0 -0.1464985226
C  C172  1  0.84940000  0.42200000  0.69480000  1.0 -0.1464985226
C  C173  1  0.42200000  0.03380000  0.69480000  1.0 -0.1428404419
C  C174  1  0.84940000  0.69480000  0.03380000  1.0 -0.1464985226
C  C175  1  0.03380000  0.42200000  0.84940000  1.0 -0.1464985226
C  C176  1  0.69480000  0.84940000  0.42200000  1.0 -0.1464985226
C  C177  1  0.69480000  0.42200000  0.03380000  1.0 -0.1464985226
C  C178  1  0.03380000  0.84940000  0.69480000  1.0 -0.1464985226
C  C179  1  0.84940000  0.03380000  0.42200000  1.0 -0.1464985226
C  C180  1  0.42200000  0.69480000  0.84940000  1.0 -0.1464985226
C  C181  1  0.96620000  0.30520000  0.15060000  1.0 -0.1464985226
C  C182  1  0.30520000  0.96620000  0.57800000  1.0 -0.1464985226
C  C183  1  0.57800000  0.15060000  0.30520000  1.0 -0.1428404419
C  C184  1  0.15060000  0.57800000  0.96620000  1.0 -0.1464985226
C  C185  1  0.57800000  0.96620000  0.15060000  1.0 -0.1464985226
C  C186  1  0.15060000  0.30520000  0.57800000  1.0 -0.1464985226
C  C187  1  0.96620000  0.57800000  0.30520000  1.0 -0.1464985226
C  C188  1  0.30520000  0.15060000  0.96620000  1.0 -0.1428404419
C  C189  1  0.30520000  0.57800000  0.15060000  1.0 -0.1428404419
C  C190  1  0.96620000  0.15060000  0.57800000  1.0 -0.1464985226
C  C191  1  0.15060000  0.96620000  0.30520000  1.0 -0.1464985226
C  C192  1  0.57800000  0.30520000  0.96620000  1.0 -0.1464985226
C  C193  1  0.96167000  0.27313000  0.59653000  1.0 0.0826184851
C  C194  1  0.27313000  0.96167000  0.16867000  1.0 0.0826184851
C  C195  1  0.59653000  0.16867000  0.96167000  1.0 0.0826184851
C  C196  1  0.16867000  0.59653000  0.27313000  1.0 0.0826184851
C  C197  1  0.59653000  0.96167000  0.27313000  1.0 0.0826184851
C  C198  1  0.16867000  0.27313000  0.96167000  1.0 0.0826184851
C  C199  1  0.96167000  0.59653000  0.16867000  1.0 0.0826184851
C  C200  1  0.27313000  0.16867000  0.59653000  1.0 0.0826184851
C  C201  1  0.27313000  0.59653000  0.96167000  1.0 0.0826184851
C  C202  1  0.96167000  0.16867000  0.27313000  1.0 0.0826184851
C  C203  1  0.16867000  0.96167000  0.59653000  1.0 0.0826184851
C  C204  1  0.59653000  0.27313000  0.16867000  1.0 0.0826184851
C  C205  1  0.03833000  0.72687000  0.83133000  1.0 0.0826184851
C  C206  1  0.72687000  0.03833000  0.40347000  1.0 0.0826184851
C  C207  1  0.40347000  0.83133000  0.72687000  1.0 0.0857576568
C  C208  1  0.83133000  0.40347000  0.03833000  1.0 0.0826184851
C  C209  1  0.40347000  0.03833000  0.83133000  1.0 0.0826184851
C  C210  1  0.83133000  0.72687000  0.40347000  1.0 0.0826184851
C  C211  1  0.03833000  0.40347000  0.72687000  1.0 0.0826184851
C  C212  1  0.72687000  0.83133000  0.03833000  1.0 0.0826184851
C  C213  1  0.72687000  0.40347000  0.83133000  1.0 0.0826184851
C  C214  1  0.03833000  0.83133000  0.40347000  1.0 0.0826184851
C  C215  1  0.83133000  0.03833000  0.72687000  1.0 0.0826184851
C  C216  1  0.40347000  0.72687000  0.03833000  1.0 0.0826184851
C  C217  1  0.03833000  0.72687000  0.40347000  1.0 0.0826184851
C  C218  1  0.72687000  0.03833000  0.83133000  1.0 0.0826184851
C  C219  1  0.40347000  0.83133000  0.03833000  1.0 0.0826184851
C  C220  1  0.83133000  0.40347000  0.72687000  1.0 0.0826184851
C  C221  1  0.40347000  0.03833000  0.72687000  1.0 0.0826184851
C  C222  1  0.83133000  0.72687000  0.03833000  1.0 0.0826184851
C  C223  1  0.03833000  0.40347000  0.83133000  1.0 0.0857576568
C  C224  1  0.72687000  0.83133000  0.40347000  1.0 0.0826184851
C  C225  1  0.72687000  0.40347000  0.03833000  1.0 0.0826184851
C  C226  1  0.03833000  0.83133000  0.72687000  1.0 0.0826184851
C  C227  1  0.83133000  0.03833000  0.40347000  1.0 0.0826184851
C  C228  1  0.40347000  0.72687000  0.83133000  1.0 0.0826184851
C  C229  1  0.96167000  0.27313000  0.16867000  1.0 0.0826184851
C  C230  1  0.27313000  0.96167000  0.59653000  1.0 0.0857576568
C  C231  1  0.59653000  0.16867000  0.27313000  1.0 0.0826184851
C  C232  1  0.16867000  0.59653000  0.96167000  1.0 0.0826184851
C  C233  1  0.59653000  0.96167000  0.16867000  1.0 0.0826184851
C  C234  1  0.16867000  0.27313000  0.59653000  1.0 0.0857576568
C  C235  1  0.96167000  0.59653000  0.27313000  1.0 0.0826184851
C  C236  1  0.27313000  0.16867000  0.96167000  1.0 0.0826184851
C  C237  1  0.27313000  0.59653000  0.16867000  1.0 0.0826184851
C  C238  1  0.96167000  0.16867000  0.59653000  1.0 0.0826184851
C  C239  1  0.16867000  0.96167000  0.27313000  1.0 0.0826184851
C  C240  1  0.59653000  0.27313000  0.96167000  1.0 0.0826184851
C  C241  1  0.96545000  0.25605000  0.62775000  1.0 -0.1428404419
C  C242  1  0.25605000  0.96545000  0.15075000  1.0 -0.1428404419
C  C243  1  0.62775000  0.15075000  0.96545000  1.0 -0.1428404419
C  C244  1  0.15075000  0.62775000  0.25605000  1.0 -0.1428404419
C  C245  1  0.62775000  0.96545000  0.25605000  1.0 -0.1428404419
C  C246  1  0.15075000  0.25605000  0.96545000  1.0 -0.1428404419
C  C247  1  0.96545000  0.62775000  0.15075000  1.0 -0.1428404419
C  C248  1  0.25605000  0.15075000  0.62775000  1.0 -0.1428404419
C  C249  1  0.25605000  0.62775000  0.96545000  1.0 -0.1428404419
C  C250  1  0.96545000  0.15075000  0.25605000  1.0 -0.1428404419
C  C251  1  0.15075000  0.96545000  0.62775000  1.0 -0.1428404419
C  C252  1  0.62775000  0.25605000  0.15075000  1.0 -0.1428404419
C  C253  1  0.03455000  0.74395000  0.84925000  1.0 -0.1428404419
C  C254  1  0.74395000  0.03455000  0.37225000  1.0 -0.1428404419
C  C255  1  0.37225000  0.84925000  0.74395000  1.0 -0.1464985226
C  C256  1  0.84925000  0.37225000  0.03455000  1.0 -0.1428404419
C  C257  1  0.37225000  0.03455000  0.84925000  1.0 -0.1428404419
C  C258  1  0.84925000  0.74395000  0.37225000  1.0 -0.1428404419
C  C259  1  0.03455000  0.37225000  0.74395000  1.0 -0.1428404419
C  C260  1  0.74395000  0.84925000  0.03455000  1.0 -0.1428404419
C  C261  1  0.74395000  0.37225000  0.84925000  1.0 -0.1428404419
C  C262  1  0.03455000  0.84925000  0.37225000  1.0 -0.1428404419
C  C263  1  0.84925000  0.03455000  0.74395000  1.0 -0.1428404419
C  C264  1  0.37225000  0.74395000  0.03455000  1.0 -0.1428404419
C  C265  1  0.03455000  0.74395000  0.37225000  1.0 -0.1428404419
C  C266  1  0.74395000  0.03455000  0.84925000  1.0 -0.1428404419
C  C267  1  0.37225000  0.84925000  0.03455000  1.0 -0.1428404419
C  C268  1  0.84925000  0.37225000  0.74395000  1.0 -0.1428404419
C  C269  1  0.37225000  0.03455000  0.74395000  1.0 -0.1428404419
C  C270  1  0.84925000  0.74395000  0.03455000  1.0 -0.1428404419
C  C271  1  0.03455000  0.37225000  0.84925000  1.0 -0.1428404419
C  C272  1  0.74395000  0.84925000  0.37225000  1.0 -0.1428404419
C  C273  1  0.74395000  0.37225000  0.03455000  1.0 -0.1428404419
C  C274  1  0.03455000  0.84925000  0.74395000  1.0 -0.1428404419
C  C275  1  0.84925000  0.03455000  0.37225000  1.0 -0.1428404419
C  C276  1  0.37225000  0.74395000  0.84925000  1.0 -0.1428404419
C  C277  1  0.96545000  0.25605000  0.15075000  1.0 -0.1428404419
C  C278  1  0.25605000  0.96545000  0.62775000  1.0 -0.1428404419
C  C279  1  0.62775000  0.15075000  0.25605000  1.0 -0.1428404419
C  C280  1  0.15075000  0.62775000  0.96545000  1.0 -0.1428404419
C  C281  1  0.62775000  0.96545000  0.15075000  1.0 -0.1428404419
C  C282  1  0.15075000  0.25605000  0.62775000  1.0 -0.1428404419
C  C283  1  0.96545000  0.62775000  0.25605000  1.0 -0.1428404419
C  C284  1  0.25605000  0.15075000  0.96545000  1.0 -0.1428404419
C  C285  1  0.25605000  0.62775000  0.15075000  1.0 -0.1428404419
C  C286  1  0.96545000  0.15075000  0.62775000  1.0 -0.1428404419
C  C287  1  0.15075000  0.96545000  0.25605000  1.0 -0.1428404419
C  C288  1  0.62775000  0.25605000  0.96545000  1.0 -0.1428404419
C  C289  1  0.97358000  0.26942000  0.64038000  1.0 -0.1087873073
C  C290  1  0.26942000  0.97358000  0.11662000  1.0 -0.1087873073
C  C291  1  0.64038000  0.11662000  0.97358000  1.0 -0.1087873073
C  C292  1  0.11662000  0.64038000  0.26942000  1.0 -0.1087873073
C  C293  1  0.64038000  0.97358000  0.26942000  1.0 -0.1002007084
C  C294  1  0.11662000  0.26942000  0.97358000  1.0 -0.1087873073
C  C295  1  0.97358000  0.64038000  0.11662000  1.0 -0.1087873073
C  C296  1  0.26942000  0.11662000  0.64038000  1.0 -0.1002007084
C  C297  1  0.26942000  0.64038000  0.97358000  1.0 -0.1087873073
C  C298  1  0.97358000  0.11662000  0.26942000  1.0 -0.1087873073
C  C299  1  0.11662000  0.97358000  0.64038000  1.0 -0.1087873073
C  C300  1  0.64038000  0.26942000  0.11662000  1.0 -0.1087873073
C  C301  1  0.02642000  0.73058000  0.88338000  1.0 -0.1087873073
C  C302  1  0.73058000  0.02642000  0.35962000  1.0 -0.1087873073
C  C303  1  0.35962000  0.88338000  0.73058000  1.0 -0.1087873073
C  C304  1  0.88338000  0.35962000  0.02642000  1.0 -0.1087873073
C  C305  1  0.35962000  0.02642000  0.88338000  1.0 -0.1087873073
C  C306  1  0.88338000  0.73058000  0.35962000  1.0 -0.1087873073
C  C307  1  0.02642000  0.35962000  0.73058000  1.0 -0.1087873073
C  C308  1  0.73058000  0.88338000  0.02642000  1.0 -0.1087873073
C  C309  1  0.73058000  0.35962000  0.88338000  1.0 -0.1087873073
C  C310  1  0.02642000  0.88338000  0.35962000  1.0 -0.1087873073
C  C311  1  0.88338000  0.02642000  0.73058000  1.0 -0.1087873073
C  C312  1  0.35962000  0.73058000  0.02642000  1.0 -0.1087873073
C  C313  1  0.02642000  0.73058000  0.35962000  1.0 -0.1087873073
C  C314  1  0.73058000  0.02642000  0.88338000  1.0 -0.1087873073
C  C315  1  0.35962000  0.88338000  0.02642000  1.0 -0.1087873073
C  C316  1  0.88338000  0.35962000  0.73058000  1.0 -0.1087873073
C  C317  1  0.35962000  0.02642000  0.73058000  1.0 -0.1087873073
C  C318  1  0.88338000  0.73058000  0.02642000  1.0 -0.1087873073
C  C319  1  0.02642000  0.35962000  0.88338000  1.0 -0.1087873073
C  C320  1  0.73058000  0.88338000  0.35962000  1.0 -0.1087873073
C  C321  1  0.73058000  0.35962000  0.02642000  1.0 -0.1087873073
C  C322  1  0.02642000  0.88338000  0.73058000  1.0 -0.1087873073
C  C323  1  0.88338000  0.02642000  0.35962000  1.0 -0.1087873073
C  C324  1  0.35962000  0.73058000  0.88338000  1.0 -0.1087873073
C  C325  1  0.97358000  0.26942000  0.11662000  1.0 -0.1087873073
C  C326  1  0.26942000  0.97358000  0.64038000  1.0 -0.1087873073
C  C327  1  0.64038000  0.11662000  0.26942000  1.0 -0.1087873073
C  C328  1  0.11662000  0.64038000  0.97358000  1.0 -0.1087873073
C  C329  1  0.64038000  0.97358000  0.11662000  1.0 -0.1087873073
C  C330  1  0.11662000  0.26942000  0.64038000  1.0 -0.1087873073
C  C331  1  0.97358000  0.64038000  0.26942000  1.0 -0.1087873073
C  C332  1  0.26942000  0.11662000  0.97358000  1.0 -0.1087873073
C  C333  1  0.26942000  0.64038000  0.11662000  1.0 -0.1087873073
C  C334  1  0.97358000  0.11662000  0.64038000  1.0 -0.1002007084
C  C335  1  0.11662000  0.97358000  0.26942000  1.0 -0.1087873073
C  C336  1  0.64038000  0.26942000  0.97358000  1.0 -0.1087873073
C  C337  1  0.96112000  0.22190000  0.59508000  1.0 -0.2026538247
C  C338  1  0.22190000  0.96112000  0.22190000  1.0 -0.2055891503
C  C339  1  0.59508000  0.22190000  0.96112000  1.0 -0.2026538247
C  C340  1  0.22190000  0.59508000  0.22190000  1.0 -0.2055891503
C  C341  1  0.59508000  0.96112000  0.22190000  1.0 -0.2026538247
C  C342  1  0.22190000  0.22190000  0.96112000  1.0 -0.2026538247
C  C343  1  0.96112000  0.59508000  0.22190000  1.0 -0.2055891503
C  C344  1  0.22190000  0.22190000  0.59508000  1.0 -0.2026538247
C  C345  1  0.22190000  0.59508000  0.96112000  1.0 -0.2026538247
C  C346  1  0.96112000  0.22190000  0.22190000  1.0 -0.2026538247
C  C347  1  0.22190000  0.96112000  0.59508000  1.0 -0.2026538247
C  C348  1  0.59508000  0.22190000  0.22190000  1.0 -0.2026538247
C  C349  1  0.03888000  0.77810000  0.77810000  1.0 -0.2055891503
C  C350  1  0.77810000  0.03888000  0.40492000  1.0 -0.2026538247
C  C351  1  0.40492000  0.77810000  0.77810000  1.0 -0.2026538247
C  C352  1  0.77810000  0.40492000  0.03888000  1.0 -0.2026538247
C  C353  1  0.40492000  0.03888000  0.77810000  1.0 -0.2026538247
C  C354  1  0.77810000  0.77810000  0.40492000  1.0 -0.2026538247
C  C355  1  0.03888000  0.40492000  0.77810000  1.0 -0.2026538247
C  C356  1  0.77810000  0.77810000  0.03888000  1.0 -0.2055891503
C  C357  1  0.77810000  0.40492000  0.77810000  1.0 -0.2026538247
C  C358  1  0.03888000  0.77810000  0.40492000  1.0 -0.2026538247
C  C359  1  0.77810000  0.03888000  0.77810000  1.0 -0.2026538247
C  C360  1  0.40492000  0.77810000  0.03888000  1.0 -0.2055891503
C  C361  1  0.95430000  0.25584000  0.58290000  1.0 0.0826184851
C  C362  1  0.25584000  0.95430000  0.20696000  1.0 0.0857576568
C  C363  1  0.58290000  0.20696000  0.95430000  1.0 0.0857576568
C  C364  1  0.20696000  0.58290000  0.25584000  1.0 0.0857576568
C  C365  1  0.58290000  0.95430000  0.25584000  1.0 0.0826184851
C  C366  1  0.20696000  0.25584000  0.95430000  1.0 0.0857576568
C  C367  1  0.95430000  0.58290000  0.20696000  1.0 0.0826184851
C  C368  1  0.25584000  0.20696000  0.58290000  1.0 0.0826184851
C  C369  1  0.25584000  0.58290000  0.95430000  1.0 0.0857576568
C  C370  1  0.95430000  0.20696000  0.25584000  1.0 0.0826184851
C  C371  1  0.20696000  0.95430000  0.58290000  1.0 0.0826184851
C  C372  1  0.58290000  0.25584000  0.20696000  1.0 0.0826184851
C  C373  1  0.04570000  0.74416000  0.79304000  1.0 0.0857576568
C  C374  1  0.74416000  0.04570000  0.41710000  1.0 0.0826184851
C  C375  1  0.41710000  0.79304000  0.74416000  1.0 0.0826184851
C  C376  1  0.79304000  0.41710000  0.04570000  1.0 0.0857576568
C  C377  1  0.41710000  0.04570000  0.79304000  1.0 0.0826184851
C  C378  1  0.79304000  0.74416000  0.41710000  1.0 0.0857576568
C  C379  1  0.04570000  0.41710000  0.74416000  1.0 0.0826184851
C  C380  1  0.74416000  0.79304000  0.04570000  1.0 0.0826184851
C  C381  1  0.74416000  0.41710000  0.79304000  1.0 0.0857576568
C  C382  1  0.04570000  0.79304000  0.41710000  1.0 0.0857576568
C  C383  1  0.79304000  0.04570000  0.74416000  1.0 0.0857576568
C  C384  1  0.41710000  0.74416000  0.04570000  1.0 0.0857576568
C  C385  1  0.04570000  0.74416000  0.41710000  1.0 0.0857576568
C  C386  1  0.74416000  0.04570000  0.79304000  1.0 0.0857576568
C  C387  1  0.41710000  0.79304000  0.04570000  1.0 0.0826184851
C  C388  1  0.79304000  0.41710000  0.74416000  1.0 0.0826184851
C  C389  1  0.41710000  0.04570000  0.74416000  1.0 0.0826184851
C  C390  1  0.79304000  0.74416000  0.04570000  1.0 0.0826184851
C  C391  1  0.04570000  0.41710000  0.79304000  1.0 0.0826184851
C  C392  1  0.74416000  0.79304000  0.41710000  1.0 0.0857576568
C  C393  1  0.74416000  0.41710000  0.04570000  1.0 0.0826184851
C  C394  1  0.04570000  0.79304000  0.74416000  1.0 0.0826184851
C  C395  1  0.79304000  0.04570000  0.41710000  1.0 0.0826184851
C  C396  1  0.41710000  0.74416000  0.79304000  1.0 0.0857576568
C  C397  1  0.95430000  0.25584000  0.20696000  1.0 0.0826184851
C  C398  1  0.25584000  0.95430000  0.58290000  1.0 0.0826184851
C  C399  1  0.58290000  0.20696000  0.25584000  1.0 0.0857576568
C  C400  1  0.20696000  0.58290000  0.95430000  1.0 0.0826184851
C  C401  1  0.58290000  0.95430000  0.20696000  1.0 0.0826184851
C  C402  1  0.20696000  0.25584000  0.58290000  1.0 0.0826184851
C  C403  1  0.95430000  0.58290000  0.25584000  1.0 0.0826184851
C  C404  1  0.25584000  0.20696000  0.95430000  1.0 0.0826184851
C  C405  1  0.25584000  0.58290000  0.20696000  1.0 0.0826184851
C  C406  1  0.95430000  0.20696000  0.58290000  1.0 0.0826184851
C  C407  1  0.20696000  0.95430000  0.25584000  1.0 0.0826184851
C  C408  1  0.58290000  0.25584000  0.95430000  1.0 0.0826184851
C  C409  1  0.94017000  0.27563000  0.55763000  1.0 -0.1934768972
C  C410  1  0.27563000  0.94017000  0.22657000  1.0 -0.1934768972
C  C411  1  0.55763000  0.22657000  0.94017000  1.0 -0.1934768972
C  C412  1  0.22657000  0.55763000  0.27563000  1.0 -0.1934768972
C  C413  1  0.55763000  0.94017000  0.27563000  1.0 -0.1934768972
C  C414  1  0.22657000  0.27563000  0.94017000  1.0 -0.1934768972
C  C415  1  0.94017000  0.55763000  0.22657000  1.0 -0.1934768972
C  C416  1  0.27563000  0.22657000  0.55763000  1.0 -0.1934768972
C  C417  1  0.27563000  0.55763000  0.94017000  1.0 -0.1934768972
C  C418  1  0.94017000  0.22657000  0.27563000  1.0 -0.1934768972
C  C419  1  0.22657000  0.94017000  0.55763000  1.0 -0.1934768972
C  C420  1  0.55763000  0.27563000  0.22657000  1.0 -0.1934768972
C  C421  1  0.05983000  0.72437000  0.77343000  1.0 -0.1934768972
C  C422  1  0.72437000  0.05983000  0.44237000  1.0 -0.1934768972
C  C423  1  0.44237000  0.77343000  0.72437000  1.0 -0.1934768972
C  C424  1  0.77343000  0.44237000  0.05983000  1.0 -0.1934768972
C  C425  1  0.44237000  0.05983000  0.77343000  1.0 -0.1934768972
C  C426  1  0.77343000  0.72437000  0.44237000  1.0 -0.2026538247
C  C427  1  0.05983000  0.44237000  0.72437000  1.0 -0.1934768972
C  C428  1  0.72437000  0.77343000  0.05983000  1.0 -0.1934768972
C  C429  1  0.72437000  0.44237000  0.77343000  1.0 -0.1934768972
C  C430  1  0.05983000  0.77343000  0.44237000  1.0 -0.1934768972
C  C431  1  0.77343000  0.05983000  0.72437000  1.0 -0.1934768972
C  C432  1  0.44237000  0.72437000  0.05983000  1.0 -0.1934768972
C  C433  1  0.05983000  0.72437000  0.44237000  1.0 -0.1934768972
C  C434  1  0.72437000  0.05983000  0.77343000  1.0 -0.1934768972
C  C435  1  0.44237000  0.77343000  0.05983000  1.0 -0.1934768972
C  C436  1  0.77343000  0.44237000  0.72437000  1.0 -0.1934768972
C  C437  1  0.44237000  0.05983000  0.72437000  1.0 -0.1934768972
C  C438  1  0.77343000  0.72437000  0.05983000  1.0 -0.1934768972
C  C439  1  0.05983000  0.44237000  0.77343000  1.0 -0.1934768972
C  C440  1  0.72437000  0.77343000  0.44237000  1.0 -0.1934768972
C  C441  1  0.72437000  0.44237000  0.05983000  1.0 -0.1934768972
C  C442  1  0.05983000  0.77343000  0.72437000  1.0 -0.1934768972
C  C443  1  0.77343000  0.05983000  0.44237000  1.0 -0.1934768972
C  C444  1  0.44237000  0.72437000  0.77343000  1.0 -0.1934768972
C  C445  1  0.94017000  0.27563000  0.22657000  1.0 -0.1934768972
C  C446  1  0.27563000  0.94017000  0.55763000  1.0 -0.1934768972
C  C447  1  0.55763000  0.22657000  0.27563000  1.0 -0.1934768972
C  C448  1  0.22657000  0.55763000  0.94017000  1.0 -0.1934768972
C  C449  1  0.55763000  0.94017000  0.22657000  1.0 -0.1934768972
C  C450  1  0.22657000  0.27563000  0.55763000  1.0 -0.1934768972
C  C451  1  0.94017000  0.55763000  0.27563000  1.0 -0.1934768972
C  C452  1  0.27563000  0.22657000  0.94017000  1.0 -0.1934768972
C  C453  1  0.27563000  0.55763000  0.22657000  1.0 -0.1934768972
C  C454  1  0.94017000  0.22657000  0.55763000  1.0 -0.1934768972
C  C455  1  0.22657000  0.94017000  0.27563000  1.0 -0.1934768972
C  C456  1  0.55763000  0.27563000  0.94017000  1.0 -0.1934768972
C  C457  1  0.93288000  0.26130000  0.54452000  1.0 0.1678665895
C  C458  1  0.26130000  0.93288000  0.26130000  1.0 0.1678665895
C  C459  1  0.54452000  0.26130000  0.93288000  1.0 0.1678665895
C  C460  1  0.26130000  0.54452000  0.26130000  1.0 0.1678665895
C  C461  1  0.54452000  0.93288000  0.26130000  1.0 0.1678665895
C  C462  1  0.26130000  0.26130000  0.93288000  1.0 0.1678665895
C  C463  1  0.93288000  0.54452000  0.26130000  1.0 0.1678665895
C  C464  1  0.26130000  0.26130000  0.54452000  1.0 0.1678665895
C  C465  1  0.26130000  0.54452000  0.93288000  1.0 0.1678665895
C  C466  1  0.93288000  0.26130000  0.26130000  1.0 0.1678665895
C  C467  1  0.26130000  0.93288000  0.54452000  1.0 0.1678665895
C  C468  1  0.54452000  0.26130000  0.26130000  1.0 0.1678665895
C  C469  1  0.06712000  0.73870000  0.73870000  1.0 0.1678665895
C  C470  1  0.73870000  0.06712000  0.45548000  1.0 0.1678665895
C  C471  1  0.45548000  0.73870000  0.73870000  1.0 0.1678665895
C  C472  1  0.73870000  0.45548000  0.06712000  1.0 0.1678665895
C  C473  1  0.45548000  0.06712000  0.73870000  1.0 0.1678665895
C  C474  1  0.73870000  0.73870000  0.45548000  1.0 0.1678665895
C  C475  1  0.06712000  0.45548000  0.73870000  1.0 0.1678665895
C  C476  1  0.73870000  0.73870000  0.06712000  1.0 0.1678665895
C  C477  1  0.73870000  0.45548000  0.73870000  1.0 0.1678665895
C  C478  1  0.06712000  0.73870000  0.45548000  1.0 0.1678665895
C  C479  1  0.73870000  0.06712000  0.73870000  1.0 0.1678665895
C  C480  1  0.45548000  0.73870000  0.06712000  1.0 0.1678665895
C  C481  1  0.91828000  0.28180000  0.51812000  1.0 -0.2886093708
C  C482  1  0.28180000  0.91828000  0.28180000  1.0 -0.2886093708
C  C483  1  0.51812000  0.28180000  0.91828000  1.0 -0.2837663253
C  C484  1  0.28180000  0.51812000  0.28180000  1.0 -0.2886093708
C  C485  1  0.51812000  0.91828000  0.28180000  1.0 -0.2886093708
C  C486  1  0.28180000  0.28180000  0.91828000  1.0 -0.2837663253
C  C487  1  0.91828000  0.51812000  0.28180000  1.0 -0.2886093708
C  C488  1  0.28180000  0.28180000  0.51812000  1.0 -0.2886093708
C  C489  1  0.28180000  0.51812000  0.91828000  1.0 -0.2837663253
C  C490  1  0.91828000  0.28180000  0.28180000  1.0 -0.2837663253
C  C491  1  0.28180000  0.91828000  0.51812000  1.0 -0.2886093708
C  C492  1  0.51812000  0.28180000  0.28180000  1.0 -0.2886093708
C  C493  1  0.08172000  0.71820000  0.71820000  1.0 -0.2886093708
C  C494  1  0.71820000  0.08172000  0.48188000  1.0 -0.2886093708
C  C495  1  0.48188000  0.71820000  0.71820000  1.0 -0.2886093708
C  C496  1  0.71820000  0.48188000  0.08172000  1.0 -0.2886093708
C  C497  1  0.48188000  0.08172000  0.71820000  1.0 -0.2886093708
C  C498  1  0.71820000  0.71820000  0.48188000  1.0 -0.2886093708
C  C499  1  0.08172000  0.48188000  0.71820000  1.0 -0.2886093708
C  C500  1  0.71820000  0.71820000  0.08172000  1.0 -0.2886093708
C  C501  1  0.71820000  0.48188000  0.71820000  1.0 -0.2886093708
C  C502  1  0.08172000  0.71820000  0.48188000  1.0 -0.2886093708
C  C503  1  0.71820000  0.08172000  0.71820000  1.0 -0.2837663253
C  C504  1  0.48188000  0.71820000  0.08172000  1.0 -0.2886093708
C  C505  1  0.91130000  0.29810000  0.49250000  1.0 -0.0709313263
C  C506  1  0.29810000  0.91130000  0.29810000  1.0 -0.0709313263
C  C507  1  0.49250000  0.29810000  0.91130000  1.0 -0.0709313263
C  C508  1  0.29810000  0.49250000  0.29810000  1.0 -0.0709313263
C  C509  1  0.49250000  0.91130000  0.29810000  1.0 -0.0709313263
C  C510  1  0.29810000  0.29810000  0.91130000  1.0 -0.0709313263
C  C511  1  0.91130000  0.49250000  0.29810000  1.0 -0.0709313263
C  C512  1  0.29810000  0.29810000  0.49250000  1.0 -0.0709313263
C  C513  1  0.29810000  0.49250000  0.91130000  1.0 -0.0709313263
C  C514  1  0.91130000  0.29810000  0.29810000  1.0 -0.0709313263
C  C515  1  0.29810000  0.91130000  0.49250000  1.0 -0.0709313263
C  C516  1  0.49250000  0.29810000  0.29810000  1.0 -0.0709313263
C  C517  1  0.08870000  0.70190000  0.70190000  1.0 -0.0709313263
C  C518  1  0.70190000  0.08870000  0.50750000  1.0 -0.0709313263
C  C519  1  0.50750000  0.70190000  0.70190000  1.0 -0.0709313263
C  C520  1  0.70190000  0.50750000  0.08870000  1.0 -0.0709313263
C  C521  1  0.50750000  0.08870000  0.70190000  1.0 -0.0709313263
C  C522  1  0.70190000  0.70190000  0.50750000  1.0 -0.0709313263
C  C523  1  0.08870000  0.50750000  0.70190000  1.0 -0.0709313263
C  C524  1  0.70190000  0.70190000  0.08870000  1.0 -0.0709313263
C  C525  1  0.70190000  0.50750000  0.70190000  1.0 -0.0709313263
C  C526  1  0.08870000  0.70190000  0.50750000  1.0 -0.0709313263
C  C527  1  0.70190000  0.08870000  0.70190000  1.0 -0.0709313263
C  C528  1  0.50750000  0.70190000  0.08870000  1.0 -0.0709313263
C  C529  1  0.89540000  0.32120000  0.46720000  1.0 0.0185418879
C  C530  1  0.32120000  0.89540000  0.31620000  1.0 0.013198333
C  C531  1  0.46720000  0.31620000  0.89540000  1.0 0.013198333
C  C532  1  0.31620000  0.46720000  0.32120000  1.0 0.013198333
C  C533  1  0.46720000  0.89540000  0.32120000  1.0 0.013198333
C  C534  1  0.31620000  0.32120000  0.89540000  1.0 0.0185418879
C  C535  1  0.89540000  0.46720000  0.31620000  1.0 0.013198333
C  C536  1  0.32120000  0.31620000  0.46720000  1.0 0.0185418879
C  C537  1  0.32120000  0.46720000  0.89540000  1.0 0.0185418879
C  C538  1  0.89540000  0.31620000  0.32120000  1.0 0.0185418879
C  C539  1  0.31620000  0.89540000  0.46720000  1.0 0.013198333
C  C540  1  0.46720000  0.32120000  0.31620000  1.0 0.0185418879
C  C541  1  0.10460000  0.67880000  0.68380000  1.0 0.0185418879
C  C542  1  0.67880000  0.10460000  0.53280000  1.0 0.0185418879
C  C543  1  0.53280000  0.68380000  0.67880000  1.0 0.0185418879
C  C544  1  0.68380000  0.53280000  0.10460000  1.0 0.0185418879
C  C545  1  0.53280000  0.10460000  0.68380000  1.0 0.013198333
C  C546  1  0.68380000  0.67880000  0.53280000  1.0 0.013198333
C  C547  1  0.10460000  0.53280000  0.67880000  1.0 0.013198333
C  C548  1  0.67880000  0.68380000  0.10460000  1.0 0.013198333
C  C549  1  0.67880000  0.53280000  0.68380000  1.0 0.013198333
C  C550  1  0.10460000  0.68380000  0.53280000  1.0 0.0185418879
C  C551  1  0.68380000  0.10460000  0.67880000  1.0 0.013198333
C  C552  1  0.53280000  0.67880000  0.10460000  1.0 0.0185418879
C  C553  1  0.10460000  0.67880000  0.53280000  1.0 0.0185418879
C  C554  1  0.67880000  0.10460000  0.68380000  1.0 0.013198333
C  C555  1  0.53280000  0.68380000  0.10460000  1.0 0.0185418879
C  C556  1  0.68380000  0.53280000  0.67880000  1.0 0.013198333
C  C557  1  0.53280000  0.10460000  0.67880000  1.0 0.013198333
C  C558  1  0.68380000  0.67880000  0.10460000  1.0 0.0185418879
C  C559  1  0.10460000  0.53280000  0.68380000  1.0 0.0185418879
C  C560  1  0.67880000  0.68380000  0.53280000  1.0 0.0185418879
C  C561  1  0.67880000  0.53280000  0.10460000  1.0 0.013198333
C  C562  1  0.10460000  0.68380000  0.67880000  1.0 0.0185418879
C  C563  1  0.68380000  0.10460000  0.53280000  1.0 0.013198333
C  C564  1  0.53280000  0.67880000  0.68380000  1.0 0.0185418879
C  C565  1  0.89540000  0.32120000  0.31620000  1.0 0.013198333
C  C566  1  0.32120000  0.89540000  0.46720000  1.0 0.013198333
C  C567  1  0.46720000  0.31620000  0.32120000  1.0 0.0185418879
C  C568  1  0.31620000  0.46720000  0.89540000  1.0 0.013198333
C  C569  1  0.46720000  0.89540000  0.31620000  1.0 0.0185418879
C  C570  1  0.31620000  0.32120000  0.46720000  1.0 0.0185418879
C  C571  1  0.89540000  0.46720000  0.32120000  1.0 0.013198333
C  C572  1  0.32120000  0.31620000  0.89540000  1.0 0.013198333
C  C573  1  0.32120000  0.46720000  0.31620000  1.0 0.013198333
C  C574  1  0.89540000  0.31620000  0.46720000  1.0 0.0185418879
C  C575  1  0.31620000  0.89540000  0.32120000  1.0 0.0185418879
C  C576  1  0.46720000  0.32120000  0.89540000  1.0 0.0185418879
C  C577  1  0.88819000  0.35391000  0.40399000  1.0 0.1112649729
C  C578  1  0.35391000  0.88819000  0.35391000  1.0 0.1112649729
C  C579  1  0.40399000  0.35391000  0.88819000  1.0 0.1112649729
C  C580  1  0.35391000  0.40399000  0.35391000  1.0 0.1112649729
C  C581  1  0.40399000  0.88819000  0.35391000  1.0 0.1112649729
C  C582  1  0.35391000  0.35391000  0.88819000  1.0 0.1112649729
C  C583  1  0.88819000  0.40399000  0.35391000  1.0 0.1112649729
C  C584  1  0.35391000  0.35391000  0.40399000  1.0 0.1112649729
C  C585  1  0.35391000  0.40399000  0.88819000  1.0 0.1112649729
C  C586  1  0.88819000  0.35391000  0.35391000  1.0 0.1112649729
C  C587  1  0.35391000  0.88819000  0.40399000  1.0 0.1112649729
C  C588  1  0.40399000  0.35391000  0.35391000  1.0 0.1112649729
C  C589  1  0.11181000  0.64609000  0.64609000  1.0 0.1112649729
C  C590  1  0.64609000  0.11181000  0.59601000  1.0 0.1112649729
C  C591  1  0.59601000  0.64609000  0.64609000  1.0 0.1112649729
C  C592  1  0.64609000  0.59601000  0.11181000  1.0 0.1112649729
C  C593  1  0.59601000  0.11181000  0.64609000  1.0 0.1112649729
C  C594  1  0.64609000  0.64609000  0.59601000  1.0 0.1112649729
C  C595  1  0.11181000  0.59601000  0.64609000  1.0 0.1112649729
C  C596  1  0.64609000  0.64609000  0.11181000  1.0 0.1112649729
C  C597  1  0.64609000  0.59601000  0.64609000  1.0 0.1112649729
C  C598  1  0.11181000  0.64609000  0.59601000  1.0 0.1112649729
C  C599  1  0.64609000  0.11181000  0.64609000  1.0 0.1112649729
C  C600  1  0.59601000  0.64609000  0.11181000  1.0 0.1112649729
C  C601  1  0.90910000  0.32070000  0.41270000  1.0 -0.1087873073
C  C602  1  0.32070000  0.90910000  0.35750000  1.0 -0.1002007084
C  C603  1  0.41270000  0.35750000  0.90910000  1.0 -0.1087873073
C  C604  1  0.35750000  0.41270000  0.32070000  1.0 -0.1087873073
C  C605  1  0.41270000  0.90910000  0.32070000  1.0 -0.1087873073
C  C606  1  0.35750000  0.32070000  0.90910000  1.0 -0.1002007084
C  C607  1  0.90910000  0.41270000  0.35750000  1.0 -0.1087873073
C  C608  1  0.32070000  0.35750000  0.41270000  1.0 -0.1002007084
C  C609  1  0.32070000  0.41270000  0.90910000  1.0 -0.1087873073
C  C610  1  0.90910000  0.35750000  0.32070000  1.0 -0.1087873073
C  C611  1  0.35750000  0.90910000  0.41270000  1.0 -0.1002007084
C  C612  1  0.41270000  0.32070000  0.35750000  1.0 -0.1087873073
C  C613  1  0.09090000  0.67930000  0.64250000  1.0 -0.1002007084
C  C614  1  0.67930000  0.09090000  0.58730000  1.0 -0.1087873073
C  C615  1  0.58730000  0.64250000  0.67930000  1.0 -0.1002007084
C  C616  1  0.64250000  0.58730000  0.09090000  1.0 -0.1087873073
C  C617  1  0.58730000  0.09090000  0.64250000  1.0 -0.1002007084
C  C618  1  0.64250000  0.67930000  0.58730000  1.0 -0.1002007084
C  C619  1  0.09090000  0.58730000  0.67930000  1.0 -0.1087873073
C  C620  1  0.67930000  0.64250000  0.09090000  1.0 -0.1002007084
C  C621  1  0.67930000  0.58730000  0.64250000  1.0 -0.1087873073
C  C622  1  0.09090000  0.64250000  0.58730000  1.0 -0.1002007084
C  C623  1  0.64250000  0.09090000  0.67930000  1.0 -0.1087873073
C  C624  1  0.58730000  0.67930000  0.09090000  1.0 -0.1002007084
C  C625  1  0.09090000  0.67930000  0.58730000  1.0 -0.1087873073
C  C626  1  0.67930000  0.09090000  0.64250000  1.0 -0.1087873073
C  C627  1  0.58730000  0.64250000  0.09090000  1.0 -0.1087873073
C  C628  1  0.64250000  0.58730000  0.67930000  1.0 -0.1087873073
C  C629  1  0.58730000  0.09090000  0.67930000  1.0 -0.1087873073
C  C630  1  0.64250000  0.67930000  0.09090000  1.0 -0.1002007084
C  C631  1  0.09090000  0.58730000  0.64250000  1.0 -0.1002007084
C  C632  1  0.67930000  0.64250000  0.58730000  1.0 -0.1087873073
C  C633  1  0.67930000  0.58730000  0.09090000  1.0 -0.1087873073
C  C634  1  0.09090000  0.64250000  0.67930000  1.0 -0.1087873073
C  C635  1  0.64250000  0.09090000  0.58730000  1.0 -0.1087873073
C  C636  1  0.58730000  0.67930000  0.64250000  1.0 -0.1087873073
C  C637  1  0.90910000  0.32070000  0.35750000  1.0 -0.1087873073
C  C638  1  0.32070000  0.90910000  0.41270000  1.0 -0.1002007084
C  C639  1  0.41270000  0.35750000  0.32070000  1.0 -0.1087873073
C  C640  1  0.35750000  0.41270000  0.90910000  1.0 -0.1002007084
C  C641  1  0.41270000  0.90910000  0.35750000  1.0 -0.1002007084
C  C642  1  0.35750000  0.32070000  0.41270000  1.0 -0.1087873073
C  C643  1  0.90910000  0.41270000  0.32070000  1.0 -0.1002007084
C  C644  1  0.32070000  0.35750000  0.90910000  1.0 -0.1002007084
C  C645  1  0.32070000  0.41270000  0.35750000  1.0 -0.1002007084
C  C646  1  0.90910000  0.35750000  0.41270000  1.0 -0.1087873073
C  C647  1  0.35750000  0.90910000  0.32070000  1.0 -0.1002007084
C  C648  1  0.41270000  0.32070000  0.90910000  1.0 -0.1087873073
C  C649  1  0.91290000  0.30430000  0.44410000  1.0 -0.0709313263
C  C650  1  0.30430000  0.91290000  0.33870000  1.0 -0.0709313263
C  C651  1  0.44410000  0.33870000  0.91290000  1.0 -0.0709313263
C  C652  1  0.33870000  0.44410000  0.30430000  1.0 -0.0709313263
C  C653  1  0.44410000  0.91290000  0.30430000  1.0 -0.0709313263
C  C654  1  0.33870000  0.30430000  0.91290000  1.0 -0.0709313263
C  C655  1  0.91290000  0.44410000  0.33870000  1.0 -0.0709313263
C  C656  1  0.30430000  0.33870000  0.44410000  1.0 -0.0709313263
C  C657  1  0.30430000  0.44410000  0.91290000  1.0 -0.0709313263
C  C658  1  0.91290000  0.33870000  0.30430000  1.0 -0.0709313263
C  C659  1  0.33870000  0.91290000  0.44410000  1.0 -0.0709313263
C  C660  1  0.44410000  0.30430000  0.33870000  1.0 -0.0709313263
C  C661  1  0.08710000  0.69570000  0.66130000  1.0 -0.0709313263
C  C662  1  0.69570000  0.08710000  0.55590000  1.0 -0.0709313263
C  C663  1  0.55590000  0.66130000  0.69570000  1.0 -0.0709313263
C  C664  1  0.66130000  0.55590000  0.08710000  1.0 -0.0709313263
C  C665  1  0.55590000  0.08710000  0.66130000  1.0 -0.0709313263
C  C666  1  0.66130000  0.69570000  0.55590000  1.0 -0.0709313263
C  C667  1  0.08710000  0.55590000  0.69570000  1.0 -0.0709313263
C  C668  1  0.69570000  0.66130000  0.08710000  1.0 -0.0709313263
C  C669  1  0.69570000  0.55590000  0.66130000  1.0 -0.0709313263
C  C670  1  0.08710000  0.66130000  0.55590000  1.0 -0.0709313263
C  C671  1  0.66130000  0.08710000  0.69570000  1.0 -0.0709313263
C  C672  1  0.55590000  0.69570000  0.08710000  1.0 -0.0709313263
C  C673  1  0.08710000  0.69570000  0.55590000  1.0 -0.0709313263
C  C674  1  0.69570000  0.08710000  0.66130000  1.0 -0.0709313263
C  C675  1  0.55590000  0.66130000  0.08710000  1.0 -0.0709313263
C  C676  1  0.66130000  0.55590000  0.69570000  1.0 -0.0709313263
C  C677  1  0.55590000  0.08710000  0.69570000  1.0 -0.0709313263
C  C678  1  0.66130000  0.69570000  0.08710000  1.0 -0.0709313263
C  C679  1  0.08710000  0.55590000  0.66130000  1.0 -0.0709313263
C  C680  1  0.69570000  0.66130000  0.55590000  1.0 -0.0709313263
C  C681  1  0.69570000  0.55590000  0.08710000  1.0 -0.0709313263
C  C682  1  0.08710000  0.66130000  0.69570000  1.0 -0.0709313263
C  C683  1  0.66130000  0.08710000  0.55590000  1.0 -0.0709313263
C  C684  1  0.55590000  0.69570000  0.66130000  1.0 -0.0709313263
C  C685  1  0.91290000  0.30430000  0.33870000  1.0 -0.0709313263
C  C686  1  0.30430000  0.91290000  0.44410000  1.0 -0.0709313263
C  C687  1  0.44410000  0.33870000  0.30430000  1.0 -0.0709313263
C  C688  1  0.33870000  0.44410000  0.91290000  1.0 -0.0709313263
C  C689  1  0.44410000  0.91290000  0.33870000  1.0 -0.0709313263
C  C690  1  0.33870000  0.30430000  0.44410000  1.0 -0.0709313263
C  C691  1  0.91290000  0.44410000  0.30430000  1.0 -0.0709313263
C  C692  1  0.30430000  0.33870000  0.91290000  1.0 -0.0709313263
C  C693  1  0.30430000  0.44410000  0.33870000  1.0 -0.0709313263
C  C694  1  0.91290000  0.33870000  0.44410000  1.0 -0.0709313263
C  C695  1  0.33870000  0.91290000  0.30430000  1.0 -0.0709313263
C  C696  1  0.44410000  0.30430000  0.91290000  1.0 -0.0709313263
C  C697  1  0.87453000  0.35427000  0.45873000  1.0 -0.0618482071
C  C698  1  0.35427000  0.87453000  0.31247000  1.0 -0.0618482071
C  C699  1  0.45873000  0.31247000  0.87453000  1.0 -0.0618482071
C  C700  1  0.31247000  0.45873000  0.35427000  1.0 -0.0618482071
C  C701  1  0.45873000  0.87453000  0.35427000  1.0 -0.0618482071
C  C702  1  0.31247000  0.35427000  0.87453000  1.0 -0.0618482071
C  C703  1  0.87453000  0.45873000  0.31247000  1.0 -0.0618482071
C  C704  1  0.35427000  0.31247000  0.45873000  1.0 -0.0618482071
C  C705  1  0.35427000  0.45873000  0.87453000  1.0 -0.0618482071
C  C706  1  0.87453000  0.31247000  0.35427000  1.0 -0.0618482071
C  C707  1  0.31247000  0.87453000  0.45873000  1.0 -0.0618482071
C  C708  1  0.45873000  0.35427000  0.31247000  1.0 -0.0618482071
C  C709  1  0.12547000  0.64573000  0.68753000  1.0 -0.0618482071
C  C710  1  0.64573000  0.12547000  0.54127000  1.0 -0.0618482071
C  C711  1  0.54127000  0.68753000  0.64573000  1.0 -0.0618482071
C  C712  1  0.68753000  0.54127000  0.12547000  1.0 -0.0618482071
C  C713  1  0.54127000  0.12547000  0.68753000  1.0 -0.0618482071
C  C714  1  0.68753000  0.64573000  0.54127000  1.0 -0.0618482071
C  C715  1  0.12547000  0.54127000  0.64573000  1.0 -0.0618482071
C  C716  1  0.64573000  0.68753000  0.12547000  1.0 -0.0618482071
C  C717  1  0.64573000  0.54127000  0.68753000  1.0 -0.0618482071
C  C718  1  0.12547000  0.68753000  0.54127000  1.0 -0.0618482071
C  C719  1  0.68753000  0.12547000  0.64573000  1.0 -0.0618482071
C  C720  1  0.54127000  0.64573000  0.12547000  1.0 -0.0618482071
C  C721  1  0.12547000  0.64573000  0.54127000  1.0 -0.0618482071
C  C722  1  0.64573000  0.12547000  0.68753000  1.0 -0.0618482071
C  C723  1  0.54127000  0.68753000  0.12547000  1.0 -0.0618482071
C  C724  1  0.68753000  0.54127000  0.64573000  1.0 -0.0618482071
C  C725  1  0.54127000  0.12547000  0.64573000  1.0 -0.0618482071
C  C726  1  0.68753000  0.64573000  0.12547000  1.0 -0.0618482071
C  C727  1  0.12547000  0.54127000  0.68753000  1.0 -0.0618482071
C  C728  1  0.64573000  0.68753000  0.54127000  1.0 -0.0618482071
C  C729  1  0.64573000  0.54127000  0.12547000  1.0 -0.0618482071
C  C730  1  0.12547000  0.68753000  0.64573000  1.0 -0.0618482071
C  C731  1  0.68753000  0.12547000  0.54127000  1.0 -0.0618482071
C  C732  1  0.54127000  0.64573000  0.68753000  1.0 -0.0618482071
C  C733  1  0.87453000  0.35427000  0.31247000  1.0 -0.0618482071
C  C734  1  0.35427000  0.87453000  0.45873000  1.0 -0.0618482071
C  C735  1  0.45873000  0.31247000  0.35427000  1.0 -0.0618482071
C  C736  1  0.31247000  0.45873000  0.87453000  1.0 -0.0618482071
C  C737  1  0.45873000  0.87453000  0.31247000  1.0 -0.0618482071
C  C738  1  0.31247000  0.35427000  0.45873000  1.0 -0.0618482071
C  C739  1  0.87453000  0.45873000  0.35427000  1.0 -0.0618482071
C  C740  1  0.35427000  0.31247000  0.87453000  1.0 -0.0618482071
C  C741  1  0.35427000  0.45873000  0.31247000  1.0 -0.0618482071
C  C742  1  0.87453000  0.31247000  0.45873000  1.0 -0.0618482071
C  C743  1  0.31247000  0.87453000  0.35427000  1.0 -0.0618482071
C  C744  1  0.45873000  0.35427000  0.87453000  1.0 -0.0618482071
C  C745  1  0.87080000  0.33140000  0.42720000  1.0 -0.1156414258
C  C746  1  0.33140000  0.87080000  0.37060000  1.0 -0.1087873073
C  C747  1  0.42720000  0.37060000  0.87080000  1.0 -0.1087873073
C  C748  1  0.37060000  0.42720000  0.33140000  1.0 -0.1087873073
C  C749  1  0.42720000  0.87080000  0.33140000  1.0 -0.1156414258
C  C750  1  0.37060000  0.33140000  0.87080000  1.0 -0.1087873073
C  C751  1  0.87080000  0.42720000  0.37060000  1.0 -0.1156414258
C  C752  1  0.33140000  0.37060000  0.42720000  1.0 -0.1156414258
C  C753  1  0.33140000  0.42720000  0.87080000  1.0 -0.1087873073
C  C754  1  0.87080000  0.37060000  0.33140000  1.0 -0.1156414258
C  C755  1  0.37060000  0.87080000  0.42720000  1.0 -0.1087873073
C  C756  1  0.42720000  0.33140000  0.37060000  1.0 -0.1087873073
C  C757  1  0.12920000  0.66860000  0.62940000  1.0 -0.1156414258
C  C758  1  0.66860000  0.12920000  0.57280000  1.0 -0.1087873073
C  C759  1  0.57280000  0.62940000  0.66860000  1.0 -0.1156414258
C  C760  1  0.62940000  0.57280000  0.12920000  1.0 -0.1087873073
C  C761  1  0.57280000  0.12920000  0.62940000  1.0 -0.1156414258
C  C762  1  0.62940000  0.66860000  0.57280000  1.0 -0.1156414258
C  C763  1  0.12920000  0.57280000  0.66860000  1.0 -0.1087873073
C  C764  1  0.66860000  0.62940000  0.12920000  1.0 -0.1087873073
C  C765  1  0.66860000  0.57280000  0.62940000  1.0 -0.1087873073
C  C766  1  0.12920000  0.62940000  0.57280000  1.0 -0.1087873073
C  C767  1  0.62940000  0.12920000  0.66860000  1.0 -0.1156414258
C  C768  1  0.57280000  0.66860000  0.12920000  1.0 -0.1156414258
C  C769  1  0.12920000  0.66860000  0.57280000  1.0 -0.1087873073
C  C770  1  0.66860000  0.12920000  0.62940000  1.0 -0.1156414258
C  C771  1  0.57280000  0.62940000  0.12920000  1.0 -0.1087873073
C  C772  1  0.62940000  0.57280000  0.66860000  1.0 -0.1087873073
C  C773  1  0.57280000  0.12920000  0.66860000  1.0 -0.1087873073
C  C774  1  0.62940000  0.66860000  0.12920000  1.0 -0.1087873073
C  C775  1  0.12920000  0.57280000  0.62940000  1.0 -0.1087873073
C  C776  1  0.66860000  0.62940000  0.57280000  1.0 -0.1156414258
C  C777  1  0.66860000  0.57280000  0.12920000  1.0 -0.1087873073
C  C778  1  0.12920000  0.62940000  0.66860000  1.0 -0.1087873073
C  C779  1  0.62940000  0.12920000  0.57280000  1.0 -0.1087873073
C  C780  1  0.57280000  0.66860000  0.62940000  1.0 -0.1087873073
C  C781  1  0.87080000  0.33140000  0.37060000  1.0 -0.1156414258
C  C782  1  0.33140000  0.87080000  0.42720000  1.0 -0.1087873073
C  C783  1  0.42720000  0.37060000  0.33140000  1.0 -0.1156414258
C  C784  1  0.37060000  0.42720000  0.87080000  1.0 -0.1087873073
C  C785  1  0.42720000  0.87080000  0.37060000  1.0 -0.1087873073
C  C786  1  0.37060000  0.33140000  0.42720000  1.0 -0.1156414258
C  C787  1  0.87080000  0.42720000  0.33140000  1.0 -0.1087873073
C  C788  1  0.33140000  0.37060000  0.87080000  1.0 -0.1087873073
C  C789  1  0.33140000  0.42720000  0.37060000  1.0 -0.1087873073
C  C790  1  0.87080000  0.37060000  0.42720000  1.0 -0.1156414258
C  C791  1  0.37060000  0.87080000  0.33140000  1.0 -0.1087873073
C  C792  1  0.42720000  0.33140000  0.87080000  1.0 -0.1087873073
N  N1  1  0.87950000  0.37350000  0.37350000  1.0 -0.2240452518
N  N2  1  0.37350000  0.87950000  0.37350000  1.0 -0.226081091
N  N3  1  0.37350000  0.37350000  0.87950000  1.0 -0.226081091
N  N4  1  0.37350000  0.37350000  0.37350000  1.0 -0.226081091
N  N5  1  0.12050000  0.62650000  0.62650000  1.0 -0.226081091
N  N6  1  0.62650000  0.12050000  0.62650000  1.0 -0.226081091
N  N7  1  0.62650000  0.62650000  0.62650000  1.0 -0.226081091
N  N8  1  0.62650000  0.62650000  0.12050000  1.0 -0.226081091
O  O1  1  0.99034000  0.29934000  0.66586000  1.0 -0.4993747187
O  O2  1  0.29934000  0.99034000  0.04446000  1.0 -0.4993747187
O  O3  1  0.66586000  0.04446000  0.99034000  1.0 -0.4993747187
O  O4  1  0.04446000  0.66586000  0.29934000  1.0 -0.4993747187
O  O5  1  0.66586000  0.99034000  0.29934000  1.0 -0.4993747187
O  O6  1  0.04446000  0.29934000  0.99034000  1.0 -0.4993747187
O  O7  1  0.99034000  0.66586000  0.04446000  1.0 -0.4993747187
O  O8  1  0.29934000  0.04446000  0.66586000  1.0 -0.4993747187
O  O9  1  0.29934000  0.66586000  0.99034000  1.0 -0.4993747187
O  O10  1  0.99034000  0.04446000  0.29934000  1.0 -0.4993747187
O  O11  1  0.04446000  0.99034000  0.66586000  1.0 -0.4993747187
O  O12  1  0.66586000  0.29934000  0.04446000  1.0 -0.4993747187
O  O13  1  0.00966000  0.70066000  0.95554000  1.0 -0.4993747187
O  O14  1  0.70066000  0.00966000  0.33414000  1.0 -0.4993747187
O  O15  1  0.33414000  0.95554000  0.70066000  1.0 -0.4993747187
O  O16  1  0.95554000  0.33414000  0.00966000  1.0 -0.4993747187
O  O17  1  0.33414000  0.00966000  0.95554000  1.0 -0.4993747187
O  O18  1  0.95554000  0.70066000  0.33414000  1.0 -0.4993747187
O  O19  1  0.00966000  0.33414000  0.70066000  1.0 -0.4993747187
O  O20  1  0.70066000  0.95554000  0.00966000  1.0 -0.4993747187
O  O21  1  0.70066000  0.33414000  0.95554000  1.0 -0.4993747187
O  O22  1  0.00966000  0.95554000  0.33414000  1.0 -0.4993747187
O  O23  1  0.95554000  0.00966000  0.70066000  1.0 -0.4993747187
O  O24  1  0.33414000  0.70066000  0.00966000  1.0 -0.4993747187
O  O25  1  0.00966000  0.70066000  0.33414000  1.0 -0.4993747187
O  O26  1  0.70066000  0.00966000  0.95554000  1.0 -0.4993747187
O  O27  1  0.33414000  0.95554000  0.00966000  1.0 -0.4993747187
O  O28  1  0.95554000  0.33414000  0.70066000  1.0 -0.4993747187
O  O29  1  0.33414000  0.00966000  0.70066000  1.0 -0.4993747187
O  O30  1  0.95554000  0.70066000  0.00966000  1.0 -0.4993747187
O  O31  1  0.00966000  0.33414000  0.95554000  1.0 -0.4993747187
O  O32  1  0.70066000  0.95554000  0.33414000  1.0 -0.4993747187
O  O33  1  0.70066000  0.33414000  0.00966000  1.0 -0.4993747187
O  O34  1  0.00966000  0.95554000  0.70066000  1.0 -0.4993747187
O  O35  1  0.95554000  0.00966000  0.33414000  1.0 -0.4993747187
O  O36  1  0.33414000  0.70066000  0.95554000  1.0 -0.4993747187
O  O37  1  0.99034000  0.29934000  0.04446000  1.0 -0.4993747187
O  O38  1  0.29934000  0.99034000  0.66586000  1.0 -0.4993747187
O  O39  1  0.66586000  0.04446000  0.29934000  1.0 -0.4993747187
O  O40  1  0.04446000  0.66586000  0.99034000  1.0 -0.4993747187
O  O41  1  0.66586000  0.99034000  0.04446000  1.0 -0.4993747187
O  O42  1  0.04446000  0.29934000  0.66586000  1.0 -0.4993747187
O  O43  1  0.99034000  0.66586000  0.29934000  1.0 -0.4993747187
O  O44  1  0.29934000  0.04446000  0.99034000  1.0 -0.4993747187
O  O45  1  0.29934000  0.66586000  0.04446000  1.0 -0.4993747187
O  O46  1  0.99034000  0.04446000  0.66586000  1.0 -0.4993747187
O  O47  1  0.04446000  0.99034000  0.29934000  1.0 -0.4993747187
O  O48  1  0.66586000  0.29934000  0.99034000  1.0 -0.4993747187
O  O49  1  0.98764000  0.34546000  0.62104000  1.0 -0.5122190738
O  O50  1  0.34546000  0.98764000  0.04586000  1.0 -0.5122190738
O  O51  1  0.62104000  0.04586000  0.98764000  1.0 -0.5122190738
O  O52  1  0.04586000  0.62104000  0.34546000  1.0 -0.5122190738
O  O53  1  0.62104000  0.98764000  0.34546000  1.0 -0.5122190738
O  O54  1  0.04586000  0.34546000  0.98764000  1.0 -0.5122190738
O  O55  1  0.98764000  0.62104000  0.04586000  1.0 -0.5122190738
O  O56  1  0.34546000  0.04586000  0.62104000  1.0 -0.5122190738
O  O57  1  0.34546000  0.62104000  0.98764000  1.0 -0.5122190738
O  O58  1  0.98764000  0.04586000  0.34546000  1.0 -0.5122190738
O  O59  1  0.04586000  0.98764000  0.62104000  1.0 -0.5122190738
O  O60  1  0.62104000  0.34546000  0.04586000  1.0 -0.5122190738
O  O61  1  0.01236000  0.65454000  0.95414000  1.0 -0.5122190738
O  O62  1  0.65454000  0.01236000  0.37896000  1.0 -0.5122190738
O  O63  1  0.37896000  0.95414000  0.65454000  1.0 -0.5122190738
O  O64  1  0.95414000  0.37896000  0.01236000  1.0 -0.5122190738
O  O65  1  0.37896000  0.01236000  0.95414000  1.0 -0.5122190738
O  O66  1  0.95414000  0.65454000  0.37896000  1.0 -0.5122190738
O  O67  1  0.01236000  0.37896000  0.65454000  1.0 -0.5122190738
O  O68  1  0.65454000  0.95414000  0.01236000  1.0 -0.5122190738
O  O69  1  0.65454000  0.37896000  0.95414000  1.0 -0.5122190738
O  O70  1  0.01236000  0.95414000  0.37896000  1.0 -0.5122190738
O  O71  1  0.95414000  0.01236000  0.65454000  1.0 -0.5122190738
O  O72  1  0.37896000  0.65454000  0.01236000  1.0 -0.5122190738
O  O73  1  0.01236000  0.65454000  0.37896000  1.0 -0.5122190738
O  O74  1  0.65454000  0.01236000  0.95414000  1.0 -0.5122190738
O  O75  1  0.37896000  0.95414000  0.01236000  1.0 -0.5122190738
O  O76  1  0.95414000  0.37896000  0.65454000  1.0 -0.5122190738
O  O77  1  0.37896000  0.01236000  0.65454000  1.0 -0.5122190738
O  O78  1  0.95414000  0.65454000  0.01236000  1.0 -0.5122190738
O  O79  1  0.01236000  0.37896000  0.95414000  1.0 -0.5122190738
O  O80  1  0.65454000  0.95414000  0.37896000  1.0 -0.5122190738
O  O81  1  0.65454000  0.37896000  0.01236000  1.0 -0.5122190738
O  O82  1  0.01236000  0.95414000  0.65454000  1.0 -0.5122190738
O  O83  1  0.95414000  0.01236000  0.37896000  1.0 -0.5122190738
O  O84  1  0.37896000  0.65454000  0.95414000  1.0 -0.5122190738
O  O85  1  0.98764000  0.34546000  0.04586000  1.0 -0.5122190738
O  O86  1  0.34546000  0.98764000  0.62104000  1.0 -0.5122190738
O  O87  1  0.62104000  0.04586000  0.34546000  1.0 -0.5122190738
O  O88  1  0.04586000  0.62104000  0.98764000  1.0 -0.5122190738
O  O89  1  0.62104000  0.98764000  0.04586000  1.0 -0.5122190738
O  O90  1  0.04586000  0.34546000  0.62104000  1.0 -0.5122190738
O  O91  1  0.98764000  0.62104000  0.34546000  1.0 -0.5122190738
O  O92  1  0.34546000  0.04586000  0.98764000  1.0 -0.5122190738
O  O93  1  0.34546000  0.62104000  0.04586000  1.0 -0.5122190738
O  O94  1  0.98764000  0.04586000  0.62104000  1.0 -0.5122190738
O  O95  1  0.04586000  0.98764000  0.34546000  1.0 -0.5122190738
O  O96  1  0.62104000  0.34546000  0.98764000  1.0 -0.5122190738
O  O97  1  0.00000000  0.26620000  0.73380000  1.0 0.2022292341
O  O98  1  0.26620000  0.00000000  0.00000000  1.0 0.2115535724
O  O99  1  0.73380000  0.00000000  0.00000000  1.0 0.2163704137
O  O100  1  0.00000000  0.73380000  0.26620000  1.0 0.2022292341
O  O101  1  0.73380000  0.00000000  0.26620000  1.0 0.2022292341
O  O102  1  0.00000000  0.26620000  0.00000000  1.0 0.2115535724
O  O103  1  0.00000000  0.73380000  0.00000000  1.0 0.2115535724
O  O104  1  0.26620000  0.00000000  0.73380000  1.0 0.1933202396
O  O105  1  0.26620000  0.73380000  0.00000000  1.0 0.2115535724
O  O106  1  0.00000000  0.00000000  0.26620000  1.0 0.2022292341
O  O107  1  0.00000000  0.00000000  0.73380000  1.0 0.1933202396
O  O108  1  0.73380000  0.26620000  0.00000000  1.0 0.2163704137
