# DDEC6 charges by PACMAN v1.1 (https://github.com/mtap-research/PACMAN-charge/)
data_ADATAC_ASR_pacman
_symmetry_space_group_name_H-M   'P 1'
_cell_length_a   40.16230000
_cell_length_b   40.16230000
_cell_length_c   40.16230000
_cell_angle_alpha   60.00000000
_cell_angle_beta   60.00000000
_cell_angle_gamma   60.00000000
_symmetry_Int_Tables_number   1
_chemical_formula_structural   ZnH10C17N2O5
_chemical_formula_sum   'Zn24 H240 C408 N48 O120'
_cell_volume   45807.93661835
_cell_formula_units_Z   24
loop_
 _symmetry_equiv_pos_site_id
 _symmetry_equiv_pos_as_xyz
  1  'x, y, z'
loop_
 _atom_site_type_symbol
 _atom_site_label
 _atom_site_symmetry_multiplicity
 _atom_site_fract_x
 _atom_site_fract_y
 _atom_site_fract_z
 _atom_site_occupancy
 _atom_site_charge
Zn  Zn1  1  0.50222000  0.49778000  0.69590000  1.0 0.9543860381
Zn  Zn2  1  0.49778000  0.50222000  0.30410000  1.0 0.9543860381
Zn  Zn3  1  0.69590000  0.30410000  0.50222000  1.0 0.9543860381
Zn  Zn4  1  0.30410000  0.69590000  0.49778000  1.0 0.9543860381
Zn  Zn5  1  0.69590000  0.50222000  0.49778000  1.0 0.9543860381
Zn  Zn6  1  0.30410000  0.49778000  0.50222000  1.0 0.9543860381
Zn  Zn7  1  0.50222000  0.69590000  0.30410000  1.0 0.9543860381
Zn  Zn8  1  0.49778000  0.30410000  0.69590000  1.0 0.9543860381
Zn  Zn9  1  0.49778000  0.69590000  0.50222000  1.0 0.9543860381
Zn  Zn10  1  0.50222000  0.30410000  0.49778000  1.0 0.9543860381
Zn  Zn11  1  0.30410000  0.50222000  0.69590000  1.0 0.9543860381
Zn  Zn12  1  0.69590000  0.49778000  0.30410000  1.0 0.9543860381
Zn  Zn13  1  0.49861000  0.50139000  0.77011000  1.0 0.9732641404
Zn  Zn14  1  0.50139000  0.49861000  0.22989000  1.0 0.9732641404
Zn  Zn15  1  0.77011000  0.22989000  0.49861000  1.0 0.9732641404
Zn  Zn16  1  0.22989000  0.77011000  0.50139000  1.0 0.9732641404
Zn  Zn17  1  0.77011000  0.49861000  0.50139000  1.0 0.9732641404
Zn  Zn18  1  0.22989000  0.50139000  0.49861000  1.0 0.9732641404
Zn  Zn19  1  0.49861000  0.77011000  0.22989000  1.0 0.9732641404
Zn  Zn20  1  0.50139000  0.22989000  0.77011000  1.0 0.9732641404
Zn  Zn21  1  0.50139000  0.77011000  0.49861000  1.0 0.9732641404
Zn  Zn22  1  0.49861000  0.22989000  0.50139000  1.0 0.9732641404
Zn  Zn23  1  0.22989000  0.49861000  0.77011000  1.0 0.9732641404
Zn  Zn24  1  0.77011000  0.50139000  0.22989000  1.0 0.9732641404
H  H1  1  0.50930000  0.37490000  0.73950000  1.0 0.1405327787
H  H2  1  0.37490000  0.50930000  0.37630000  1.0 0.1405327787
H  H3  1  0.73950000  0.37630000  0.50930000  1.0 0.1405327787
H  H4  1  0.37630000  0.73950000  0.37490000  1.0 0.1405327787
H  H5  1  0.73950000  0.50930000  0.37490000  1.0 0.1405327787
H  H6  1  0.37630000  0.37490000  0.50930000  1.0 0.1405327787
H  H7  1  0.50930000  0.73950000  0.37630000  1.0 0.1405327787
H  H8  1  0.37490000  0.37630000  0.73950000  1.0 0.1405327787
H  H9  1  0.37490000  0.73950000  0.50930000  1.0 0.1405327787
H  H10  1  0.50930000  0.37630000  0.37490000  1.0 0.1405327787
H  H11  1  0.37630000  0.50930000  0.73950000  1.0 0.1405327787
H  H12  1  0.73950000  0.37490000  0.37630000  1.0 0.1405327787
H  H13  1  0.49070000  0.62510000  0.26050000  1.0 0.1405327787
H  H14  1  0.62510000  0.49070000  0.62370000  1.0 0.1405327787
H  H15  1  0.26050000  0.62370000  0.49070000  1.0 0.1405327787
H  H16  1  0.62370000  0.26050000  0.62510000  1.0 0.1405327787
H  H17  1  0.26050000  0.49070000  0.62510000  1.0 0.1405327787
H  H18  1  0.62370000  0.62510000  0.49070000  1.0 0.1405327787
H  H19  1  0.49070000  0.26050000  0.62370000  1.0 0.1405327787
H  H20  1  0.62510000  0.62370000  0.26050000  1.0 0.1405327787
H  H21  1  0.62510000  0.26050000  0.49070000  1.0 0.1405327787
H  H22  1  0.49070000  0.62370000  0.62510000  1.0 0.1405327787
H  H23  1  0.62370000  0.49070000  0.26050000  1.0 0.1405327787
H  H24  1  0.26050000  0.62510000  0.62370000  1.0 0.1405327787
H  H25  1  0.52060000  0.26980000  0.83240000  1.0 0.1405327787
H  H26  1  0.26980000  0.52060000  0.37720000  1.0 0.1405327787
H  H27  1  0.83240000  0.37720000  0.52060000  1.0 0.1405327787
H  H28  1  0.37720000  0.83240000  0.26980000  1.0 0.1405327787
H  H29  1  0.83240000  0.52060000  0.26980000  1.0 0.1405327787
H  H30  1  0.37720000  0.26980000  0.52060000  1.0 0.1405327787
H  H31  1  0.52060000  0.83240000  0.37720000  1.0 0.1405327787
H  H32  1  0.26980000  0.37720000  0.83240000  1.0 0.1405327787
H  H33  1  0.26980000  0.83240000  0.52060000  1.0 0.1405327787
H  H34  1  0.52060000  0.37720000  0.26980000  1.0 0.1405327787
H  H35  1  0.37720000  0.52060000  0.83240000  1.0 0.1405327787
H  H36  1  0.83240000  0.26980000  0.37720000  1.0 0.1405327787
H  H37  1  0.47940000  0.73020000  0.16760000  1.0 0.1405327787
H  H38  1  0.73020000  0.47940000  0.62280000  1.0 0.1405327787
H  H39  1  0.16760000  0.62280000  0.47940000  1.0 0.1405327787
H  H40  1  0.62280000  0.16760000  0.73020000  1.0 0.1405327787
H  H41  1  0.16760000  0.47940000  0.73020000  1.0 0.1405327787
H  H42  1  0.62280000  0.73020000  0.47940000  1.0 0.1405327787
H  H43  1  0.47940000  0.16760000  0.62280000  1.0 0.1405327787
H  H44  1  0.73020000  0.62280000  0.16760000  1.0 0.1405327787
H  H45  1  0.73020000  0.16760000  0.47940000  1.0 0.1405327787
H  H46  1  0.47940000  0.62280000  0.73020000  1.0 0.1405327787
H  H47  1  0.62280000  0.47940000  0.16760000  1.0 0.1405327787
H  H48  1  0.16760000  0.73020000  0.62280000  1.0 0.1405327787
H  H49  1  0.51700000  0.36740000  0.83980000  1.0 0.1309423046
H  H50  1  0.36740000  0.51700000  0.27580000  1.0 0.1309423046
H  H51  1  0.83980000  0.27580000  0.51700000  1.0 0.1309423046
H  H52  1  0.27580000  0.83980000  0.36740000  1.0 0.1309423046
H  H53  1  0.83980000  0.51700000  0.36740000  1.0 0.1309423046
H  H54  1  0.27580000  0.36740000  0.51700000  1.0 0.1309423046
H  H55  1  0.51700000  0.83980000  0.27580000  1.0 0.1309423046
H  H56  1  0.36740000  0.27580000  0.83980000  1.0 0.1309423046
H  H57  1  0.36740000  0.83980000  0.51700000  1.0 0.1309423046
H  H58  1  0.51700000  0.27580000  0.36740000  1.0 0.1309423046
H  H59  1  0.27580000  0.51700000  0.83980000  1.0 0.1309423046
H  H60  1  0.83980000  0.36740000  0.27580000  1.0 0.1309423046
H  H61  1  0.48300000  0.63260000  0.16020000  1.0 0.1309423046
H  H62  1  0.63260000  0.48300000  0.72420000  1.0 0.1309423046
H  H63  1  0.16020000  0.72420000  0.48300000  1.0 0.1309423046
H  H64  1  0.72420000  0.16020000  0.63260000  1.0 0.1309423046
H  H65  1  0.16020000  0.48300000  0.63260000  1.0 0.1309423046
H  H66  1  0.72420000  0.63260000  0.48300000  1.0 0.1309423046
H  H67  1  0.48300000  0.16020000  0.72420000  1.0 0.1309423046
H  H68  1  0.63260000  0.72420000  0.16020000  1.0 0.1309423046
H  H69  1  0.63260000  0.16020000  0.48300000  1.0 0.1309423046
H  H70  1  0.48300000  0.72420000  0.63260000  1.0 0.1309423046
H  H71  1  0.72420000  0.48300000  0.16020000  1.0 0.1309423046
H  H72  1  0.16020000  0.63260000  0.72420000  1.0 0.1309423046
H  H73  1  0.56400000  0.31100000  0.93240000  1.0 0.1202187768
H  H74  1  0.31100000  0.56400000  0.19260000  1.0 0.1202187768
H  H75  1  0.93240000  0.19260000  0.56400000  1.0 0.1202187768
H  H76  1  0.19260000  0.93240000  0.31100000  1.0 0.1202187768
H  H77  1  0.93240000  0.56400000  0.31100000  1.0 0.1202187768
H  H78  1  0.19260000  0.31100000  0.56400000  1.0 0.1202187768
H  H79  1  0.56400000  0.93240000  0.19260000  1.0 0.1202187768
H  H80  1  0.31100000  0.19260000  0.93240000  1.0 0.1202187768
H  H81  1  0.31100000  0.93240000  0.56400000  1.0 0.1202187768
H  H82  1  0.56400000  0.19260000  0.31100000  1.0 0.1202187768
H  H83  1  0.19260000  0.56400000  0.93240000  1.0 0.1202187768
H  H84  1  0.93240000  0.31100000  0.19260000  1.0 0.1202187768
H  H85  1  0.43600000  0.68900000  0.06760000  1.0 0.1202187768
H  H86  1  0.68900000  0.43600000  0.80740000  1.0 0.1202187768
H  H87  1  0.06760000  0.80740000  0.43600000  1.0 0.1202187768
H  H88  1  0.80740000  0.06760000  0.68900000  1.0 0.1202187768
H  H89  1  0.06760000  0.43600000  0.68900000  1.0 0.1202187768
H  H90  1  0.80740000  0.68900000  0.43600000  1.0 0.1202187768
H  H91  1  0.43600000  0.06760000  0.80740000  1.0 0.1202187768
H  H92  1  0.68900000  0.80740000  0.06760000  1.0 0.1202187768
H  H93  1  0.68900000  0.06760000  0.43600000  1.0 0.1202187768
H  H94  1  0.43600000  0.80740000  0.68900000  1.0 0.1202187768
H  H95  1  0.80740000  0.43600000  0.06760000  1.0 0.1202187768
H  H96  1  0.06760000  0.68900000  0.80740000  1.0 0.1202187768
H  H97  1  0.57030000  0.27210000  0.99670000  1.0 0.1309423046
H  H98  1  0.27210000  0.57030000  0.16090000  1.0 0.1309423046
H  H99  1  0.99670000  0.16090000  0.57030000  1.0 0.1309423046
H  H100  1  0.16090000  0.99670000  0.27210000  1.0 0.1309423046
H  H101  1  0.99670000  0.57030000  0.27210000  1.0 0.1309423046
H  H102  1  0.16090000  0.27210000  0.57030000  1.0 0.1309423046
H  H103  1  0.57030000  0.99670000  0.16090000  1.0 0.1309423046
H  H104  1  0.27210000  0.16090000  0.99670000  1.0 0.1309423046
H  H105  1  0.27210000  0.99670000  0.57030000  1.0 0.1309423046
H  H106  1  0.57030000  0.16090000  0.27210000  1.0 0.1309423046
H  H107  1  0.16090000  0.57030000  0.99670000  1.0 0.1309423046
H  H108  1  0.99670000  0.27210000  0.16090000  1.0 0.1309423046
H  H109  1  0.42970000  0.72790000  0.00330000  1.0 0.1309423046
H  H110  1  0.72790000  0.42970000  0.83910000  1.0 0.1309423046
H  H111  1  0.00330000  0.83910000  0.42970000  1.0 0.1309423046
H  H112  1  0.83910000  0.00330000  0.72790000  1.0 0.1309423046
H  H113  1  0.00330000  0.42970000  0.72790000  1.0 0.1309423046
H  H114  1  0.83910000  0.72790000  0.42970000  1.0 0.1309423046
H  H115  1  0.42970000  0.00330000  0.83910000  1.0 0.1309423046
H  H116  1  0.72790000  0.83910000  0.00330000  1.0 0.1309423046
H  H117  1  0.72790000  0.00330000  0.42970000  1.0 0.1309423046
H  H118  1  0.42970000  0.83910000  0.72790000  1.0 0.1309423046
H  H119  1  0.83910000  0.42970000  0.00330000  1.0 0.1309423046
H  H120  1  0.00330000  0.72790000  0.83910000  1.0 0.1309423046
H  H121  1  0.53110000  0.19210000  0.00710000  1.0 0.1202187768
H  H122  1  0.19210000  0.53110000  0.26970000  1.0 0.1202187768
H  H123  1  0.00710000  0.26970000  0.53110000  1.0 0.1202187768
H  H124  1  0.26970000  0.00710000  0.19210000  1.0 0.1202187768
H  H125  1  0.00710000  0.53110000  0.19210000  1.0 0.1202187768
H  H126  1  0.26970000  0.19210000  0.53110000  1.0 0.1202187768
H  H127  1  0.53110000  0.00710000  0.26970000  1.0 0.1202187768
H  H128  1  0.19210000  0.26970000  0.00710000  1.0 0.1202187768
H  H129  1  0.19210000  0.00710000  0.53110000  1.0 0.1202187768
H  H130  1  0.53110000  0.26970000  0.19210000  1.0 0.1202187768
H  H131  1  0.26970000  0.53110000  0.00710000  1.0 0.1202187768
H  H132  1  0.00710000  0.19210000  0.26970000  1.0 0.1202187768
H  H133  1  0.46890000  0.80790000  0.99290000  1.0 0.1202187768
H  H134  1  0.80790000  0.46890000  0.73030000  1.0 0.1202187768
H  H135  1  0.99290000  0.73030000  0.46890000  1.0 0.1202187768
H  H136  1  0.73030000  0.99290000  0.80790000  1.0 0.1202187768
H  H137  1  0.99290000  0.46890000  0.80790000  1.0 0.1202187768
H  H138  1  0.73030000  0.80790000  0.46890000  1.0 0.1202187768
H  H139  1  0.46890000  0.99290000  0.73030000  1.0 0.1202187768
H  H140  1  0.80790000  0.73030000  0.99290000  1.0 0.1202187768
H  H141  1  0.80790000  0.99290000  0.46890000  1.0 0.1202187768
H  H142  1  0.46890000  0.73030000  0.80790000  1.0 0.1202187768
H  H143  1  0.73030000  0.46890000  0.99290000  1.0 0.1202187768
H  H144  1  0.99290000  0.80790000  0.73030000  1.0 0.1202187768
H  H145  1  0.52420000  0.23140000  0.94120000  1.0 0.1202187768
H  H146  1  0.23140000  0.52420000  0.30320000  1.0 0.1202187768
H  H147  1  0.94120000  0.30320000  0.52420000  1.0 0.1202187768
H  H148  1  0.30320000  0.94120000  0.23140000  1.0 0.1202187768
H  H149  1  0.94120000  0.52420000  0.23140000  1.0 0.1202187768
H  H150  1  0.30320000  0.23140000  0.52420000  1.0 0.1202187768
H  H151  1  0.52420000  0.94120000  0.30320000  1.0 0.1202187768
H  H152  1  0.23140000  0.30320000  0.94120000  1.0 0.1202187768
H  H153  1  0.23140000  0.94120000  0.52420000  1.0 0.1202187768
H  H154  1  0.52420000  0.30320000  0.23140000  1.0 0.1202187768
H  H155  1  0.30320000  0.52420000  0.94120000  1.0 0.1202187768
H  H156  1  0.94120000  0.23140000  0.30320000  1.0 0.1202187768
H  H157  1  0.47580000  0.76860000  0.05880000  1.0 0.1202187768
H  H158  1  0.76860000  0.47580000  0.69680000  1.0 0.1202187768
H  H159  1  0.05880000  0.69680000  0.47580000  1.0 0.1202187768
H  H160  1  0.69680000  0.05880000  0.76860000  1.0 0.1202187768
H  H161  1  0.05880000  0.47580000  0.76860000  1.0 0.1202187768
H  H162  1  0.69680000  0.76860000  0.47580000  1.0 0.1202187768
H  H163  1  0.47580000  0.05880000  0.69680000  1.0 0.1202187768
H  H164  1  0.76860000  0.69680000  0.05880000  1.0 0.1202187768
H  H165  1  0.76860000  0.05880000  0.47580000  1.0 0.1202187768
H  H166  1  0.47580000  0.69680000  0.76860000  1.0 0.1202187768
H  H167  1  0.69680000  0.47580000  0.05880000  1.0 0.1202187768
H  H168  1  0.05880000  0.76860000  0.69680000  1.0 0.1202187768
H  H169  1  0.56970000  0.14910000  0.05910000  1.0 0.1110395823
H  H170  1  0.14910000  0.56970000  0.22210000  1.0 0.1110395823
H  H171  1  0.05910000  0.22210000  0.56970000  1.0 0.1110395823
H  H172  1  0.22210000  0.05910000  0.14910000  1.0 0.1110395823
H  H173  1  0.05910000  0.56970000  0.14910000  1.0 0.1110395823
H  H174  1  0.22210000  0.14910000  0.56970000  1.0 0.1110395823
H  H175  1  0.56970000  0.05910000  0.22210000  1.0 0.1110395823
H  H176  1  0.14910000  0.22210000  0.05910000  1.0 0.1110395823
H  H177  1  0.14910000  0.05910000  0.56970000  1.0 0.1110395823
H  H178  1  0.56970000  0.22210000  0.14910000  1.0 0.1110395823
H  H179  1  0.22210000  0.56970000  0.05910000  1.0 0.1110395823
H  H180  1  0.05910000  0.14910000  0.22210000  1.0 0.1110395823
H  H181  1  0.43030000  0.85090000  0.94090000  1.0 0.1110395823
H  H182  1  0.85090000  0.43030000  0.77790000  1.0 0.1110395823
H  H183  1  0.94090000  0.77790000  0.43030000  1.0 0.1110395823
H  H184  1  0.77790000  0.94090000  0.85090000  1.0 0.1110395823
H  H185  1  0.94090000  0.43030000  0.85090000  1.0 0.1110395823
H  H186  1  0.77790000  0.85090000  0.43030000  1.0 0.1110395823
H  H187  1  0.43030000  0.94090000  0.77790000  1.0 0.1110395823
H  H188  1  0.85090000  0.77790000  0.94090000  1.0 0.1110395823
H  H189  1  0.85090000  0.94090000  0.43030000  1.0 0.1110395823
H  H190  1  0.43030000  0.77790000  0.85090000  1.0 0.1110395823
H  H191  1  0.77790000  0.43030000  0.94090000  1.0 0.1110395823
H  H192  1  0.94090000  0.85090000  0.77790000  1.0 0.1110395823
H  H193  1  0.52170000  0.17370000  0.07270000  1.0 0.1110395823
H  H194  1  0.17370000  0.52170000  0.23190000  1.0 0.1110395823
H  H195  1  0.07270000  0.23190000  0.52170000  1.0 0.1110395823
H  H196  1  0.23190000  0.07270000  0.17370000  1.0 0.1110395823
H  H197  1  0.07270000  0.52170000  0.17370000  1.0 0.1110395823
H  H198  1  0.23190000  0.17370000  0.52170000  1.0 0.1110395823
H  H199  1  0.52170000  0.07270000  0.23190000  1.0 0.1110395823
H  H200  1  0.17370000  0.23190000  0.07270000  1.0 0.1110395823
H  H201  1  0.17370000  0.07270000  0.52170000  1.0 0.1110395823
H  H202  1  0.52170000  0.23190000  0.17370000  1.0 0.1110395823
H  H203  1  0.23190000  0.52170000  0.07270000  1.0 0.1110395823
H  H204  1  0.07270000  0.17370000  0.23190000  1.0 0.1110395823
H  H205  1  0.47830000  0.82630000  0.92730000  1.0 0.1110395823
H  H206  1  0.82630000  0.47830000  0.76810000  1.0 0.1110395823
H  H207  1  0.92730000  0.76810000  0.47830000  1.0 0.1110395823
H  H208  1  0.76810000  0.92730000  0.82630000  1.0 0.1110395823
H  H209  1  0.92730000  0.47830000  0.82630000  1.0 0.1110395823
H  H210  1  0.76810000  0.82630000  0.47830000  1.0 0.1110395823
H  H211  1  0.47830000  0.92730000  0.76810000  1.0 0.1110395823
H  H212  1  0.82630000  0.76810000  0.92730000  1.0 0.1110395823
H  H213  1  0.82630000  0.92730000  0.47830000  1.0 0.1110395823
H  H214  1  0.47830000  0.76810000  0.82630000  1.0 0.1110395823
H  H215  1  0.76810000  0.47830000  0.92730000  1.0 0.1110395823
H  H216  1  0.92730000  0.82630000  0.76810000  1.0 0.1110395823
H  H217  1  0.54840000  0.10220000  0.13420000  1.0 0.1202187768
H  H218  1  0.10220000  0.54840000  0.21520000  1.0 0.1202187768
H  H219  1  0.13420000  0.21520000  0.54840000  1.0 0.1202187768
H  H220  1  0.21520000  0.13420000  0.10220000  1.0 0.1202187768
H  H221  1  0.13420000  0.54840000  0.10220000  1.0 0.1202187768
H  H222  1  0.21520000  0.10220000  0.54840000  1.0 0.1309423046
H  H223  1  0.54840000  0.13420000  0.21520000  1.0 0.1202187768
H  H224  1  0.10220000  0.21520000  0.13420000  1.0 0.1202187768
H  H225  1  0.10220000  0.13420000  0.54840000  1.0 0.1202187768
H  H226  1  0.54840000  0.21520000  0.10220000  1.0 0.1202187768
H  H227  1  0.21520000  0.54840000  0.13420000  1.0 0.1202187768
H  H228  1  0.13420000  0.10220000  0.21520000  1.0 0.1202187768
H  H229  1  0.45160000  0.89780000  0.86580000  1.0 0.1309423046
H  H230  1  0.89780000  0.45160000  0.78480000  1.0 0.1309423046
H  H231  1  0.86580000  0.78480000  0.45160000  1.0 0.1202187768
H  H232  1  0.78480000  0.86580000  0.89780000  1.0 0.1309423046
H  H233  1  0.86580000  0.45160000  0.89780000  1.0 0.1309423046
H  H234  1  0.78480000  0.89780000  0.45160000  1.0 0.1202187768
H  H235  1  0.45160000  0.86580000  0.78480000  1.0 0.1309423046
H  H236  1  0.89780000  0.78480000  0.86580000  1.0 0.1309423046
H  H237  1  0.89780000  0.86580000  0.45160000  1.0 0.1202187768
H  H238  1  0.45160000  0.78480000  0.89780000  1.0 0.1309423046
H  H239  1  0.78480000  0.45160000  0.86580000  1.0 0.1309423046
H  H240  1  0.86580000  0.89780000  0.78480000  1.0 0.1309423046
C  C1  1  0.50940000  0.42140000  0.76660000  1.0 0.6018591796
C  C2  1  0.42140000  0.50940000  0.30260000  1.0 0.6018591796
C  C3  1  0.76660000  0.30260000  0.50940000  1.0 0.6018591796
C  C4  1  0.30260000  0.76660000  0.42140000  1.0 0.6018591796
C  C5  1  0.76660000  0.50940000  0.42140000  1.0 0.6018591796
C  C6  1  0.30260000  0.42140000  0.50940000  1.0 0.6018591796
C  C7  1  0.50940000  0.76660000  0.30260000  1.0 0.6018591796
C  C8  1  0.42140000  0.30260000  0.76660000  1.0 0.6018591796
C  C9  1  0.42140000  0.76660000  0.50940000  1.0 0.6018591796
C  C10  1  0.50940000  0.30260000  0.42140000  1.0 0.6018591796
C  C11  1  0.30260000  0.50940000  0.76660000  1.0 0.6018591796
C  C12  1  0.76660000  0.42140000  0.30260000  1.0 0.6018591796
C  C13  1  0.49060000  0.57860000  0.23340000  1.0 0.6018591796
C  C14  1  0.57860000  0.49060000  0.69740000  1.0 0.6018591796
C  C15  1  0.23340000  0.69740000  0.49060000  1.0 0.6018591796
C  C16  1  0.69740000  0.23340000  0.57860000  1.0 0.6018591796
C  C17  1  0.23340000  0.49060000  0.57860000  1.0 0.6018591796
C  C18  1  0.69740000  0.57860000  0.49060000  1.0 0.6018591796
C  C19  1  0.49060000  0.23340000  0.69740000  1.0 0.6018591796
C  C20  1  0.57860000  0.69740000  0.23340000  1.0 0.6018591796
C  C21  1  0.57860000  0.23340000  0.49060000  1.0 0.6018591796
C  C22  1  0.49060000  0.69740000  0.57860000  1.0 0.6018591796
C  C23  1  0.69740000  0.49060000  0.23340000  1.0 0.6018591796
C  C24  1  0.23340000  0.57860000  0.69740000  1.0 0.6018591796
C  C25  1  0.51259000  0.37759000  0.78661000  1.0 -0.01994673
C  C26  1  0.37759000  0.51259000  0.32321000  1.0 -0.01994673
C  C27  1  0.78661000  0.32321000  0.51259000  1.0 -0.01994673
C  C28  1  0.32321000  0.78661000  0.37759000  1.0 -0.01994673
C  C29  1  0.78661000  0.51259000  0.37759000  1.0 -0.01994673
C  C30  1  0.32321000  0.37759000  0.51259000  1.0 -0.01994673
C  C31  1  0.51259000  0.78661000  0.32321000  1.0 -0.01994673
C  C32  1  0.37759000  0.32321000  0.78661000  1.0 -0.01994673
C  C33  1  0.37759000  0.78661000  0.51259000  1.0 -0.01994673
C  C34  1  0.51259000  0.32321000  0.37759000  1.0 -0.01994673
C  C35  1  0.32321000  0.51259000  0.78661000  1.0 -0.01994673
C  C36  1  0.78661000  0.37759000  0.32321000  1.0 -0.01994673
C  C37  1  0.48741000  0.62241000  0.21339000  1.0 -0.01994673
C  C38  1  0.62241000  0.48741000  0.67679000  1.0 -0.01994673
C  C39  1  0.21339000  0.67679000  0.48741000  1.0 -0.01994673
C  C40  1  0.67679000  0.21339000  0.62241000  1.0 -0.01994673
C  C41  1  0.21339000  0.48741000  0.62241000  1.0 -0.01994673
C  C42  1  0.67679000  0.62241000  0.48741000  1.0 -0.01994673
C  C43  1  0.48741000  0.21339000  0.67679000  1.0 -0.01994673
C  C44  1  0.62241000  0.67679000  0.21339000  1.0 -0.01994673
C  C45  1  0.62241000  0.21339000  0.48741000  1.0 -0.01994673
C  C46  1  0.48741000  0.67679000  0.62241000  1.0 -0.01994673
C  C47  1  0.67679000  0.48741000  0.21339000  1.0 -0.01994673
C  C48  1  0.21339000  0.62241000  0.67679000  1.0 -0.01994673
C  C49  1  0.51189000  0.35955000  0.76577000  1.0 -0.1105884259
C  C50  1  0.35955000  0.51189000  0.36279000  1.0 -0.1105884259
C  C51  1  0.76577000  0.36279000  0.51189000  1.0 -0.1105884259
C  C52  1  0.36279000  0.76577000  0.35955000  1.0 -0.1105884259
C  C53  1  0.76577000  0.51189000  0.35955000  1.0 -0.1105884259
C  C54  1  0.36279000  0.35955000  0.51189000  1.0 -0.1105884259
C  C55  1  0.51189000  0.76577000  0.36279000  1.0 -0.1105884259
C  C56  1  0.35955000  0.36279000  0.76577000  1.0 -0.1105884259
C  C57  1  0.35955000  0.76577000  0.51189000  1.0 -0.1105884259
C  C58  1  0.51189000  0.36279000  0.35955000  1.0 -0.1105884259
C  C59  1  0.36279000  0.51189000  0.76577000  1.0 -0.1105884259
C  C60  1  0.76577000  0.35955000  0.36279000  1.0 -0.1105884259
C  C61  1  0.48811000  0.64045000  0.23423000  1.0 -0.1105884259
C  C62  1  0.64045000  0.48811000  0.63721000  1.0 -0.1105884259
C  C63  1  0.23423000  0.63721000  0.48811000  1.0 -0.1105884259
C  C64  1  0.63721000  0.23423000  0.64045000  1.0 -0.1105884259
C  C65  1  0.23423000  0.48811000  0.64045000  1.0 -0.1105884259
C  C66  1  0.63721000  0.64045000  0.48811000  1.0 -0.1105884259
C  C67  1  0.48811000  0.23423000  0.63721000  1.0 -0.1105884259
C  C68  1  0.64045000  0.63721000  0.23423000  1.0 -0.1105884259
C  C69  1  0.64045000  0.23423000  0.48811000  1.0 -0.1105884259
C  C70  1  0.48811000  0.63721000  0.64045000  1.0 -0.1105884259
C  C71  1  0.63721000  0.48811000  0.23423000  1.0 -0.1105884259
C  C72  1  0.23423000  0.64045000  0.63721000  1.0 -0.1105884259
C  C73  1  0.51492000  0.31968000  0.78268000  1.0 -0.01994673
C  C74  1  0.31968000  0.51492000  0.38272000  1.0 -0.01994673
C  C75  1  0.78268000  0.38272000  0.51492000  1.0 -0.01994673
C  C76  1  0.38272000  0.78268000  0.31968000  1.0 -0.01994673
C  C77  1  0.78268000  0.51492000  0.31968000  1.0 -0.01994673
C  C78  1  0.38272000  0.31968000  0.51492000  1.0 -0.01994673
C  C79  1  0.51492000  0.78268000  0.38272000  1.0 -0.01994673
C  C80  1  0.31968000  0.38272000  0.78268000  1.0 -0.01994673
C  C81  1  0.31968000  0.78268000  0.51492000  1.0 -0.01994673
C  C82  1  0.51492000  0.38272000  0.31968000  1.0 -0.01994673
C  C83  1  0.38272000  0.51492000  0.78268000  1.0 -0.01994673
C  C84  1  0.78268000  0.31968000  0.38272000  1.0 -0.01994673
C  C85  1  0.48508000  0.68032000  0.21732000  1.0 -0.01994673
C  C86  1  0.68032000  0.48508000  0.61728000  1.0 -0.01994673
C  C87  1  0.21732000  0.61728000  0.48508000  1.0 -0.01994673
C  C88  1  0.61728000  0.21732000  0.68032000  1.0 -0.01994673
C  C89  1  0.21732000  0.48508000  0.68032000  1.0 -0.01994673
C  C90  1  0.61728000  0.68032000  0.48508000  1.0 -0.01994673
C  C91  1  0.48508000  0.21732000  0.61728000  1.0 -0.01994673
C  C92  1  0.68032000  0.61728000  0.21732000  1.0 -0.01994673
C  C93  1  0.68032000  0.21732000  0.48508000  1.0 -0.01994673
C  C94  1  0.48508000  0.61728000  0.68032000  1.0 -0.01994673
C  C95  1  0.61728000  0.48508000  0.21732000  1.0 -0.01994673
C  C96  1  0.21732000  0.68032000  0.61728000  1.0 -0.01994673
C  C97  1  0.51400000  0.29880000  0.76120000  1.0 0.6138065805
C  C98  1  0.29880000  0.51400000  0.42600000  1.0 0.6138065805
C  C99  1  0.76120000  0.42600000  0.51400000  1.0 0.6138065805
C  C100  1  0.42600000  0.76120000  0.29880000  1.0 0.6138065805
C  C101  1  0.76120000  0.51400000  0.29880000  1.0 0.6138065805
C  C102  1  0.42600000  0.29880000  0.51400000  1.0 0.6138065805
C  C103  1  0.51400000  0.76120000  0.42600000  1.0 0.6138065805
C  C104  1  0.29880000  0.42600000  0.76120000  1.0 0.6138065805
C  C105  1  0.29880000  0.76120000  0.51400000  1.0 0.6138065805
C  C106  1  0.51400000  0.42600000  0.29880000  1.0 0.6138065805
C  C107  1  0.42600000  0.51400000  0.76120000  1.0 0.6138065805
C  C108  1  0.76120000  0.29880000  0.42600000  1.0 0.6138065805
C  C109  1  0.48600000  0.70120000  0.23880000  1.0 0.6138065805
C  C110  1  0.70120000  0.48600000  0.57400000  1.0 0.6138065805
C  C111  1  0.23880000  0.57400000  0.48600000  1.0 0.6138065805
C  C112  1  0.57400000  0.23880000  0.70120000  1.0 0.6138065805
C  C113  1  0.23880000  0.48600000  0.70120000  1.0 0.6138065805
C  C114  1  0.57400000  0.70120000  0.48600000  1.0 0.6138065805
C  C115  1  0.48600000  0.23880000  0.57400000  1.0 0.6138065805
C  C116  1  0.70120000  0.57400000  0.23880000  1.0 0.6138065805
C  C117  1  0.70120000  0.23880000  0.48600000  1.0 0.6138065805
C  C118  1  0.48600000  0.57400000  0.70120000  1.0 0.6138065805
C  C119  1  0.57400000  0.48600000  0.23880000  1.0 0.6138065805
C  C120  1  0.23880000  0.70120000  0.57400000  1.0 0.6138065805
C  C121  1  0.51854000  0.29764000  0.82058000  1.0 -0.1403934961
C  C122  1  0.29764000  0.51854000  0.36324000  1.0 -0.1403934961
C  C123  1  0.82058000  0.36324000  0.51854000  1.0 -0.1403934961
C  C124  1  0.36324000  0.82058000  0.29764000  1.0 -0.1403934961
C  C125  1  0.82058000  0.51854000  0.29764000  1.0 -0.1403934961
C  C126  1  0.36324000  0.29764000  0.51854000  1.0 -0.1403934961
C  C127  1  0.51854000  0.82058000  0.36324000  1.0 -0.1403934961
C  C128  1  0.29764000  0.36324000  0.82058000  1.0 -0.1403934961
C  C129  1  0.29764000  0.82058000  0.51854000  1.0 -0.1403934961
C  C130  1  0.51854000  0.36324000  0.29764000  1.0 -0.1403934961
C  C131  1  0.36324000  0.51854000  0.82058000  1.0 -0.1403934961
C  C132  1  0.82058000  0.29764000  0.36324000  1.0 -0.1403934961
C  C133  1  0.48146000  0.70236000  0.17942000  1.0 -0.1403934961
C  C134  1  0.70236000  0.48146000  0.63676000  1.0 -0.1403934961
C  C135  1  0.17942000  0.63676000  0.48146000  1.0 -0.1403934961
C  C136  1  0.63676000  0.17942000  0.70236000  1.0 -0.1403934961
C  C137  1  0.17942000  0.48146000  0.70236000  1.0 -0.1403934961
C  C138  1  0.63676000  0.70236000  0.48146000  1.0 -0.1403934961
C  C139  1  0.48146000  0.17942000  0.63676000  1.0 -0.1403934961
C  C140  1  0.70236000  0.63676000  0.17942000  1.0 -0.1403934961
C  C141  1  0.70236000  0.17942000  0.48146000  1.0 -0.1403934961
C  C142  1  0.48146000  0.63676000  0.70236000  1.0 -0.1403934961
C  C143  1  0.63676000  0.48146000  0.17942000  1.0 -0.1403934961
C  C144  1  0.17942000  0.70236000  0.63676000  1.0 -0.1403934961
C  C145  1  0.51930000  0.31550000  0.84150000  1.0 0.1405327787
C  C146  1  0.31550000  0.51930000  0.32370000  1.0 0.1405327787
C  C147  1  0.84150000  0.32370000  0.51930000  1.0 0.1405327787
C  C148  1  0.32370000  0.84150000  0.31550000  1.0 0.1405327787
C  C149  1  0.84150000  0.51930000  0.31550000  1.0 0.1405327787
C  C150  1  0.32370000  0.31550000  0.51930000  1.0 0.1405327787
C  C151  1  0.51930000  0.84150000  0.32370000  1.0 0.1405327787
C  C152  1  0.31550000  0.32370000  0.84150000  1.0 0.1405327787
C  C153  1  0.31550000  0.84150000  0.51930000  1.0 0.1405327787
C  C154  1  0.51930000  0.32370000  0.31550000  1.0 0.1405327787
C  C155  1  0.32370000  0.51930000  0.84150000  1.0 0.1405327787
C  C156  1  0.84150000  0.31550000  0.32370000  1.0 0.1405327787
C  C157  1  0.48070000  0.68450000  0.15850000  1.0 0.1405327787
C  C158  1  0.68450000  0.48070000  0.67630000  1.0 0.1405327787
C  C159  1  0.15850000  0.67630000  0.48070000  1.0 0.1405327787
C  C160  1  0.67630000  0.15850000  0.68450000  1.0 0.1405327787
C  C161  1  0.15850000  0.48070000  0.68450000  1.0 0.1405327787
C  C162  1  0.67630000  0.68450000  0.48070000  1.0 0.1405327787
C  C163  1  0.48070000  0.15850000  0.67630000  1.0 0.1405327787
C  C164  1  0.68450000  0.67630000  0.15850000  1.0 0.1405327787
C  C165  1  0.68450000  0.15850000  0.48070000  1.0 0.1405327787
C  C166  1  0.48070000  0.67630000  0.68450000  1.0 0.1405327787
C  C167  1  0.67630000  0.48070000  0.15850000  1.0 0.1405327787
C  C168  1  0.15850000  0.68450000  0.67630000  1.0 0.1405327787
C  C169  1  0.51644000  0.35512000  0.82528000  1.0 -0.1403934961
C  C170  1  0.35512000  0.51644000  0.30316000  1.0 -0.1403934961
C  C171  1  0.82528000  0.30316000  0.51644000  1.0 -0.1403934961
C  C172  1  0.30316000  0.82528000  0.35512000  1.0 -0.1403934961
C  C173  1  0.82528000  0.51644000  0.35512000  1.0 -0.1403934961
C  C174  1  0.30316000  0.35512000  0.51644000  1.0 -0.1403934961
C  C175  1  0.51644000  0.82528000  0.30316000  1.0 -0.1403934961
C  C176  1  0.35512000  0.30316000  0.82528000  1.0 -0.1403934961
C  C177  1  0.35512000  0.82528000  0.51644000  1.0 -0.1403934961
C  C178  1  0.51644000  0.30316000  0.35512000  1.0 -0.1403934961
C  C179  1  0.30316000  0.51644000  0.82528000  1.0 -0.1403934961
C  C180  1  0.82528000  0.35512000  0.30316000  1.0 -0.1403934961
C  C181  1  0.48356000  0.64488000  0.17472000  1.0 -0.1403934961
C  C182  1  0.64488000  0.48356000  0.69684000  1.0 -0.1403934961
C  C183  1  0.17472000  0.69684000  0.48356000  1.0 -0.1403934961
C  C184  1  0.69684000  0.17472000  0.64488000  1.0 -0.1403934961
C  C185  1  0.17472000  0.48356000  0.64488000  1.0 -0.1403934961
C  C186  1  0.69684000  0.64488000  0.48356000  1.0 -0.1403934961
C  C187  1  0.48356000  0.17472000  0.69684000  1.0 -0.1403934961
C  C188  1  0.64488000  0.69684000  0.17472000  1.0 -0.1403934961
C  C189  1  0.64488000  0.17472000  0.48356000  1.0 -0.1403934961
C  C190  1  0.48356000  0.69684000  0.64488000  1.0 -0.1403934961
C  C191  1  0.69684000  0.48356000  0.17472000  1.0 -0.1403934961
C  C192  1  0.17472000  0.64488000  0.69684000  1.0 -0.1403934961
C  C193  1  0.54333000  0.27367000  0.93207000  1.0 0.1405327787
C  C194  1  0.27367000  0.54333000  0.25093000  1.0 0.1405327787
C  C195  1  0.93207000  0.25093000  0.54333000  1.0 0.1405327787
C  C196  1  0.25093000  0.93207000  0.27367000  1.0 0.1405327787
C  C197  1  0.93207000  0.54333000  0.27367000  1.0 0.1405327787
C  C198  1  0.25093000  0.27367000  0.54333000  1.0 0.1405327787
C  C199  1  0.54333000  0.93207000  0.25093000  1.0 0.1405327787
C  C200  1  0.27367000  0.25093000  0.93207000  1.0 0.1405327787
C  C201  1  0.27367000  0.93207000  0.54333000  1.0 0.1405327787
C  C202  1  0.54333000  0.25093000  0.27367000  1.0 0.1405327787
C  C203  1  0.25093000  0.54333000  0.93207000  1.0 0.1405327787
C  C204  1  0.93207000  0.27367000  0.25093000  1.0 0.1405327787
C  C205  1  0.45667000  0.72633000  0.06793000  1.0 0.1405327787
C  C206  1  0.72633000  0.45667000  0.74907000  1.0 0.1405327787
C  C207  1  0.06793000  0.74907000  0.45667000  1.0 0.1405327787
C  C208  1  0.74907000  0.06793000  0.72633000  1.0 0.1405327787
C  C209  1  0.06793000  0.45667000  0.72633000  1.0 0.1405327787
C  C210  1  0.74907000  0.72633000  0.45667000  1.0 0.1405327787
C  C211  1  0.45667000  0.06793000  0.74907000  1.0 0.1405327787
C  C212  1  0.72633000  0.74907000  0.06793000  1.0 0.1405327787
C  C213  1  0.72633000  0.06793000  0.45667000  1.0 0.1405327787
C  C214  1  0.45667000  0.74907000  0.72633000  1.0 0.1405327787
C  C215  1  0.74907000  0.45667000  0.06793000  1.0 0.1405327787
C  C216  1  0.06793000  0.72633000  0.74907000  1.0 0.1405327787
C  C217  1  0.55720000  0.28680000  0.94760000  1.0 -0.1462004234
C  C218  1  0.28680000  0.55720000  0.20840000  1.0 -0.1462004234
C  C219  1  0.94760000  0.20840000  0.55720000  1.0 -0.1403934961
C  C220  1  0.20840000  0.94760000  0.28680000  1.0 -0.1462004234
C  C221  1  0.94760000  0.55720000  0.28680000  1.0 -0.1403934961
C  C222  1  0.20840000  0.28680000  0.55720000  1.0 -0.1462004234
C  C223  1  0.55720000  0.94760000  0.20840000  1.0 -0.1462004234
C  C224  1  0.28680000  0.20840000  0.94760000  1.0 -0.1403934961
C  C225  1  0.28680000  0.94760000  0.55720000  1.0 -0.1462004234
C  C226  1  0.55720000  0.20840000  0.28680000  1.0 -0.1403934961
C  C227  1  0.20840000  0.55720000  0.94760000  1.0 -0.1403934961
C  C228  1  0.94760000  0.28680000  0.20840000  1.0 -0.1403934961
C  C229  1  0.44280000  0.71320000  0.05240000  1.0 -0.1462004234
C  C230  1  0.71320000  0.44280000  0.79160000  1.0 -0.1403934961
C  C231  1  0.05240000  0.79160000  0.44280000  1.0 -0.1462004234
C  C232  1  0.79160000  0.05240000  0.71320000  1.0 -0.1403934961
C  C233  1  0.05240000  0.44280000  0.71320000  1.0 -0.1462004234
C  C234  1  0.79160000  0.71320000  0.44280000  1.0 -0.1462004234
C  C235  1  0.44280000  0.05240000  0.79160000  1.0 -0.1403934961
C  C236  1  0.71320000  0.79160000  0.05240000  1.0 -0.1462004234
C  C237  1  0.71320000  0.05240000  0.44280000  1.0 -0.1403934961
C  C238  1  0.44280000  0.79160000  0.71320000  1.0 -0.1403934961
C  C239  1  0.79160000  0.44280000  0.05240000  1.0 -0.1462004234
C  C240  1  0.05240000  0.71320000  0.79160000  1.0 -0.1462004234
C  C241  1  0.56090000  0.26350000  0.98570000  1.0 -0.2020922704
C  C242  1  0.26350000  0.56090000  0.18990000  1.0 -0.2020922704
C  C243  1  0.98570000  0.18990000  0.56090000  1.0 -0.2020922704
C  C244  1  0.18990000  0.98570000  0.26350000  1.0 -0.2020922704
C  C245  1  0.98570000  0.56090000  0.26350000  1.0 -0.2020922704
C  C246  1  0.18990000  0.26350000  0.56090000  1.0 -0.2020922704
C  C247  1  0.56090000  0.98570000  0.18990000  1.0 -0.2020922704
C  C248  1  0.26350000  0.18990000  0.98570000  1.0 -0.2020922704
C  C249  1  0.26350000  0.98570000  0.56090000  1.0 -0.2020922704
C  C250  1  0.56090000  0.18990000  0.26350000  1.0 -0.2020922704
C  C251  1  0.18990000  0.56090000  0.98570000  1.0 -0.2020922704
C  C252  1  0.98570000  0.26350000  0.18990000  1.0 -0.2020922704
C  C253  1  0.43910000  0.73650000  0.01430000  1.0 -0.2020922704
C  C254  1  0.73650000  0.43910000  0.81010000  1.0 -0.2020922704
C  C255  1  0.01430000  0.81010000  0.43910000  1.0 -0.2020922704
C  C256  1  0.81010000  0.01430000  0.73650000  1.0 -0.2020922704
C  C257  1  0.01430000  0.43910000  0.73650000  1.0 -0.2020922704
C  C258  1  0.81010000  0.73650000  0.43910000  1.0 -0.2020922704
C  C259  1  0.43910000  0.01430000  0.81010000  1.0 -0.2020922704
C  C260  1  0.73650000  0.81010000  0.01430000  1.0 -0.2020922704
C  C261  1  0.73650000  0.01430000  0.43910000  1.0 -0.2020922704
C  C262  1  0.43910000  0.81010000  0.73650000  1.0 -0.2020922704
C  C263  1  0.81010000  0.43910000  0.01430000  1.0 -0.2020922704
C  C264  1  0.01430000  0.73650000  0.81010000  1.0 -0.2020922704
C  C265  1  0.55120000  0.22780000  0.00840000  1.0 0.2572643583
C  C266  1  0.22780000  0.55120000  0.21260000  1.0 0.2540260535
C  C267  1  0.00840000  0.21260000  0.55120000  1.0 0.2540260535
C  C268  1  0.21260000  0.00840000  0.22780000  1.0 0.2540260535
C  C269  1  0.00840000  0.55120000  0.22780000  1.0 0.2540260535
C  C270  1  0.21260000  0.22780000  0.55120000  1.0 0.2540260535
C  C271  1  0.55120000  0.00840000  0.21260000  1.0 0.2540260535
C  C272  1  0.22780000  0.21260000  0.00840000  1.0 0.2540260535
C  C273  1  0.22780000  0.00840000  0.55120000  1.0 0.2540260535
C  C274  1  0.55120000  0.21260000  0.22780000  1.0 0.2540260535
C  C275  1  0.21260000  0.55120000  0.00840000  1.0 0.2540260535
C  C276  1  0.00840000  0.22780000  0.21260000  1.0 0.2540260535
C  C277  1  0.44880000  0.77220000  0.99160000  1.0 0.2540260535
C  C278  1  0.77220000  0.44880000  0.78740000  1.0 0.2540260535
C  C279  1  0.99160000  0.78740000  0.44880000  1.0 0.2540260535
C  C280  1  0.78740000  0.99160000  0.77220000  1.0 0.2540260535
C  C281  1  0.99160000  0.44880000  0.77220000  1.0 0.2540260535
C  C282  1  0.78740000  0.77220000  0.44880000  1.0 0.2540260535
C  C283  1  0.44880000  0.99160000  0.78740000  1.0 0.2540260535
C  C284  1  0.77220000  0.78740000  0.99160000  1.0 0.2540260535
C  C285  1  0.77220000  0.99160000  0.44880000  1.0 0.2540260535
C  C286  1  0.44880000  0.78740000  0.77220000  1.0 0.2540260535
C  C287  1  0.78740000  0.44880000  0.99160000  1.0 0.2540260535
C  C288  1  0.99160000  0.77220000  0.78740000  1.0 0.2540260535
C  C289  1  0.53790000  0.21630000  0.99190000  1.0 -0.2300001545
C  C290  1  0.21630000  0.53790000  0.25390000  1.0 -0.2300001545
C  C291  1  0.99190000  0.25390000  0.53790000  1.0 -0.2300001545
C  C292  1  0.25390000  0.99190000  0.21630000  1.0 -0.2300001545
C  C293  1  0.99190000  0.53790000  0.21630000  1.0 -0.2300001545
C  C294  1  0.25390000  0.21630000  0.53790000  1.0 -0.2300001545
C  C295  1  0.53790000  0.99190000  0.25390000  1.0 -0.2300001545
C  C296  1  0.21630000  0.25390000  0.99190000  1.0 -0.2300001545
C  C297  1  0.21630000  0.99190000  0.53790000  1.0 -0.2300001545
C  C298  1  0.53790000  0.25390000  0.21630000  1.0 -0.2300001545
C  C299  1  0.25390000  0.53790000  0.99190000  1.0 -0.2300001545
C  C300  1  0.99190000  0.21630000  0.25390000  1.0 -0.2300001545
C  C301  1  0.46210000  0.78370000  0.00810000  1.0 -0.2300001545
C  C302  1  0.78370000  0.46210000  0.74610000  1.0 -0.2300001545
C  C303  1  0.00810000  0.74610000  0.46210000  1.0 -0.2300001545
C  C304  1  0.74610000  0.00810000  0.78370000  1.0 -0.2300001545
C  C305  1  0.00810000  0.46210000  0.78370000  1.0 -0.2300001545
C  C306  1  0.74610000  0.78370000  0.46210000  1.0 -0.2300001545
C  C307  1  0.46210000  0.00810000  0.74610000  1.0 -0.2300001545
C  C308  1  0.78370000  0.74610000  0.00810000  1.0 -0.2300001545
C  C309  1  0.78370000  0.00810000  0.46210000  1.0 -0.2300001545
C  C310  1  0.46210000  0.74610000  0.78370000  1.0 -0.2300001545
C  C311  1  0.74610000  0.46210000  0.00810000  1.0 -0.2300001545
C  C312  1  0.00810000  0.78370000  0.74610000  1.0 -0.2300001545
C  C313  1  0.53350000  0.23970000  0.95250000  1.0 -0.1462004234
C  C314  1  0.23970000  0.53350000  0.27430000  1.0 -0.1462004234
C  C315  1  0.95250000  0.27430000  0.53350000  1.0 -0.1462004234
C  C316  1  0.27430000  0.95250000  0.23970000  1.0 -0.1462004234
C  C317  1  0.95250000  0.53350000  0.23970000  1.0 -0.1462004234
C  C318  1  0.27430000  0.23970000  0.53350000  1.0 -0.1462004234
C  C319  1  0.53350000  0.95250000  0.27430000  1.0 -0.1462004234
C  C320  1  0.23970000  0.27430000  0.95250000  1.0 -0.1462004234
C  C321  1  0.23970000  0.95250000  0.53350000  1.0 -0.1462004234
C  C322  1  0.53350000  0.27430000  0.23970000  1.0 -0.1462004234
C  C323  1  0.27430000  0.53350000  0.95250000  1.0 -0.1462004234
C  C324  1  0.95250000  0.23970000  0.27430000  1.0 -0.1462004234
C  C325  1  0.46650000  0.76030000  0.04750000  1.0 -0.1462004234
C  C326  1  0.76030000  0.46650000  0.72570000  1.0 -0.1462004234
C  C327  1  0.04750000  0.72570000  0.46650000  1.0 -0.1462004234
C  C328  1  0.72570000  0.04750000  0.76030000  1.0 -0.1462004234
C  C329  1  0.04750000  0.46650000  0.76030000  1.0 -0.1462004234
C  C330  1  0.72570000  0.76030000  0.46650000  1.0 -0.1462004234
C  C331  1  0.46650000  0.04750000  0.72570000  1.0 -0.1462004234
C  C332  1  0.76030000  0.72570000  0.04750000  1.0 -0.1462004234
C  C333  1  0.76030000  0.04750000  0.46650000  1.0 -0.1462004234
C  C334  1  0.46650000  0.72570000  0.76030000  1.0 -0.1462004234
C  C335  1  0.72570000  0.46650000  0.04750000  1.0 -0.1462004234
C  C336  1  0.04750000  0.76030000  0.72570000  1.0 -0.1462004234
C  C337  1  0.54850000  0.17090000  0.07070000  1.0 -0.0887463276
C  C338  1  0.17090000  0.54850000  0.20990000  1.0 -0.0887463276
C  C339  1  0.07070000  0.20990000  0.54850000  1.0 -0.0887463276
C  C340  1  0.20990000  0.07070000  0.17090000  1.0 -0.0887463276
C  C341  1  0.07070000  0.54850000  0.17090000  1.0 -0.0887463276
C  C342  1  0.20990000  0.17090000  0.54850000  1.0 -0.0887463276
C  C343  1  0.54850000  0.07070000  0.20990000  1.0 -0.0887463276
C  C344  1  0.17090000  0.20990000  0.07070000  1.0 -0.0887463276
C  C345  1  0.17090000  0.07070000  0.54850000  1.0 -0.0887463276
C  C346  1  0.54850000  0.20990000  0.17090000  1.0 -0.0887463276
C  C347  1  0.20990000  0.54850000  0.07070000  1.0 -0.0887463276
C  C348  1  0.07070000  0.17090000  0.20990000  1.0 -0.0887463276
C  C349  1  0.45150000  0.82910000  0.92930000  1.0 -0.0887463276
C  C350  1  0.82910000  0.45150000  0.79010000  1.0 -0.0887463276
C  C351  1  0.92930000  0.79010000  0.45150000  1.0 -0.0887463276
C  C352  1  0.79010000  0.92930000  0.82910000  1.0 -0.0887463276
C  C353  1  0.92930000  0.45150000  0.82910000  1.0 -0.0887463276
C  C354  1  0.79010000  0.82910000  0.45150000  1.0 -0.0887463276
C  C355  1  0.45150000  0.92930000  0.79010000  1.0 -0.0887463276
C  C356  1  0.82910000  0.79010000  0.92930000  1.0 -0.0887463276
C  C357  1  0.82910000  0.92930000  0.45150000  1.0 -0.0887463276
C  C358  1  0.45150000  0.79010000  0.82910000  1.0 -0.0887463276
C  C359  1  0.79010000  0.45150000  0.92930000  1.0 -0.0887463276
C  C360  1  0.92930000  0.82910000  0.79010000  1.0 -0.0887463276
C  C361  1  0.54850000  0.16010000  0.11230000  1.0 0.0529101565
C  C362  1  0.16010000  0.54850000  0.17910000  1.0 0.0529101565
C  C363  1  0.11230000  0.17910000  0.54850000  1.0 0.0529101565
C  C364  1  0.17910000  0.11230000  0.16010000  1.0 0.0529101565
C  C365  1  0.11230000  0.54850000  0.16010000  1.0 0.0529101565
C  C366  1  0.17910000  0.16010000  0.54850000  1.0 0.0529101565
C  C367  1  0.54850000  0.11230000  0.17910000  1.0 0.0529101565
C  C368  1  0.16010000  0.17910000  0.11230000  1.0 0.0529101565
C  C369  1  0.16010000  0.11230000  0.54850000  1.0 0.0529101565
C  C370  1  0.54850000  0.17910000  0.16010000  1.0 0.0529101565
C  C371  1  0.17910000  0.54850000  0.11230000  1.0 0.0529101565
C  C372  1  0.11230000  0.16010000  0.17910000  1.0 0.0529101565
C  C373  1  0.45150000  0.83990000  0.88770000  1.0 0.0570174374
C  C374  1  0.83990000  0.45150000  0.82090000  1.0 0.0570174374
C  C375  1  0.88770000  0.82090000  0.45150000  1.0 0.0570174374
C  C376  1  0.82090000  0.88770000  0.83990000  1.0 0.0570174374
C  C377  1  0.88770000  0.45150000  0.83990000  1.0 0.0570174374
C  C378  1  0.82090000  0.83990000  0.45150000  1.0 0.0570174374
C  C379  1  0.45150000  0.88770000  0.82090000  1.0 0.0570174374
C  C380  1  0.83990000  0.82090000  0.88770000  1.0 0.0570174374
C  C381  1  0.83990000  0.88770000  0.45150000  1.0 0.0570174374
C  C382  1  0.45150000  0.82090000  0.83990000  1.0 0.0570174374
C  C383  1  0.82090000  0.45150000  0.88770000  1.0 0.0570174374
C  C384  1  0.88770000  0.83990000  0.82090000  1.0 0.0570174374
C  C385  1  0.54840000  0.12180000  0.14080000  1.0 -0.2020922704
C  C386  1  0.12180000  0.54840000  0.18900000  1.0 -0.2020922704
C  C387  1  0.14080000  0.18900000  0.54840000  1.0 -0.2020922704
C  C388  1  0.18900000  0.14080000  0.12180000  1.0 -0.2020922704
C  C389  1  0.14080000  0.54840000  0.12180000  1.0 -0.2020922704
C  C390  1  0.18900000  0.12180000  0.54840000  1.0 -0.2020922704
C  C391  1  0.54840000  0.14080000  0.18900000  1.0 -0.2020922704
C  C392  1  0.12180000  0.18900000  0.14080000  1.0 -0.2020922704
C  C393  1  0.12180000  0.14080000  0.54840000  1.0 -0.2020922704
C  C394  1  0.54840000  0.18900000  0.12180000  1.0 -0.2020922704
C  C395  1  0.18900000  0.54840000  0.14080000  1.0 -0.2020922704
C  C396  1  0.14080000  0.12180000  0.18900000  1.0 -0.2020922704
C  C397  1  0.45160000  0.87820000  0.85920000  1.0 -0.2020922704
C  C398  1  0.87820000  0.45160000  0.81100000  1.0 -0.2020922704
C  C399  1  0.85920000  0.81100000  0.45160000  1.0 -0.2020922704
C  C400  1  0.81100000  0.85920000  0.87820000  1.0 -0.2020922704
C  C401  1  0.85920000  0.45160000  0.87820000  1.0 -0.2020922704
C  C402  1  0.81100000  0.87820000  0.45160000  1.0 -0.2020922704
C  C403  1  0.45160000  0.85920000  0.81100000  1.0 -0.2020922704
C  C404  1  0.87820000  0.81100000  0.85920000  1.0 -0.2020922704
C  C405  1  0.87820000  0.85920000  0.45160000  1.0 -0.2020922704
C  C406  1  0.45160000  0.81100000  0.87820000  1.0 -0.2020922704
C  C407  1  0.81100000  0.45160000  0.85920000  1.0 -0.2020922704
C  C408  1  0.85920000  0.87820000  0.81100000  1.0 -0.2020922704
N  N1  1  0.52311000  0.29109000  0.88071000  1.0 -0.1043533233
N  N2  1  0.29109000  0.52311000  0.30509000  1.0 -0.1043533233
N  N3  1  0.88071000  0.30509000  0.52311000  1.0 -0.1043533233
N  N4  1  0.30509000  0.88071000  0.29109000  1.0 -0.1043533233
N  N5  1  0.88071000  0.52311000  0.29109000  1.0 -0.1043533233
N  N6  1  0.30509000  0.29109000  0.52311000  1.0 -0.1105884259
N  N7  1  0.52311000  0.88071000  0.30509000  1.0 -0.1105884259
N  N8  1  0.29109000  0.30509000  0.88071000  1.0 -0.1043533233
N  N9  1  0.29109000  0.88071000  0.52311000  1.0 -0.1043533233
N  N10  1  0.52311000  0.30509000  0.29109000  1.0 -0.1043533233
N  N11  1  0.30509000  0.52311000  0.88071000  1.0 -0.1043533233
N  N12  1  0.88071000  0.29109000  0.30509000  1.0 -0.1043533233
N  N13  1  0.47689000  0.70891000  0.11929000  1.0 -0.1105884259
N  N14  1  0.70891000  0.47689000  0.69491000  1.0 -0.1043533233
N  N15  1  0.11929000  0.69491000  0.47689000  1.0 -0.1043533233
N  N16  1  0.69491000  0.11929000  0.70891000  1.0 -0.1043533233
N  N17  1  0.11929000  0.47689000  0.70891000  1.0 -0.1043533233
N  N18  1  0.69491000  0.70891000  0.47689000  1.0 -0.1043533233
N  N19  1  0.47689000  0.11929000  0.69491000  1.0 -0.1043533233
N  N20  1  0.70891000  0.69491000  0.11929000  1.0 -0.1105884259
N  N21  1  0.70891000  0.11929000  0.47689000  1.0 -0.1043533233
N  N22  1  0.47689000  0.69491000  0.70891000  1.0 -0.1043533233
N  N23  1  0.69491000  0.47689000  0.11929000  1.0 -0.1105884259
N  N24  1  0.11929000  0.70891000  0.69491000  1.0 -0.1043533233
N  N25  1  0.54010000  0.29950000  0.89210000  1.0 -0.1181150734
N  N26  1  0.29950000  0.54010000  0.26830000  1.0 -0.1181150734
N  N27  1  0.89210000  0.26830000  0.54010000  1.0 -0.1181150734
N  N28  1  0.26830000  0.89210000  0.29950000  1.0 -0.1181150734
N  N29  1  0.89210000  0.54010000  0.29950000  1.0 -0.1181150734
N  N30  1  0.26830000  0.29950000  0.54010000  1.0 -0.1181150734
N  N31  1  0.54010000  0.89210000  0.26830000  1.0 -0.1181150734
N  N32  1  0.29950000  0.26830000  0.89210000  1.0 -0.1181150734
N  N33  1  0.29950000  0.89210000  0.54010000  1.0 -0.1181150734
N  N34  1  0.54010000  0.26830000  0.29950000  1.0 -0.1181150734
N  N35  1  0.26830000  0.54010000  0.89210000  1.0 -0.1181150734
N  N36  1  0.89210000  0.29950000  0.26830000  1.0 -0.1181150734
N  N37  1  0.45990000  0.70050000  0.10790000  1.0 -0.1181150734
N  N38  1  0.70050000  0.45990000  0.73170000  1.0 -0.1181150734
N  N39  1  0.10790000  0.73170000  0.45990000  1.0 -0.1181150734
N  N40  1  0.73170000  0.10790000  0.70050000  1.0 -0.1181150734
N  N41  1  0.10790000  0.45990000  0.70050000  1.0 -0.1181150734
N  N42  1  0.73170000  0.70050000  0.45990000  1.0 -0.1181150734
N  N43  1  0.45990000  0.10790000  0.73170000  1.0 -0.1181150734
N  N44  1  0.70050000  0.73170000  0.10790000  1.0 -0.1181150734
N  N45  1  0.70050000  0.10790000  0.45990000  1.0 -0.1181150734
N  N46  1  0.45990000  0.73170000  0.70050000  1.0 -0.1181150734
N  N47  1  0.73170000  0.45990000  0.10790000  1.0 -0.1181150734
N  N48  1  0.10790000  0.70050000  0.73170000  1.0 -0.1181150734
O  O1  1  0.51543000  0.26217000  0.78023000  1.0 -0.531828002
O  O2  1  0.26217000  0.51543000  0.44217000  1.0 -0.531828002
O  O3  1  0.78023000  0.44217000  0.51543000  1.0 -0.531828002
O  O4  1  0.44217000  0.78023000  0.26217000  1.0 -0.531828002
O  O5  1  0.78023000  0.51543000  0.26217000  1.0 -0.531828002
O  O6  1  0.44217000  0.26217000  0.51543000  1.0 -0.531828002
O  O7  1  0.51543000  0.78023000  0.44217000  1.0 -0.531828002
O  O8  1  0.26217000  0.44217000  0.78023000  1.0 -0.531828002
O  O9  1  0.26217000  0.78023000  0.51543000  1.0 -0.531828002
O  O10  1  0.51543000  0.44217000  0.26217000  1.0 -0.531828002
O  O11  1  0.44217000  0.51543000  0.78023000  1.0 -0.531828002
O  O12  1  0.78023000  0.26217000  0.44217000  1.0 -0.531828002
O  O13  1  0.48457000  0.73783000  0.21977000  1.0 -0.531828002
O  O14  1  0.73783000  0.48457000  0.55783000  1.0 -0.531828002
O  O15  1  0.21977000  0.55783000  0.48457000  1.0 -0.531828002
O  O16  1  0.55783000  0.21977000  0.73783000  1.0 -0.531828002
O  O17  1  0.21977000  0.48457000  0.73783000  1.0 -0.531828002
O  O18  1  0.55783000  0.73783000  0.48457000  1.0 -0.531828002
O  O19  1  0.48457000  0.21977000  0.55783000  1.0 -0.531828002
O  O20  1  0.73783000  0.55783000  0.21977000  1.0 -0.531828002
O  O21  1  0.73783000  0.21977000  0.48457000  1.0 -0.531828002
O  O22  1  0.48457000  0.55783000  0.73783000  1.0 -0.531828002
O  O23  1  0.55783000  0.48457000  0.21977000  1.0 -0.531828002
O  O24  1  0.21977000  0.73783000  0.55783000  1.0 -0.531828002
O  O25  1  0.51180000  0.31700000  0.72580000  1.0 -0.531828002
O  O26  1  0.31700000  0.51180000  0.44540000  1.0 -0.531828002
O  O27  1  0.72580000  0.44540000  0.51180000  1.0 -0.531828002
O  O28  1  0.44540000  0.72580000  0.31700000  1.0 -0.531828002
O  O29  1  0.72580000  0.51180000  0.31700000  1.0 -0.531828002
O  O30  1  0.44540000  0.31700000  0.51180000  1.0 -0.531828002
O  O31  1  0.51180000  0.72580000  0.44540000  1.0 -0.531828002
O  O32  1  0.31700000  0.44540000  0.72580000  1.0 -0.531828002
O  O33  1  0.31700000  0.72580000  0.51180000  1.0 -0.531828002
O  O34  1  0.51180000  0.44540000  0.31700000  1.0 -0.531828002
O  O35  1  0.44540000  0.51180000  0.72580000  1.0 -0.531828002
O  O36  1  0.72580000  0.31700000  0.44540000  1.0 -0.531828002
O  O37  1  0.48820000  0.68300000  0.27420000  1.0 -0.531828002
O  O38  1  0.68300000  0.48820000  0.55460000  1.0 -0.531828002
O  O39  1  0.27420000  0.55460000  0.48820000  1.0 -0.531828002
O  O40  1  0.55460000  0.27420000  0.68300000  1.0 -0.531828002
O  O41  1  0.27420000  0.48820000  0.68300000  1.0 -0.531828002
O  O42  1  0.55460000  0.68300000  0.48820000  1.0 -0.531828002
O  O43  1  0.48820000  0.27420000  0.55460000  1.0 -0.531828002
O  O44  1  0.68300000  0.55460000  0.27420000  1.0 -0.531828002
O  O45  1  0.68300000  0.27420000  0.48820000  1.0 -0.531828002
O  O46  1  0.48820000  0.55460000  0.68300000  1.0 -0.531828002
O  O47  1  0.55460000  0.48820000  0.27420000  1.0 -0.531828002
O  O48  1  0.27420000  0.68300000  0.55460000  1.0 -0.531828002
O  O49  1  0.50613000  0.44061000  0.78559000  1.0 -0.5498684894
O  O50  1  0.44061000  0.50613000  0.26767000  1.0 -0.5498684894
O  O51  1  0.78559000  0.26767000  0.50613000  1.0 -0.5498684894
O  O52  1  0.26767000  0.78559000  0.44061000  1.0 -0.5498684894
O  O53  1  0.78559000  0.50613000  0.44061000  1.0 -0.5498684894
O  O54  1  0.26767000  0.44061000  0.50613000  1.0 -0.5498684894
O  O55  1  0.50613000  0.78559000  0.26767000  1.0 -0.5498684894
O  O56  1  0.44061000  0.26767000  0.78559000  1.0 -0.5498684894
O  O57  1  0.44061000  0.78559000  0.50613000  1.0 -0.5498684894
O  O58  1  0.50613000  0.26767000  0.44061000  1.0 -0.5498684894
O  O59  1  0.26767000  0.50613000  0.78559000  1.0 -0.5498684894
O  O60  1  0.78559000  0.44061000  0.26767000  1.0 -0.5498684894
O  O61  1  0.49387000  0.55939000  0.21441000  1.0 -0.5498684894
O  O62  1  0.55939000  0.49387000  0.73233000  1.0 -0.5498684894
O  O63  1  0.21441000  0.73233000  0.49387000  1.0 -0.5498684894
O  O64  1  0.73233000  0.21441000  0.55939000  1.0 -0.5498684894
O  O65  1  0.21441000  0.49387000  0.55939000  1.0 -0.5498684894
O  O66  1  0.73233000  0.55939000  0.49387000  1.0 -0.5498684894
O  O67  1  0.49387000  0.21441000  0.73233000  1.0 -0.5498684894
O  O68  1  0.55939000  0.73233000  0.21441000  1.0 -0.5498684894
O  O69  1  0.55939000  0.21441000  0.49387000  1.0 -0.5498684894
O  O70  1  0.49387000  0.73233000  0.55939000  1.0 -0.5498684894
O  O71  1  0.73233000  0.49387000  0.21441000  1.0 -0.5498684894
O  O72  1  0.21441000  0.55939000  0.73233000  1.0 -0.5498684894
O  O73  1  0.50975000  0.43939000  0.73035000  1.0 -0.531828002
O  O74  1  0.43939000  0.50975000  0.32051000  1.0 -0.531828002
O  O75  1  0.73035000  0.32051000  0.50975000  1.0 -0.531828002
O  O76  1  0.32051000  0.73035000  0.43939000  1.0 -0.531828002
O  O77  1  0.73035000  0.50975000  0.43939000  1.0 -0.531828002
O  O78  1  0.32051000  0.43939000  0.50975000  1.0 -0.531828002
O  O79  1  0.50975000  0.73035000  0.32051000  1.0 -0.531828002
O  O80  1  0.43939000  0.32051000  0.73035000  1.0 -0.531828002
O  O81  1  0.43939000  0.73035000  0.50975000  1.0 -0.531828002
O  O82  1  0.50975000  0.32051000  0.43939000  1.0 -0.531828002
O  O83  1  0.32051000  0.50975000  0.73035000  1.0 -0.531828002
O  O84  1  0.73035000  0.43939000  0.32051000  1.0 -0.531828002
O  O85  1  0.49025000  0.56061000  0.26965000  1.0 -0.531828002
O  O86  1  0.56061000  0.49025000  0.67949000  1.0 -0.531828002
O  O87  1  0.26965000  0.67949000  0.49025000  1.0 -0.531828002
O  O88  1  0.67949000  0.26965000  0.56061000  1.0 -0.531828002
O  O89  1  0.26965000  0.49025000  0.56061000  1.0 -0.531828002
O  O90  1  0.67949000  0.56061000  0.49025000  1.0 -0.531828002
O  O91  1  0.49025000  0.26965000  0.67949000  1.0 -0.531828002
O  O92  1  0.56061000  0.67949000  0.26965000  1.0 -0.531828002
O  O93  1  0.56061000  0.26965000  0.49025000  1.0 -0.531828002
O  O94  1  0.49025000  0.67949000  0.56061000  1.0 -0.531828002
O  O95  1  0.67949000  0.49025000  0.26965000  1.0 -0.531828002
O  O96  1  0.26965000  0.56061000  0.67949000  1.0 -0.531828002
O  O97  1  0.55630000  0.20790000  0.04550000  1.0 -0.2069946503
O  O98  1  0.20790000  0.55630000  0.19030000  1.0 -0.2069946503
O  O99  1  0.04550000  0.19030000  0.55630000  1.0 -0.2069946503
O  O100  1  0.19030000  0.04550000  0.20790000  1.0 -0.2069946503
O  O101  1  0.04550000  0.55630000  0.20790000  1.0 -0.2069946503
O  O102  1  0.19030000  0.20790000  0.55630000  1.0 -0.2069946503
O  O103  1  0.55630000  0.04550000  0.19030000  1.0 -0.2069946503
O  O104  1  0.20790000  0.19030000  0.04550000  1.0 -0.2069946503
O  O105  1  0.20790000  0.04550000  0.55630000  1.0 -0.2069946503
O  O106  1  0.55630000  0.19030000  0.20790000  1.0 -0.2069946503
O  O107  1  0.19030000  0.55630000  0.04550000  1.0 -0.2069946503
O  O108  1  0.04550000  0.20790000  0.19030000  1.0 -0.2069946503
O  O109  1  0.44370000  0.79210000  0.95450000  1.0 -0.2069946503
O  O110  1  0.79210000  0.44370000  0.80970000  1.0 -0.2069946503
O  O111  1  0.95450000  0.80970000  0.44370000  1.0 -0.2069946503
O  O112  1  0.80970000  0.95450000  0.79210000  1.0 -0.2069946503
O  O113  1  0.95450000  0.44370000  0.79210000  1.0 -0.2069946503
O  O114  1  0.80970000  0.79210000  0.44370000  1.0 -0.2069946503
O  O115  1  0.44370000  0.95450000  0.80970000  1.0 -0.2069946503
O  O116  1  0.79210000  0.80970000  0.95450000  1.0 -0.2069946503
O  O117  1  0.79210000  0.95450000  0.44370000  1.0 -0.2069946503
O  O118  1  0.44370000  0.80970000  0.79210000  1.0 -0.2069946503
O  O119  1  0.80970000  0.44370000  0.95450000  1.0 -0.2069946503
O  O120  1  0.95450000  0.79210000  0.80970000  1.0 -0.2069946503
