# DDEC6 charges by PACMAN v1.1 (https://github.com/mtap-research/PACMAN-charge/)
data_ADOVOH_ASR_pacman
_symmetry_space_group_name_H-M   'P 1'
_cell_length_a   20.87190000
_cell_length_b   20.87190000
_cell_length_c   20.87190000
_cell_angle_alpha   60.99430000
_cell_angle_beta   60.99430000
_cell_angle_gamma   60.99430000
_symmetry_Int_Tables_number   1
_chemical_formula_structural   CaH26C42(NO11)2
_chemical_formula_sum   'Ca6 H156 C252 N12 O132'
_cell_volume   6573.40925319
_cell_formula_units_Z   6
loop_
 _symmetry_equiv_pos_site_id
 _symmetry_equiv_pos_as_xyz
  1  'x, y, z'
loop_
 _atom_site_type_symbol
 _atom_site_label
 _atom_site_symmetry_multiplicity
 _atom_site_fract_x
 _atom_site_fract_y
 _atom_site_fract_z
 _atom_site_occupancy
 _atom_site_charge
Ca  Ca1  1  0.64111000  0.52089000  0.24170000  1.0 1.2634804014
Ca  Ca2  1  0.52089000  0.24170000  0.64111000  1.0 1.2634804014
Ca  Ca3  1  0.24170000  0.64111000  0.52089000  1.0 1.2634804014
Ca  Ca4  1  0.35889000  0.75830000  0.47911000  1.0 1.2634804014
Ca  Ca5  1  0.47911000  0.35889000  0.75830000  1.0 1.2634804014
Ca  Ca6  1  0.75830000  0.47911000  0.35889000  1.0 1.2634804014
H  H1  1  0.77860000  0.71030000  0.14340000  1.0 0.1299606517
H  H2  1  0.70030000  0.74830000  0.20260000  1.0 0.1401623053
H  H3  1  0.45780000  0.75780000  0.16950000  1.0 0.1299606517
H  H4  1  0.45480000  0.69630000  0.14700000  1.0 0.1080800606
H  H5  1  0.30440000  0.01620000  0.77020000  1.0 0.0886312271
H  H6  1  0.27730000  0.01530000  0.85670000  1.0 0.1299606517
H  H7  1  0.34260000  0.16750000  0.73220000  1.0 0.2920264168
H  H8  1  0.32080000  0.73500000  0.86640000  1.0 0.1206525229
H  H9  1  0.27090000  0.80400000  0.81190000  1.0 0.1080800606
H  H10  1  0.32950000  0.65940000  0.75390000  1.0 0.3491510315
H  H11  1  0.59220000  0.41460000  0.19020000  1.0 0.0587769561
H  H12  1  0.50580000  0.61150000  0.08480000  1.0 0.0714976161
H  H13  1  0.51660000  0.58190000  0.01210000  1.0 0.0825227918
H  H14  1  0.43030000  0.58760000  0.09330000  1.0 0.1000719721
H  H15  1  0.45700000  0.43910000  0.13230000  1.0 0.1080800606
H  H16  1  0.54770000  0.37620000  0.14620000  1.0 0.0825227918
H  H17  1  0.54330000  0.43350000  0.05130000  1.0 0.0355810511
H  H18  1  0.35610000  0.06560000  0.64570000  1.0 0.1580065179
H  H19  1  0.31690000  0.03040000  0.73750000  1.0 0.0825227918
H  H20  1  0.53620000  0.42730000  0.24820000  1.0 0.0587769561
H  H21  1  0.53480000  0.59120000  0.07400000  1.0 0.0886312271
H  H22  1  0.54580000  0.53530000  0.02440000  1.0 0.1000719721
H  H23  1  0.45170000  0.58750000  0.07380000  1.0 0.1080800606
H  H24  1  0.42110000  0.45710000  0.16280000  1.0 0.0886312271
H  H25  1  0.48600000  0.38460000  0.21450000  1.0 0.0714976161
H  H26  1  0.51520000  0.40510000  0.11350000  1.0 0.1000719721
H  H27  1  0.71030000  0.14340000  0.77860000  1.0 0.1299606517
H  H28  1  0.74830000  0.20260000  0.70030000  1.0 0.1401623053
H  H29  1  0.75780000  0.16950000  0.45780000  1.0 0.1299606517
H  H30  1  0.69630000  0.14700000  0.45480000  1.0 0.1080800606
H  H31  1  0.01620000  0.77020000  0.30440000  1.0 0.0886312271
H  H32  1  0.01530000  0.85670000  0.27730000  1.0 0.1299606517
H  H33  1  0.16750000  0.73220000  0.34260000  1.0 0.2920264168
H  H34  1  0.73500000  0.86640000  0.32080000  1.0 0.1206525229
H  H35  1  0.80400000  0.81190000  0.27090000  1.0 0.1080800606
H  H36  1  0.65940000  0.75390000  0.32950000  1.0 0.3491510315
H  H37  1  0.41460000  0.19020000  0.59220000  1.0 0.0587769561
H  H38  1  0.61150000  0.08480000  0.50580000  1.0 0.0714976161
H  H39  1  0.58190000  0.01210000  0.51660000  1.0 0.0825227918
H  H40  1  0.58760000  0.09330000  0.43030000  1.0 0.1000719721
H  H41  1  0.43910000  0.13230000  0.45700000  1.0 0.1080800606
H  H42  1  0.37620000  0.14620000  0.54770000  1.0 0.0825227918
H  H43  1  0.43350000  0.05130000  0.54330000  1.0 0.0355810511
H  H44  1  0.06560000  0.64570000  0.35610000  1.0 0.1580065179
H  H45  1  0.03040000  0.73750000  0.31690000  1.0 0.0825227918
H  H46  1  0.42730000  0.24820000  0.53620000  1.0 0.0587769561
H  H47  1  0.59120000  0.07400000  0.53480000  1.0 0.0886312271
H  H48  1  0.53530000  0.02440000  0.54580000  1.0 0.1000719721
H  H49  1  0.58750000  0.07380000  0.45170000  1.0 0.1080800606
H  H50  1  0.45710000  0.16280000  0.42110000  1.0 0.0886312271
H  H51  1  0.38460000  0.21450000  0.48600000  1.0 0.0714976161
H  H52  1  0.40510000  0.11350000  0.51520000  1.0 0.1000719721
H  H53  1  0.14340000  0.77860000  0.71030000  1.0 0.1299606517
H  H54  1  0.20260000  0.70030000  0.74830000  1.0 0.1401623053
H  H55  1  0.16950000  0.45780000  0.75780000  1.0 0.1299606517
H  H56  1  0.14700000  0.45480000  0.69630000  1.0 0.1080800606
H  H57  1  0.77020000  0.30440000  0.01620000  1.0 0.0886312271
H  H58  1  0.85670000  0.27730000  0.01530000  1.0 0.1299606517
H  H59  1  0.73220000  0.34260000  0.16750000  1.0 0.2920264168
H  H60  1  0.86640000  0.32080000  0.73500000  1.0 0.1206525229
H  H61  1  0.81190000  0.27090000  0.80400000  1.0 0.1080800606
H  H62  1  0.75390000  0.32950000  0.65940000  1.0 0.3491510315
H  H63  1  0.19020000  0.59220000  0.41460000  1.0 0.0587769561
H  H64  1  0.08480000  0.50580000  0.61150000  1.0 0.0714976161
H  H65  1  0.01210000  0.51660000  0.58190000  1.0 0.0825227918
H  H66  1  0.09330000  0.43030000  0.58760000  1.0 0.1000719721
H  H67  1  0.13230000  0.45700000  0.43910000  1.0 0.1080800606
H  H68  1  0.14620000  0.54770000  0.37620000  1.0 0.0825227918
H  H69  1  0.05130000  0.54330000  0.43350000  1.0 0.0355810511
H  H70  1  0.64570000  0.35610000  0.06560000  1.0 0.1580065179
H  H71  1  0.73750000  0.31690000  0.03040000  1.0 0.0825227918
H  H72  1  0.24820000  0.53620000  0.42730000  1.0 0.0587769561
H  H73  1  0.07400000  0.53480000  0.59120000  1.0 0.0886312271
H  H74  1  0.02440000  0.54580000  0.53530000  1.0 0.1000719721
H  H75  1  0.07380000  0.45170000  0.58750000  1.0 0.1080800606
H  H76  1  0.16280000  0.42110000  0.45710000  1.0 0.0886312271
H  H77  1  0.21450000  0.48600000  0.38460000  1.0 0.0714976161
H  H78  1  0.11350000  0.51520000  0.40510000  1.0 0.1000719721
H  H79  1  0.22140000  0.85660000  0.28970000  1.0 0.1299606517
H  H80  1  0.29970000  0.79740000  0.25170000  1.0 0.1401623053
H  H81  1  0.54220000  0.83050000  0.24220000  1.0 0.1299606517
H  H82  1  0.54520000  0.85300000  0.30370000  1.0 0.1080800606
H  H83  1  0.69560000  0.22980000  0.98380000  1.0 0.0886312271
H  H84  1  0.72270000  0.14330000  0.98470000  1.0 0.1299606517
H  H85  1  0.65740000  0.26780000  0.83250000  1.0 0.2920264168
H  H86  1  0.67920000  0.13360000  0.26500000  1.0 0.1206525229
H  H87  1  0.72910000  0.18810000  0.19600000  1.0 0.1080800606
H  H88  1  0.67050000  0.24610000  0.34060000  1.0 0.3491510315
H  H89  1  0.40780000  0.80980000  0.58540000  1.0 0.0587769561
H  H90  1  0.49420000  0.91520000  0.38850000  1.0 0.0714976161
H  H91  1  0.48340000  0.98790000  0.41810000  1.0 0.0825227918
H  H92  1  0.56970000  0.90670000  0.41240000  1.0 0.1000719721
H  H93  1  0.54300000  0.86770000  0.56090000  1.0 0.1080800606
H  H94  1  0.45230000  0.85380000  0.62380000  1.0 0.0825227918
H  H95  1  0.45670000  0.94870000  0.56650000  1.0 0.0355810511
H  H96  1  0.64390000  0.35430000  0.93440000  1.0 0.1580065179
H  H97  1  0.68310000  0.26250000  0.96960000  1.0 0.0825227918
H  H98  1  0.46380000  0.75180000  0.57270000  1.0 0.0587769561
H  H99  1  0.46520000  0.92600000  0.40880000  1.0 0.0886312271
H  H100  1  0.45420000  0.97560000  0.46470000  1.0 0.1000719721
H  H101  1  0.54830000  0.92620000  0.41250000  1.0 0.1080800606
H  H102  1  0.57890000  0.83720000  0.54290000  1.0 0.0886312271
H  H103  1  0.51400000  0.78550000  0.61540000  1.0 0.0714976161
H  H104  1  0.48480000  0.88650000  0.59490000  1.0 0.1000719721
H  H105  1  0.28970000  0.22140000  0.85660000  1.0 0.1299606517
H  H106  1  0.25170000  0.29970000  0.79740000  1.0 0.1401623053
H  H107  1  0.24220000  0.54220000  0.83050000  1.0 0.1299606517
H  H108  1  0.30370000  0.54520000  0.85300000  1.0 0.1080800606
H  H109  1  0.98380000  0.69560000  0.22980000  1.0 0.0886312271
H  H110  1  0.98470000  0.72270000  0.14330000  1.0 0.1299606517
H  H111  1  0.83250000  0.65740000  0.26780000  1.0 0.2920264168
H  H112  1  0.26500000  0.67920000  0.13360000  1.0 0.1206525229
H  H113  1  0.19600000  0.72910000  0.18810000  1.0 0.1080800606
H  H114  1  0.34060000  0.67050000  0.24610000  1.0 0.3491510315
H  H115  1  0.58540000  0.40780000  0.80980000  1.0 0.0587769561
H  H116  1  0.38850000  0.49420000  0.91520000  1.0 0.0714976161
H  H117  1  0.41810000  0.48340000  0.98790000  1.0 0.0825227918
H  H118  1  0.41240000  0.56970000  0.90670000  1.0 0.1000719721
H  H119  1  0.56090000  0.54300000  0.86770000  1.0 0.1080800606
H  H120  1  0.62380000  0.45230000  0.85380000  1.0 0.0825227918
H  H121  1  0.56650000  0.45670000  0.94870000  1.0 0.0355810511
H  H122  1  0.93440000  0.64390000  0.35430000  1.0 0.1580065179
H  H123  1  0.96960000  0.68310000  0.26250000  1.0 0.0825227918
H  H124  1  0.57270000  0.46380000  0.75180000  1.0 0.0587769561
H  H125  1  0.40880000  0.46520000  0.92600000  1.0 0.0886312271
H  H126  1  0.46470000  0.45420000  0.97560000  1.0 0.1000719721
H  H127  1  0.41250000  0.54830000  0.92620000  1.0 0.1080800606
H  H128  1  0.54290000  0.57890000  0.83720000  1.0 0.0886312271
H  H129  1  0.61540000  0.51400000  0.78550000  1.0 0.0714976161
H  H130  1  0.59490000  0.48480000  0.88650000  1.0 0.1000719721
H  H131  1  0.85660000  0.28970000  0.22140000  1.0 0.1299606517
H  H132  1  0.79740000  0.25170000  0.29970000  1.0 0.1401623053
H  H133  1  0.83050000  0.24220000  0.54220000  1.0 0.1299606517
H  H134  1  0.85300000  0.30370000  0.54520000  1.0 0.1080800606
H  H135  1  0.22980000  0.98380000  0.69560000  1.0 0.0886312271
H  H136  1  0.14330000  0.98470000  0.72270000  1.0 0.1299606517
H  H137  1  0.26780000  0.83250000  0.65740000  1.0 0.2920264168
H  H138  1  0.13360000  0.26500000  0.67920000  1.0 0.1206525229
H  H139  1  0.18810000  0.19600000  0.72910000  1.0 0.1080800606
H  H140  1  0.24610000  0.34060000  0.67050000  1.0 0.3491510315
H  H141  1  0.80980000  0.58540000  0.40780000  1.0 0.0587769561
H  H142  1  0.91520000  0.38850000  0.49420000  1.0 0.0714976161
H  H143  1  0.98790000  0.41810000  0.48340000  1.0 0.0825227918
H  H144  1  0.90670000  0.41240000  0.56970000  1.0 0.1000719721
H  H145  1  0.86770000  0.56090000  0.54300000  1.0 0.1080800606
H  H146  1  0.85380000  0.62380000  0.45230000  1.0 0.0825227918
H  H147  1  0.94870000  0.56650000  0.45670000  1.0 0.0355810511
H  H148  1  0.35430000  0.93440000  0.64390000  1.0 0.1580065179
H  H149  1  0.26250000  0.96960000  0.68310000  1.0 0.0825227918
H  H150  1  0.75180000  0.57270000  0.46380000  1.0 0.0587769561
H  H151  1  0.92600000  0.40880000  0.46520000  1.0 0.0886312271
H  H152  1  0.97560000  0.46470000  0.45420000  1.0 0.1000719721
H  H153  1  0.92620000  0.41250000  0.54830000  1.0 0.1080800606
H  H154  1  0.83720000  0.54290000  0.57890000  1.0 0.0886312271
H  H155  1  0.78550000  0.61540000  0.51400000  1.0 0.0714976161
H  H156  1  0.88650000  0.59490000  0.48480000  1.0 0.1000719721
C  C1  1  0.55522000  0.85782000  0.82962000  1.0 0.0092731793
C  C2  1  0.58026000  0.81546000  0.89566000  1.0 0.0018811512
C  C3  1  0.63148000  0.83488000  0.90188000  1.0 -0.0172993695
C  C4  1  0.68868000  0.77688000  0.94108000  1.0 0.0587769561
C  C5  1  0.76143000  0.79733000  0.89063000  1.0 -0.0172993695
C  C6  1  0.83347000  0.74257000  0.87137000  1.0 0.0092731793
C  C7  1  0.84087000  0.66097000  0.89547000  1.0 0.0173102683
C  C8  1  0.77684000  0.63594000  0.93764000  1.0 -0.010666159
C  C9  1  0.77007000  0.58467000  0.91627000  1.0 -0.010666159
C  C10  1  0.68897000  0.60787000  0.92407000  1.0 -0.0798825585
C  C11  1  0.66905000  0.60155000  0.87315000  1.0 -0.1232846428
C  C12  1  0.60970000  0.66260000  0.84310000  1.0 -0.0396533645
C  C13  1  0.63286000  0.66976000  0.76226000  1.0 0.0092731793
C  C14  1  0.61348000  0.74258000  0.70678000  1.0 -0.0450843485
C  C15  1  0.56230000  0.81390000  0.72810000  1.0 0.0886312271
C  C16  1  0.53733000  0.80593000  0.81513000  1.0 0.0714976161
C  C17  1  0.56782000  0.72662000  0.86752000  1.0 -0.0172993695
C  C18  1  0.58839000  0.73399000  0.91899000  1.0 -0.010666159
C  C19  1  0.64607000  0.67427000  0.94947000  1.0 -0.0899919526
C  C20  1  0.69770000  0.68860000  0.96760000  1.0 0.0714976161
C  C21  1  0.67016000  0.72686000  0.02696000  1.0 -0.1910904472
C  C22  1  0.47809000  0.83219000  0.77809000  1.0 -0.1327590855
C  C23  1  0.72367000  0.70717000  0.06697000  1.0 0.5270405822
C  C24  1  0.72593000  0.70783000  0.17793000  1.0 -0.2007529723
C  C25  1  0.73250000  0.63100000  0.23880000  1.0 0.6278415931
C  C26  1  0.58397000  0.74897000  0.07367000  1.0 0.5270405822
C  C27  1  0.48170000  0.70350000  0.16990000  1.0 -0.2294423766
C  C28  1  0.47253000  0.64973000  0.25123000  1.0 0.6278415931
C  C29  1  0.42486000  0.91536000  0.76456000  1.0 0.5849802656
C  C30  1  0.32280000  0.00810000  0.81000000  1.0 0.0286239485
C  C31  1  0.36253000  0.06703000  0.77953000  1.0 0.2300138635
C  C32  1  0.43526000  0.77746000  0.80446000  1.0 0.5095159971
C  C33  1  0.32408000  0.76968000  0.81248000  1.0 -0.1910904472
C  C34  1  0.35682000  0.72232000  0.76242000  1.0 0.5023459358
C  C35  1  0.56899000  0.47759000  0.16119000  1.0 0.209913029
C  C36  1  0.49320000  0.57310000  0.07430000  1.0 -0.2007529723
C  C37  1  0.51857000  0.43257000  0.11137000  1.0 -0.1035978167
C  C38  1  0.36570000  0.03760000  0.69590000  1.0 0.0092731793
C  C39  1  0.39310000  0.08330000  0.70950000  1.0 0.2688969238
C  C40  1  0.53950000  0.48050000  0.19740000  1.0 0.209913029
C  C41  1  0.51090000  0.55420000  0.07550000  1.0 -0.1035978167
C  C42  1  0.48200000  0.43090000  0.15990000  1.0 -0.1232846428
C  C43  1  0.85782000  0.82962000  0.55522000  1.0 0.0092731793
C  C44  1  0.81546000  0.89566000  0.58026000  1.0 0.0018811512
C  C45  1  0.83488000  0.90188000  0.63148000  1.0 -0.0172993695
C  C46  1  0.77688000  0.94108000  0.68868000  1.0 0.0587769561
C  C47  1  0.79733000  0.89063000  0.76143000  1.0 -0.0172993695
C  C48  1  0.74257000  0.87137000  0.83347000  1.0 0.0092731793
C  C49  1  0.66097000  0.89547000  0.84087000  1.0 0.0173102683
C  C50  1  0.63594000  0.93764000  0.77684000  1.0 -0.010666159
C  C51  1  0.58467000  0.91627000  0.77007000  1.0 -0.010666159
C  C52  1  0.60787000  0.92407000  0.68897000  1.0 -0.0798825585
C  C53  1  0.60155000  0.87315000  0.66905000  1.0 -0.1232846428
C  C54  1  0.66260000  0.84310000  0.60970000  1.0 -0.0396533645
C  C55  1  0.66976000  0.76226000  0.63286000  1.0 0.0092731793
C  C56  1  0.74258000  0.70678000  0.61348000  1.0 -0.0450843485
C  C57  1  0.81390000  0.72810000  0.56230000  1.0 0.0886312271
C  C58  1  0.80593000  0.81513000  0.53733000  1.0 0.0714976161
C  C59  1  0.72662000  0.86752000  0.56782000  1.0 -0.0172993695
C  C60  1  0.73399000  0.91899000  0.58839000  1.0 -0.0172993695
C  C61  1  0.67427000  0.94947000  0.64607000  1.0 -0.0899919526
C  C62  1  0.68860000  0.96760000  0.69770000  1.0 0.0714976161
C  C63  1  0.72686000  0.02696000  0.67016000  1.0 -0.1910904472
C  C64  1  0.83219000  0.77809000  0.47809000  1.0 -0.1327590855
C  C65  1  0.70717000  0.06697000  0.72367000  1.0 0.5270405822
C  C66  1  0.70783000  0.17793000  0.72593000  1.0 -0.2007529723
C  C67  1  0.63100000  0.23880000  0.73250000  1.0 0.6278415931
C  C68  1  0.74897000  0.07367000  0.58397000  1.0 0.5270405822
C  C69  1  0.70350000  0.16990000  0.48170000  1.0 -0.2294423766
C  C70  1  0.64973000  0.25123000  0.47253000  1.0 0.6278415931
C  C71  1  0.91536000  0.76456000  0.42486000  1.0 0.5860389037
C  C72  1  0.00810000  0.81000000  0.32280000  1.0 0.0286239485
C  C73  1  0.06703000  0.77953000  0.36253000  1.0 0.2300138635
C  C74  1  0.77746000  0.80446000  0.43526000  1.0 0.5095159971
C  C75  1  0.76968000  0.81248000  0.32408000  1.0 -0.1910904472
C  C76  1  0.72232000  0.76242000  0.35682000  1.0 0.5023459358
C  C77  1  0.47759000  0.16119000  0.56899000  1.0 0.209913029
C  C78  1  0.57310000  0.07430000  0.49320000  1.0 -0.2007529723
C  C79  1  0.43257000  0.11137000  0.51857000  1.0 -0.1035978167
C  C80  1  0.03760000  0.69590000  0.36570000  1.0 0.0092731793
C  C81  1  0.08330000  0.70950000  0.39310000  1.0 0.2688969238
C  C82  1  0.48050000  0.19740000  0.53950000  1.0 0.209913029
C  C83  1  0.55420000  0.07550000  0.51090000  1.0 -0.1035978167
C  C84  1  0.43090000  0.15990000  0.48200000  1.0 -0.1232846428
C  C85  1  0.82962000  0.55522000  0.85782000  1.0 0.0092731793
C  C86  1  0.89566000  0.58026000  0.81546000  1.0 0.0018811512
C  C87  1  0.90188000  0.63148000  0.83488000  1.0 -0.0172993695
C  C88  1  0.94108000  0.68868000  0.77688000  1.0 0.0587769561
C  C89  1  0.89063000  0.76143000  0.79733000  1.0 -0.0172993695
C  C90  1  0.87137000  0.83347000  0.74257000  1.0 0.0092731793
C  C91  1  0.89547000  0.84087000  0.66097000  1.0 0.0173102683
C  C92  1  0.93764000  0.77684000  0.63594000  1.0 -0.010666159
C  C93  1  0.91627000  0.77007000  0.58467000  1.0 -0.010666159
C  C94  1  0.92407000  0.68897000  0.60787000  1.0 -0.0798825585
C  C95  1  0.87315000  0.66905000  0.60155000  1.0 -0.1232846428
C  C96  1  0.84310000  0.60970000  0.66260000  1.0 -0.0396533645
C  C97  1  0.76226000  0.63286000  0.66976000  1.0 0.0092731793
C  C98  1  0.70678000  0.61348000  0.74258000  1.0 -0.0450843485
C  C99  1  0.72810000  0.56230000  0.81390000  1.0 0.0886312271
C  C100  1  0.81513000  0.53733000  0.80593000  1.0 0.0714976161
C  C101  1  0.86752000  0.56782000  0.72662000  1.0 -0.0172993695
C  C102  1  0.91899000  0.58839000  0.73399000  1.0 -0.010666159
C  C103  1  0.94947000  0.64607000  0.67427000  1.0 -0.0899919526
C  C104  1  0.96760000  0.69770000  0.68860000  1.0 0.0714976161
C  C105  1  0.02696000  0.67016000  0.72686000  1.0 -0.1910904472
C  C106  1  0.77809000  0.47809000  0.83219000  1.0 -0.1327590855
C  C107  1  0.06697000  0.72367000  0.70717000  1.0 0.5270405822
C  C108  1  0.17793000  0.72593000  0.70783000  1.0 -0.2007529723
C  C109  1  0.23880000  0.73250000  0.63100000  1.0 0.6278415931
C  C110  1  0.07367000  0.58397000  0.74897000  1.0 0.5270405822
C  C111  1  0.16990000  0.48170000  0.70350000  1.0 -0.2294423766
C  C112  1  0.25123000  0.47253000  0.64973000  1.0 0.6278415931
C  C113  1  0.76456000  0.42486000  0.91536000  1.0 0.5860389037
C  C114  1  0.81000000  0.32280000  0.00810000  1.0 0.0286239485
C  C115  1  0.77953000  0.36253000  0.06703000  1.0 0.2300138635
C  C116  1  0.80446000  0.43526000  0.77746000  1.0 0.5095159971
C  C117  1  0.81248000  0.32408000  0.76968000  1.0 -0.1910904472
C  C118  1  0.76242000  0.35682000  0.72232000  1.0 0.5023459358
C  C119  1  0.16119000  0.56899000  0.47759000  1.0 0.209913029
C  C120  1  0.07430000  0.49320000  0.57310000  1.0 -0.2007529723
C  C121  1  0.11137000  0.51857000  0.43257000  1.0 -0.1035978167
C  C122  1  0.69590000  0.36570000  0.03760000  1.0 0.0092731793
C  C123  1  0.70950000  0.39310000  0.08330000  1.0 0.2688969238
C  C124  1  0.19740000  0.53950000  0.48050000  1.0 0.209913029
C  C125  1  0.07550000  0.51090000  0.55420000  1.0 -0.1035978167
C  C126  1  0.15990000  0.48200000  0.43090000  1.0 -0.1232846428
C  C127  1  0.44478000  0.17038000  0.14218000  1.0 0.0092731793
C  C128  1  0.41974000  0.10434000  0.18454000  1.0 0.0018811512
C  C129  1  0.36852000  0.09812000  0.16512000  1.0 -0.010666159
C  C130  1  0.31132000  0.05892000  0.22312000  1.0 0.0587769561
C  C131  1  0.23857000  0.10937000  0.20267000  1.0 -0.0172993695
C  C132  1  0.16653000  0.12863000  0.25743000  1.0 0.0092731793
C  C133  1  0.15913000  0.10453000  0.33903000  1.0 0.0173102683
C  C134  1  0.22316000  0.06236000  0.36406000  1.0 -0.010666159
C  C135  1  0.22993000  0.08373000  0.41533000  1.0 -0.010666159
C  C136  1  0.31103000  0.07593000  0.39213000  1.0 -0.0798825585
C  C137  1  0.33095000  0.12685000  0.39845000  1.0 -0.1232846428
C  C138  1  0.39030000  0.15690000  0.33740000  1.0 -0.0396533645
C  C139  1  0.36714000  0.23774000  0.33024000  1.0 0.0092731793
C  C140  1  0.38652000  0.29322000  0.25742000  1.0 -0.0450843485
C  C141  1  0.43770000  0.27190000  0.18610000  1.0 0.0886312271
C  C142  1  0.46267000  0.18487000  0.19407000  1.0 0.0714976161
C  C143  1  0.43218000  0.13248000  0.27338000  1.0 -0.0172993695
C  C144  1  0.41161000  0.08101000  0.26601000  1.0 -0.010666159
C  C145  1  0.35393000  0.05053000  0.32573000  1.0 -0.0899919526
C  C146  1  0.30230000  0.03240000  0.31140000  1.0 0.0714976161
C  C147  1  0.32984000  0.97304000  0.27314000  1.0 -0.1910904472
C  C148  1  0.52191000  0.22191000  0.16781000  1.0 -0.1327590855
C  C149  1  0.27633000  0.93303000  0.29283000  1.0 0.5270405822
C  C150  1  0.27407000  0.82207000  0.29217000  1.0 -0.2007529723
C  C151  1  0.26750000  0.76120000  0.36900000  1.0 0.6278415931
C  C152  1  0.41603000  0.92633000  0.25103000  1.0 0.5270405822
C  C153  1  0.51830000  0.83010000  0.29650000  1.0 -0.2294423766
C  C154  1  0.52747000  0.74877000  0.35027000  1.0 0.6278415931
C  C155  1  0.57514000  0.23544000  0.08464000  1.0 0.5849802656
C  C156  1  0.67720000  0.19000000  0.99190000  1.0 0.0286239485
C  C157  1  0.63747000  0.22047000  0.93297000  1.0 0.2300138635
C  C158  1  0.56474000  0.19554000  0.22254000  1.0 0.5095159971
C  C159  1  0.67592000  0.18752000  0.23032000  1.0 -0.1910904472
C  C160  1  0.64318000  0.23758000  0.27768000  1.0 0.5023459358
C  C161  1  0.43101000  0.83881000  0.52241000  1.0 0.209913029
C  C162  1  0.50680000  0.92570000  0.42690000  1.0 -0.2007529723
C  C163  1  0.48143000  0.88863000  0.56743000  1.0 -0.1035978167
C  C164  1  0.63430000  0.30410000  0.96240000  1.0 0.0092731793
C  C165  1  0.60690000  0.29050000  0.91670000  1.0 0.2688969238
C  C166  1  0.46050000  0.80260000  0.51950000  1.0 0.209913029
C  C167  1  0.48910000  0.92450000  0.44580000  1.0 -0.1035978167
C  C168  1  0.51800000  0.84010000  0.56910000  1.0 -0.1232846428
C  C169  1  0.14218000  0.44478000  0.17038000  1.0 0.0092731793
C  C170  1  0.18454000  0.41974000  0.10434000  1.0 0.0018811512
C  C171  1  0.16512000  0.36852000  0.09812000  1.0 -0.0172993695
C  C172  1  0.22312000  0.31132000  0.05892000  1.0 0.0587769561
C  C173  1  0.20267000  0.23857000  0.10937000  1.0 -0.0172993695
C  C174  1  0.25743000  0.16653000  0.12863000  1.0 0.0092731793
C  C175  1  0.33903000  0.15913000  0.10453000  1.0 0.0173102683
C  C176  1  0.36406000  0.22316000  0.06236000  1.0 -0.010666159
C  C177  1  0.41533000  0.22993000  0.08373000  1.0 -0.010666159
C  C178  1  0.39213000  0.31103000  0.07593000  1.0 -0.0798825585
C  C179  1  0.39845000  0.33095000  0.12685000  1.0 -0.1232846428
C  C180  1  0.33740000  0.39030000  0.15690000  1.0 -0.0396533645
C  C181  1  0.33024000  0.36714000  0.23774000  1.0 0.0092731793
C  C182  1  0.25742000  0.38652000  0.29322000  1.0 -0.0450843485
C  C183  1  0.18610000  0.43770000  0.27190000  1.0 0.0886312271
C  C184  1  0.19407000  0.46267000  0.18487000  1.0 0.0714976161
C  C185  1  0.27338000  0.43218000  0.13248000  1.0 -0.0172993695
C  C186  1  0.26601000  0.41161000  0.08101000  1.0 -0.010666159
C  C187  1  0.32573000  0.35393000  0.05053000  1.0 -0.0899919526
C  C188  1  0.31140000  0.30230000  0.03240000  1.0 0.0714976161
C  C189  1  0.27314000  0.32984000  0.97304000  1.0 -0.1910904472
C  C190  1  0.16781000  0.52191000  0.22191000  1.0 -0.1327590855
C  C191  1  0.29283000  0.27633000  0.93303000  1.0 0.5270405822
C  C192  1  0.29217000  0.27407000  0.82207000  1.0 -0.2007529723
C  C193  1  0.36900000  0.26750000  0.76120000  1.0 0.6278415931
C  C194  1  0.25103000  0.41603000  0.92633000  1.0 0.5270405822
C  C195  1  0.29650000  0.51830000  0.83010000  1.0 -0.2294423766
C  C196  1  0.35027000  0.52747000  0.74877000  1.0 0.6278415931
C  C197  1  0.08464000  0.57514000  0.23544000  1.0 0.5849802656
C  C198  1  0.99190000  0.67720000  0.19000000  1.0 0.0286239485
C  C199  1  0.93297000  0.63747000  0.22047000  1.0 0.2300138635
C  C200  1  0.22254000  0.56474000  0.19554000  1.0 0.5095159971
C  C201  1  0.23032000  0.67592000  0.18752000  1.0 -0.1910904472
C  C202  1  0.27768000  0.64318000  0.23758000  1.0 0.5023459358
C  C203  1  0.52241000  0.43101000  0.83881000  1.0 0.209913029
C  C204  1  0.42690000  0.50680000  0.92570000  1.0 -0.2007529723
C  C205  1  0.56743000  0.48143000  0.88863000  1.0 -0.1035978167
C  C206  1  0.96240000  0.63430000  0.30410000  1.0 0.0092731793
C  C207  1  0.91670000  0.60690000  0.29050000  1.0 0.2688969238
C  C208  1  0.51950000  0.46050000  0.80260000  1.0 0.209913029
C  C209  1  0.44580000  0.48910000  0.92450000  1.0 -0.1035978167
C  C210  1  0.56910000  0.51800000  0.84010000  1.0 -0.1232846428
C  C211  1  0.17038000  0.14218000  0.44478000  1.0 0.0173102683
C  C212  1  0.10434000  0.18454000  0.41974000  1.0 0.0018811512
C  C213  1  0.09812000  0.16512000  0.36852000  1.0 -0.010666159
C  C214  1  0.05892000  0.22312000  0.31132000  1.0 0.0587769561
C  C215  1  0.10937000  0.20267000  0.23857000  1.0 -0.0172993695
C  C216  1  0.12863000  0.25743000  0.16653000  1.0 0.0092731793
C  C217  1  0.10453000  0.33903000  0.15913000  1.0 0.0173102683
C  C218  1  0.06236000  0.36406000  0.22316000  1.0 -0.010666159
C  C219  1  0.08373000  0.41533000  0.22993000  1.0 -0.010666159
C  C220  1  0.07593000  0.39213000  0.31103000  1.0 -0.0798825585
C  C221  1  0.12685000  0.39845000  0.33095000  1.0 -0.1232846428
C  C222  1  0.15690000  0.33740000  0.39030000  1.0 -0.0396533645
C  C223  1  0.23774000  0.33024000  0.36714000  1.0 0.0092731793
C  C224  1  0.29322000  0.25742000  0.38652000  1.0 -0.0450843485
C  C225  1  0.27190000  0.18610000  0.43770000  1.0 0.0886312271
C  C226  1  0.18487000  0.19407000  0.46267000  1.0 0.0714976161
C  C227  1  0.13248000  0.27338000  0.43218000  1.0 -0.0172993695
C  C228  1  0.08101000  0.26601000  0.41161000  1.0 -0.010666159
C  C229  1  0.05053000  0.32573000  0.35393000  1.0 -0.0899919526
C  C230  1  0.03240000  0.31140000  0.30230000  1.0 0.0714976161
C  C231  1  0.97304000  0.27314000  0.32984000  1.0 -0.1910904472
C  C232  1  0.22191000  0.16781000  0.52191000  1.0 -0.1327590855
C  C233  1  0.93303000  0.29283000  0.27633000  1.0 0.5270405822
C  C234  1  0.82207000  0.29217000  0.27407000  1.0 -0.2007529723
C  C235  1  0.76120000  0.36900000  0.26750000  1.0 0.6278415931
C  C236  1  0.92633000  0.25103000  0.41603000  1.0 0.5270405822
C  C237  1  0.83010000  0.29650000  0.51830000  1.0 -0.2294423766
C  C238  1  0.74877000  0.35027000  0.52747000  1.0 0.6278415931
C  C239  1  0.23544000  0.08464000  0.57514000  1.0 0.5860389037
C  C240  1  0.19000000  0.99190000  0.67720000  1.0 0.0286239485
C  C241  1  0.22047000  0.93297000  0.63747000  1.0 0.2300138635
C  C242  1  0.19554000  0.22254000  0.56474000  1.0 0.5095159971
C  C243  1  0.18752000  0.23032000  0.67592000  1.0 -0.1910904472
C  C244  1  0.23758000  0.27768000  0.64318000  1.0 0.5023459358
C  C245  1  0.83881000  0.52241000  0.43101000  1.0 0.209913029
C  C246  1  0.92570000  0.42690000  0.50680000  1.0 -0.2007529723
C  C247  1  0.88863000  0.56743000  0.48143000  1.0 -0.1035978167
C  C248  1  0.30410000  0.96240000  0.63430000  1.0 0.0092731793
C  C249  1  0.29050000  0.91670000  0.60690000  1.0 0.2688969238
C  C250  1  0.80260000  0.51950000  0.46050000  1.0 0.209913029
C  C251  1  0.92450000  0.44580000  0.48910000  1.0 -0.1035978167
C  C252  1  0.84010000  0.56910000  0.51800000  1.0 -0.1232846428
N  N1  1  0.52841000  0.49351000  0.11721000  1.0 0.1720953596
N  N2  1  0.51170000  0.48800000  0.14630000  1.0 0.1080800606
N  N3  1  0.49351000  0.11721000  0.52841000  1.0 0.1720953596
N  N4  1  0.48800000  0.14630000  0.51170000  1.0 0.1080800606
N  N5  1  0.11721000  0.52841000  0.49351000  1.0 0.1720953596
N  N6  1  0.14630000  0.51170000  0.48800000  1.0 0.1080800606
N  N7  1  0.47159000  0.88279000  0.50649000  1.0 0.1720953596
N  N8  1  0.48830000  0.85370000  0.51200000  1.0 0.1080800606
N  N9  1  0.50649000  0.47159000  0.88279000  1.0 0.1720953596
N  N10  1  0.51200000  0.48830000  0.85370000  1.0 0.1080800606
N  N11  1  0.88279000  0.50649000  0.47159000  1.0 0.1720953596
N  N12  1  0.85370000  0.51200000  0.48830000  1.0 0.1080800606
O  O1  1  0.79235000  0.68285000  0.04295000  1.0 -0.4172762091
O  O2  1  0.68285000  0.72415000  0.13215000  1.0 -0.1697698769
O  O3  1  0.76570000  0.61390000  0.28360000  1.0 -0.6062044141
O  O4  1  0.70411000  0.58541000  0.24561000  1.0 -0.6514759697
O  O5  1  0.54160000  0.81390000  0.06470000  1.0 -0.4172762091
O  O6  1  0.56425000  0.68825000  0.12375000  1.0 -0.2674670166
O  O7  1  0.40453000  0.64783000  0.28963000  1.0 -0.555481507
O  O8  1  0.52657000  0.61347000  0.27797000  1.0 -0.5769796806
O  O9  1  0.42871000  0.95681000  0.69811000  1.0 -0.4631755438
O  O10  1  0.37510000  0.93270000  0.82860000  1.0 -0.3851919112
O  O11  1  0.42893000  0.04783000  0.77583000  1.0 0.0587769561
O  O12  1  0.31646000  0.13726000  0.76116000  1.0 -0.0798825585
O  O13  1  0.45734000  0.70904000  0.83544000  1.0 -0.4738519626
O  O14  1  0.37011000  0.81641000  0.78761000  1.0 -0.2674670166
O  O15  1  0.41505000  0.72305000  0.70685000  1.0 -0.4738519626
O  O16  1  0.31361000  0.68121000  0.78611000  1.0 -0.4738519626
O  O17  1  0.57994000  0.52504000  0.16924000  1.0 -0.2793180781
O  O18  1  0.38290000  0.93330000  0.82380000  1.0 -0.3570834385
O  O19  1  0.42340000  0.96570000  0.69570000  1.0 -0.4879957574
O  O20  1  0.45690000  0.06040000  0.71480000  1.0 -0.0899919526
O  O21  1  0.34090000  0.14830000  0.71470000  1.0 -0.0798825585
O  O22  1  0.56570000  0.52510000  0.19050000  1.0 -0.292691006
O  O23  1  0.68285000  0.04295000  0.79235000  1.0 -0.4172762091
O  O24  1  0.72415000  0.13215000  0.68285000  1.0 -0.1697698769
O  O25  1  0.61390000  0.28360000  0.76570000  1.0 -0.6062044141
O  O26  1  0.58541000  0.24561000  0.70411000  1.0 -0.6514759697
O  O27  1  0.81390000  0.06470000  0.54160000  1.0 -0.4172762091
O  O28  1  0.68825000  0.12375000  0.56425000  1.0 -0.2674670166
O  O29  1  0.64783000  0.28963000  0.40453000  1.0 -0.555481507
O  O30  1  0.61347000  0.27797000  0.52657000  1.0 -0.5769796806
O  O31  1  0.95681000  0.69811000  0.42871000  1.0 -0.4631755438
O  O32  1  0.93270000  0.82860000  0.37510000  1.0 -0.3833647109
O  O33  1  0.04783000  0.77583000  0.42893000  1.0 0.0587769561
O  O34  1  0.13726000  0.76116000  0.31646000  1.0 -0.0737913983
O  O35  1  0.70904000  0.83544000  0.45734000  1.0 -0.4738519626
O  O36  1  0.81641000  0.78761000  0.37011000  1.0 -0.2674670166
O  O37  1  0.72305000  0.70685000  0.41505000  1.0 -0.4738519626
O  O38  1  0.68121000  0.78611000  0.31361000  1.0 -0.4738519626
O  O39  1  0.52504000  0.16924000  0.57994000  1.0 -0.2793180781
O  O40  1  0.93330000  0.82380000  0.38290000  1.0 -0.3519009637
O  O41  1  0.96570000  0.69570000  0.42340000  1.0 -0.4879957574
O  O42  1  0.06040000  0.71480000  0.45690000  1.0 -0.0899919526
O  O43  1  0.14830000  0.71470000  0.34090000  1.0 -0.0798825585
O  O44  1  0.52510000  0.19050000  0.56570000  1.0 -0.292691006
O  O45  1  0.04295000  0.79235000  0.68285000  1.0 -0.4172762091
O  O46  1  0.13215000  0.68285000  0.72415000  1.0 -0.1697698769
O  O47  1  0.28360000  0.76570000  0.61390000  1.0 -0.6062044141
O  O48  1  0.24561000  0.70411000  0.58541000  1.0 -0.6514759697
O  O49  1  0.06470000  0.54160000  0.81390000  1.0 -0.4172762091
O  O50  1  0.12375000  0.56425000  0.68825000  1.0 -0.2674670166
O  O51  1  0.28963000  0.40453000  0.64783000  1.0 -0.555481507
O  O52  1  0.27797000  0.52657000  0.61347000  1.0 -0.5769796806
O  O53  1  0.69811000  0.42871000  0.95681000  1.0 -0.4631755438
O  O54  1  0.82860000  0.37510000  0.93270000  1.0 -0.3851919112
O  O55  1  0.77583000  0.42893000  0.04783000  1.0 0.0587769561
O  O56  1  0.76116000  0.31646000  0.13726000  1.0 -0.0798825585
O  O57  1  0.83544000  0.45734000  0.70904000  1.0 -0.4738519626
O  O58  1  0.78761000  0.37011000  0.81641000  1.0 -0.2674670166
O  O59  1  0.70685000  0.41505000  0.72305000  1.0 -0.4738519626
O  O60  1  0.78611000  0.31361000  0.68121000  1.0 -0.4738519626
O  O61  1  0.16924000  0.57994000  0.52504000  1.0 -0.2793180781
O  O62  1  0.82380000  0.38290000  0.93330000  1.0 -0.3570834385
O  O63  1  0.69570000  0.42340000  0.96570000  1.0 -0.4879957574
O  O64  1  0.71480000  0.45690000  0.06040000  1.0 -0.0899919526
O  O65  1  0.71470000  0.34090000  0.14830000  1.0 -0.0798825585
O  O66  1  0.19050000  0.56570000  0.52510000  1.0 -0.292691006
O  O67  1  0.20765000  0.95705000  0.31715000  1.0 -0.4172762091
O  O68  1  0.31715000  0.86785000  0.27585000  1.0 -0.1697698769
O  O69  1  0.23430000  0.71640000  0.38610000  1.0 -0.6062044141
O  O70  1  0.29589000  0.75439000  0.41459000  1.0 -0.6514759697
O  O71  1  0.45840000  0.93530000  0.18610000  1.0 -0.4172762091
O  O72  1  0.43575000  0.87625000  0.31175000  1.0 -0.2674670166
O  O73  1  0.59547000  0.71037000  0.35217000  1.0 -0.555481507
O  O74  1  0.47343000  0.72203000  0.38653000  1.0 -0.5769796806
O  O75  1  0.57129000  0.30189000  0.04319000  1.0 -0.4631755438
O  O76  1  0.62490000  0.17140000  0.06730000  1.0 -0.3833647109
O  O77  1  0.57107000  0.22417000  0.95217000  1.0 0.0587769561
O  O78  1  0.68354000  0.23884000  0.86274000  1.0 -0.0798825585
O  O79  1  0.54266000  0.16456000  0.29096000  1.0 -0.4738519626
O  O80  1  0.62989000  0.21239000  0.18359000  1.0 -0.2674670166
O  O81  1  0.58495000  0.29315000  0.27695000  1.0 -0.4738519626
O  O82  1  0.68639000  0.21389000  0.31879000  1.0 -0.4738519626
O  O83  1  0.42006000  0.83076000  0.47496000  1.0 -0.2793180781
O  O84  1  0.61710000  0.17620000  0.06670000  1.0 -0.3519009637
O  O85  1  0.57660000  0.30430000  0.03430000  1.0 -0.4879957574
O  O86  1  0.54310000  0.28520000  0.93960000  1.0 -0.0899919526
O  O87  1  0.65910000  0.28530000  0.85170000  1.0 -0.0798825585
O  O88  1  0.43430000  0.80950000  0.47490000  1.0 -0.292691006
O  O89  1  0.31715000  0.20765000  0.95705000  1.0 -0.4172762091
O  O90  1  0.27585000  0.31715000  0.86785000  1.0 -0.1697698769
O  O91  1  0.38610000  0.23430000  0.71640000  1.0 -0.6062044141
O  O92  1  0.41459000  0.29589000  0.75439000  1.0 -0.6514759697
O  O93  1  0.18610000  0.45840000  0.93530000  1.0 -0.4127604501
O  O94  1  0.31175000  0.43575000  0.87625000  1.0 -0.2674670166
O  O95  1  0.35217000  0.59547000  0.71037000  1.0 -0.555481507
O  O96  1  0.38653000  0.47343000  0.72203000  1.0 -0.5769796806
O  O97  1  0.04319000  0.57129000  0.30189000  1.0 -0.4631755438
O  O98  1  0.06730000  0.62490000  0.17140000  1.0 -0.3833647109
O  O99  1  0.95217000  0.57107000  0.22417000  1.0 0.0587769561
O  O100  1  0.86274000  0.68354000  0.23884000  1.0 -0.0737913983
O  O101  1  0.29096000  0.54266000  0.16456000  1.0 -0.4738519626
O  O102  1  0.18359000  0.62989000  0.21239000  1.0 -0.2674670166
O  O103  1  0.27695000  0.58495000  0.29315000  1.0 -0.4738519626
O  O104  1  0.31879000  0.68639000  0.21389000  1.0 -0.4738519626
O  O105  1  0.47496000  0.42006000  0.83076000  1.0 -0.2793180781
O  O106  1  0.06670000  0.61710000  0.17620000  1.0 -0.3570834385
O  O107  1  0.03430000  0.57660000  0.30430000  1.0 -0.4879957574
O  O108  1  0.93960000  0.54310000  0.28520000  1.0 -0.0899919526
O  O109  1  0.85170000  0.65910000  0.28530000  1.0 -0.0798825585
O  O110  1  0.47490000  0.43430000  0.80950000  1.0 -0.292691006
O  O111  1  0.95705000  0.31715000  0.20765000  1.0 -0.4172762091
O  O112  1  0.86785000  0.27585000  0.31715000  1.0 -0.1697698769
O  O113  1  0.71640000  0.38610000  0.23430000  1.0 -0.6062044141
O  O114  1  0.75439000  0.41459000  0.29589000  1.0 -0.6514759697
O  O115  1  0.93530000  0.18610000  0.45840000  1.0 -0.4172762091
O  O116  1  0.87625000  0.31175000  0.43575000  1.0 -0.2624671297
O  O117  1  0.71037000  0.35217000  0.59547000  1.0 -0.555481507
O  O118  1  0.72203000  0.38653000  0.47343000  1.0 -0.5769796806
O  O119  1  0.30189000  0.04319000  0.57129000  1.0 -0.4631755438
O  O120  1  0.17140000  0.06730000  0.62490000  1.0 -0.3851919112
O  O121  1  0.22417000  0.95217000  0.57107000  1.0 0.0587769561
O  O122  1  0.23884000  0.86274000  0.68354000  1.0 -0.0798825585
O  O123  1  0.16456000  0.29096000  0.54266000  1.0 -0.4738519626
O  O124  1  0.21239000  0.18359000  0.62989000  1.0 -0.2674670166
O  O125  1  0.29315000  0.27695000  0.58495000  1.0 -0.4738519626
O  O126  1  0.21389000  0.31879000  0.68639000  1.0 -0.4738519626
O  O127  1  0.83076000  0.47496000  0.42006000  1.0 -0.2793180781
O  O128  1  0.17620000  0.06670000  0.61710000  1.0 -0.3570834385
O  O129  1  0.30430000  0.03430000  0.57660000  1.0 -0.4879957574
O  O130  1  0.28520000  0.93960000  0.54310000  1.0 -0.0899919526
O  O131  1  0.28530000  0.85170000  0.65910000  1.0 -0.0798825585
O  O132  1  0.80950000  0.47490000  0.43430000  1.0 -0.292691006
