# DDEC6 charges by PACMAN v1.1 (https://github.com/mtap-research/PACMAN-charge/)
data_ADUWIH_ASR_pacman
_symmetry_space_group_name_H-M   'P 1'
_cell_length_a   22.07200000
_cell_length_b   22.07200000
_cell_length_c   22.07200000
_cell_angle_alpha   90.00000000
_cell_angle_beta   90.00000000
_cell_angle_gamma   90.00000000
_symmetry_Int_Tables_number   1
_chemical_formula_structural   ZnH12(C3O)6
_chemical_formula_sum   'Zn12 H144 C216 O72'
_cell_volume   10752.88651725
_cell_formula_units_Z   12
loop_
 _symmetry_equiv_pos_site_id
 _symmetry_equiv_pos_as_xyz
  1  'x, y, z'
loop_
 _atom_site_type_symbol
 _atom_site_label
 _atom_site_symmetry_multiplicity
 _atom_site_fract_x
 _atom_site_fract_y
 _atom_site_fract_z
 _atom_site_occupancy
 _atom_site_charge
Zn  Zn1  1  0.15746000  0.84254000  0.15746000  1.0 0.943348873
Zn  Zn2  1  0.84254000  0.15746000  0.15746000  1.0 0.943348873
Zn  Zn3  1  0.15746000  0.15746000  0.84254000  1.0 0.943348873
Zn  Zn4  1  0.84254000  0.84254000  0.84254000  1.0 0.943348873
Zn  Zn5  1  0.34254000  0.65746000  0.34254000  1.0 0.943348873
Zn  Zn6  1  0.65746000  0.34254000  0.34254000  1.0 0.943348873
Zn  Zn7  1  0.34254000  0.34254000  0.65746000  1.0 0.943348873
Zn  Zn8  1  0.65746000  0.65746000  0.65746000  1.0 0.943348873
Zn  Zn9  1  0.25000000  0.75000000  0.25000000  1.0 1.0465519909
Zn  Zn10  1  0.75000000  0.25000000  0.25000000  1.0 1.0465519909
Zn  Zn11  1  0.25000000  0.25000000  0.75000000  1.0 1.0465519909
Zn  Zn12  1  0.75000000  0.75000000  0.75000000  1.0 1.0465519909
H  H1  1  0.21440000  0.00250000  0.24650000  1.0 0.1473254148
H  H2  1  0.78560000  0.99750000  0.24650000  1.0 0.1473254148
H  H3  1  0.21440000  0.99750000  0.75350000  1.0 0.1473254148
H  H4  1  0.78560000  0.00250000  0.75350000  1.0 0.1473254148
H  H5  1  0.24650000  0.21440000  0.00250000  1.0 0.1473254148
H  H6  1  0.00250000  0.24650000  0.21440000  1.0 0.1473254148
H  H7  1  0.75350000  0.78560000  0.00250000  1.0 0.1473254148
H  H8  1  0.99750000  0.24650000  0.78560000  1.0 0.1473254148
H  H9  1  0.24650000  0.78560000  0.99750000  1.0 0.1473254148
H  H10  1  0.99750000  0.75350000  0.21440000  1.0 0.1473254148
H  H11  1  0.75350000  0.21440000  0.99750000  1.0 0.1473254148
H  H12  1  0.00250000  0.75350000  0.78560000  1.0 0.1473254148
H  H13  1  0.28560000  0.49750000  0.25350000  1.0 0.1473254148
H  H14  1  0.71440000  0.50250000  0.25350000  1.0 0.1473254148
H  H15  1  0.28560000  0.50250000  0.74650000  1.0 0.1473254148
H  H16  1  0.71440000  0.49750000  0.74650000  1.0 0.1473254148
H  H17  1  0.25350000  0.28560000  0.49750000  1.0 0.1473254148
H  H18  1  0.49750000  0.25350000  0.28560000  1.0 0.1473254148
H  H19  1  0.74650000  0.71440000  0.49750000  1.0 0.1473254148
H  H20  1  0.50250000  0.25350000  0.71440000  1.0 0.1473254148
H  H21  1  0.25350000  0.71440000  0.50250000  1.0 0.1473254148
H  H22  1  0.50250000  0.74650000  0.28560000  1.0 0.1473254148
H  H23  1  0.74650000  0.28560000  0.50250000  1.0 0.1473254148
H  H24  1  0.49750000  0.74650000  0.71440000  1.0 0.1473254148
H  H25  1  0.30390000  0.05620000  0.39550000  1.0 0.1157858902
H  H26  1  0.69610000  0.94380000  0.39550000  1.0 0.1157858902
H  H27  1  0.30390000  0.94380000  0.60450000  1.0 0.1157858902
H  H28  1  0.69610000  0.05620000  0.60450000  1.0 0.1157858902
H  H29  1  0.39550000  0.30390000  0.05620000  1.0 0.1157858902
H  H30  1  0.05620000  0.39550000  0.30390000  1.0 0.1157858902
H  H31  1  0.60450000  0.69610000  0.05620000  1.0 0.1157858902
H  H32  1  0.94380000  0.39550000  0.69610000  1.0 0.1157858902
H  H33  1  0.39550000  0.69610000  0.94380000  1.0 0.1157858902
H  H34  1  0.94380000  0.60450000  0.30390000  1.0 0.1157858902
H  H35  1  0.60450000  0.30390000  0.94380000  1.0 0.1157858902
H  H36  1  0.05620000  0.60450000  0.69610000  1.0 0.1157858902
H  H37  1  0.19610000  0.44380000  0.10450000  1.0 0.1157858902
H  H38  1  0.80390000  0.55620000  0.10450000  1.0 0.1157858902
H  H39  1  0.19610000  0.55620000  0.89550000  1.0 0.1157858902
H  H40  1  0.80390000  0.44380000  0.89550000  1.0 0.1157858902
H  H41  1  0.10450000  0.19610000  0.44380000  1.0 0.1157858902
H  H42  1  0.44380000  0.10450000  0.19610000  1.0 0.1157858902
H  H43  1  0.89550000  0.80390000  0.44380000  1.0 0.1157858902
H  H44  1  0.55620000  0.10450000  0.80390000  1.0 0.1157858902
H  H45  1  0.10450000  0.80390000  0.55620000  1.0 0.1157858902
H  H46  1  0.55620000  0.89550000  0.19610000  1.0 0.1157858902
H  H47  1  0.89550000  0.19610000  0.55620000  1.0 0.1157858902
H  H48  1  0.44380000  0.89550000  0.80390000  1.0 0.1157858902
H  H49  1  0.31190000  0.95610000  0.42440000  1.0 0.1108584238
H  H50  1  0.68810000  0.04390000  0.42440000  1.0 0.1108584238
H  H51  1  0.31190000  0.04390000  0.57560000  1.0 0.1108584238
H  H52  1  0.68810000  0.95610000  0.57560000  1.0 0.1108584238
H  H53  1  0.42440000  0.31190000  0.95610000  1.0 0.1108584238
H  H54  1  0.95610000  0.42440000  0.31190000  1.0 0.1108584238
H  H55  1  0.57560000  0.68810000  0.95610000  1.0 0.1108584238
H  H56  1  0.04390000  0.42440000  0.68810000  1.0 0.1108584238
H  H57  1  0.42440000  0.68810000  0.04390000  1.0 0.1108584238
H  H58  1  0.04390000  0.57560000  0.31190000  1.0 0.1108584238
H  H59  1  0.57560000  0.31190000  0.04390000  1.0 0.1108584238
H  H60  1  0.95610000  0.57560000  0.68810000  1.0 0.1108584238
H  H61  1  0.18810000  0.54390000  0.07560000  1.0 0.1108584238
H  H62  1  0.81190000  0.45610000  0.07560000  1.0 0.1108584238
H  H63  1  0.18810000  0.45610000  0.92440000  1.0 0.1108584238
H  H64  1  0.81190000  0.54390000  0.92440000  1.0 0.1108584238
H  H65  1  0.07560000  0.18810000  0.54390000  1.0 0.1108584238
H  H66  1  0.54390000  0.07560000  0.18810000  1.0 0.1108584238
H  H67  1  0.92440000  0.81190000  0.54390000  1.0 0.1108584238
H  H68  1  0.45610000  0.07560000  0.81190000  1.0 0.1108584238
H  H69  1  0.07560000  0.81190000  0.45610000  1.0 0.1108584238
H  H70  1  0.45610000  0.92440000  0.18810000  1.0 0.1108584238
H  H71  1  0.92440000  0.18810000  0.45610000  1.0 0.1108584238
H  H72  1  0.54390000  0.92440000  0.81190000  1.0 0.1108584238
H  H73  1  0.26900000  0.88050000  0.36850000  1.0 0.1314402703
H  H74  1  0.73100000  0.11950000  0.36850000  1.0 0.1314402703
H  H75  1  0.26900000  0.11950000  0.63150000  1.0 0.1314402703
H  H76  1  0.73100000  0.88050000  0.63150000  1.0 0.1314402703
H  H77  1  0.36850000  0.26900000  0.88050000  1.0 0.1314402703
H  H78  1  0.88050000  0.36850000  0.26900000  1.0 0.1314402703
H  H79  1  0.63150000  0.73100000  0.88050000  1.0 0.1314402703
H  H80  1  0.11950000  0.36850000  0.73100000  1.0 0.1314402703
H  H81  1  0.36850000  0.73100000  0.11950000  1.0 0.1314402703
H  H82  1  0.11950000  0.63150000  0.26900000  1.0 0.1314402703
H  H83  1  0.63150000  0.26900000  0.11950000  1.0 0.1314402703
H  H84  1  0.88050000  0.63150000  0.73100000  1.0 0.1314402703
H  H85  1  0.23100000  0.61950000  0.13150000  1.0 0.1314402703
H  H86  1  0.76900000  0.38050000  0.13150000  1.0 0.1314402703
H  H87  1  0.23100000  0.38050000  0.86850000  1.0 0.1314402703
H  H88  1  0.76900000  0.61950000  0.86850000  1.0 0.1314402703
H  H89  1  0.13150000  0.23100000  0.61950000  1.0 0.1314402703
H  H90  1  0.61950000  0.13150000  0.23100000  1.0 0.1314402703
H  H91  1  0.86850000  0.76900000  0.61950000  1.0 0.1314402703
H  H92  1  0.38050000  0.13150000  0.76900000  1.0 0.1314402703
H  H93  1  0.13150000  0.76900000  0.38050000  1.0 0.1314402703
H  H94  1  0.38050000  0.86850000  0.23100000  1.0 0.1314402703
H  H95  1  0.86850000  0.23100000  0.38050000  1.0 0.1314402703
H  H96  1  0.61950000  0.86850000  0.76900000  1.0 0.1314402703
H  H97  1  0.32020000  0.14080000  0.32990000  1.0 0.0990339887
H  H98  1  0.67980000  0.85920000  0.32990000  1.0 0.0990339887
H  H99  1  0.32020000  0.85920000  0.67010000  1.0 0.0990339887
H  H100  1  0.67980000  0.14080000  0.67010000  1.0 0.0990339887
H  H101  1  0.32990000  0.32020000  0.14080000  1.0 0.0990339887
H  H102  1  0.14080000  0.32990000  0.32020000  1.0 0.0990339887
H  H103  1  0.67010000  0.67980000  0.14080000  1.0 0.0990339887
H  H104  1  0.85920000  0.32990000  0.67980000  1.0 0.0990339887
H  H105  1  0.32990000  0.67980000  0.85920000  1.0 0.0990339887
H  H106  1  0.85920000  0.67010000  0.32020000  1.0 0.0990339887
H  H107  1  0.67010000  0.32020000  0.85920000  1.0 0.0990339887
H  H108  1  0.14080000  0.67010000  0.67980000  1.0 0.0990339887
H  H109  1  0.17980000  0.35920000  0.17010000  1.0 0.0990339887
H  H110  1  0.82020000  0.64080000  0.17010000  1.0 0.0990339887
H  H111  1  0.17980000  0.64080000  0.82990000  1.0 0.0990339887
H  H112  1  0.82020000  0.35920000  0.82990000  1.0 0.0990339887
H  H113  1  0.17010000  0.17980000  0.35920000  1.0 0.0990339887
H  H114  1  0.35920000  0.17010000  0.17980000  1.0 0.0990339887
H  H115  1  0.82990000  0.82020000  0.35920000  1.0 0.0990339887
H  H116  1  0.64080000  0.17010000  0.82020000  1.0 0.0990339887
H  H117  1  0.17010000  0.82020000  0.64080000  1.0 0.0990339887
H  H118  1  0.64080000  0.82990000  0.17980000  1.0 0.0990339887
H  H119  1  0.82990000  0.17980000  0.64080000  1.0 0.0990339887
H  H120  1  0.35920000  0.82990000  0.82020000  1.0 0.0990339887
H  H121  1  0.26010000  0.15180000  0.36720000  1.0 0.0990339887
H  H122  1  0.73990000  0.84820000  0.36720000  1.0 0.0990339887
H  H123  1  0.26010000  0.84820000  0.63280000  1.0 0.0990339887
H  H124  1  0.73990000  0.15180000  0.63280000  1.0 0.0990339887
H  H125  1  0.36720000  0.26010000  0.15180000  1.0 0.0990339887
H  H126  1  0.15180000  0.36720000  0.26010000  1.0 0.0990339887
H  H127  1  0.63280000  0.73990000  0.15180000  1.0 0.0990339887
H  H128  1  0.84820000  0.36720000  0.73990000  1.0 0.0990339887
H  H129  1  0.36720000  0.73990000  0.84820000  1.0 0.0990339887
H  H130  1  0.84820000  0.63280000  0.26010000  1.0 0.0990339887
H  H131  1  0.63280000  0.26010000  0.84820000  1.0 0.0990339887
H  H132  1  0.15180000  0.63280000  0.73990000  1.0 0.0990339887
H  H133  1  0.23990000  0.34820000  0.13280000  1.0 0.0990339887
H  H134  1  0.76010000  0.65180000  0.13280000  1.0 0.0990339887
H  H135  1  0.23990000  0.65180000  0.86720000  1.0 0.0990339887
H  H136  1  0.76010000  0.34820000  0.86720000  1.0 0.0990339887
H  H137  1  0.13280000  0.23990000  0.34820000  1.0 0.0990339887
H  H138  1  0.34820000  0.13280000  0.23990000  1.0 0.0990339887
H  H139  1  0.86720000  0.76010000  0.34820000  1.0 0.0990339887
H  H140  1  0.65180000  0.13280000  0.76010000  1.0 0.0990339887
H  H141  1  0.13280000  0.76010000  0.65180000  1.0 0.0990339887
H  H142  1  0.65180000  0.86720000  0.23990000  1.0 0.0990339887
H  H143  1  0.86720000  0.23990000  0.65180000  1.0 0.0990339887
H  H144  1  0.34820000  0.86720000  0.76010000  1.0 0.0990339887
C  C1  1  0.23827000  0.93489000  0.30102000  1.0 -0.0083364381
C  C2  1  0.76173000  0.06511000  0.30102000  1.0 -0.0083364381
C  C3  1  0.23827000  0.06511000  0.69898000  1.0 -0.0083364381
C  C4  1  0.76173000  0.93489000  0.69898000  1.0 -0.0083364381
C  C5  1  0.30102000  0.23827000  0.93489000  1.0 -0.0083364381
C  C6  1  0.93489000  0.30102000  0.23827000  1.0 -0.0083364381
C  C7  1  0.69898000  0.76173000  0.93489000  1.0 -0.0083364381
C  C8  1  0.06511000  0.30102000  0.76173000  1.0 -0.0083364381
C  C9  1  0.30102000  0.76173000  0.06511000  1.0 -0.0083364381
C  C10  1  0.06511000  0.69898000  0.23827000  1.0 -0.0083364381
C  C11  1  0.69898000  0.23827000  0.06511000  1.0 -0.0083364381
C  C12  1  0.93489000  0.69898000  0.76173000  1.0 -0.0083364381
C  C13  1  0.26173000  0.56511000  0.19898000  1.0 -0.0083364381
C  C14  1  0.73827000  0.43489000  0.19898000  1.0 -0.0083364381
C  C15  1  0.26173000  0.43489000  0.80102000  1.0 -0.0083364381
C  C16  1  0.73827000  0.56511000  0.80102000  1.0 -0.0083364381
C  C17  1  0.19898000  0.26173000  0.56511000  1.0 -0.0083364381
C  C18  1  0.56511000  0.19898000  0.26173000  1.0 -0.0083364381
C  C19  1  0.80102000  0.73827000  0.56511000  1.0 -0.0083364381
C  C20  1  0.43489000  0.19898000  0.73827000  1.0 -0.0083364381
C  C21  1  0.19898000  0.73827000  0.43489000  1.0 -0.0083364381
C  C22  1  0.43489000  0.80102000  0.26173000  1.0 -0.0083364381
C  C23  1  0.80102000  0.26173000  0.43489000  1.0 -0.0083364381
C  C24  1  0.56511000  0.80102000  0.73827000  1.0 -0.0083364381
C  C25  1  0.23348000  0.99335000  0.28291000  1.0 -0.2030537244
C  C26  1  0.76652000  0.00665000  0.28291000  1.0 -0.2030537244
C  C27  1  0.23348000  0.00665000  0.71709000  1.0 -0.2030537244
C  C28  1  0.76652000  0.99335000  0.71709000  1.0 -0.2030537244
C  C29  1  0.28291000  0.23348000  0.99335000  1.0 -0.2030537244
C  C30  1  0.99335000  0.28291000  0.23348000  1.0 -0.2030537244
C  C31  1  0.71709000  0.76652000  0.99335000  1.0 -0.2030537244
C  C32  1  0.00665000  0.28291000  0.76652000  1.0 -0.2030537244
C  C33  1  0.28291000  0.76652000  0.00665000  1.0 -0.2030537244
C  C34  1  0.00665000  0.71709000  0.23348000  1.0 -0.2030537244
C  C35  1  0.71709000  0.23348000  0.00665000  1.0 -0.2030537244
C  C36  1  0.99335000  0.71709000  0.76652000  1.0 -0.2030537244
C  C37  1  0.26652000  0.50665000  0.21709000  1.0 -0.2030537244
C  C38  1  0.73348000  0.49335000  0.21709000  1.0 -0.2030537244
C  C39  1  0.26652000  0.49335000  0.78291000  1.0 -0.2030537244
C  C40  1  0.73348000  0.50665000  0.78291000  1.0 -0.2030537244
C  C41  1  0.21709000  0.26652000  0.50665000  1.0 -0.2030537244
C  C42  1  0.50665000  0.21709000  0.26652000  1.0 -0.2030537244
C  C43  1  0.78291000  0.73348000  0.50665000  1.0 -0.2030537244
C  C44  1  0.49335000  0.21709000  0.73348000  1.0 -0.2030537244
C  C45  1  0.21709000  0.73348000  0.49335000  1.0 -0.2030537244
C  C46  1  0.49335000  0.78291000  0.26652000  1.0 -0.2030537244
C  C47  1  0.78291000  0.26652000  0.49335000  1.0 -0.2030537244
C  C48  1  0.50665000  0.78291000  0.73348000  1.0 -0.2030537244
C  C49  1  0.25717000  0.04004000  0.31889000  1.0 0.2618665257
C  C50  1  0.74283000  0.95996000  0.31889000  1.0 0.2618665257
C  C51  1  0.25717000  0.95996000  0.68111000  1.0 0.2618665257
C  C52  1  0.74283000  0.04004000  0.68111000  1.0 0.2618665257
C  C53  1  0.31889000  0.25717000  0.04004000  1.0 0.2618665257
C  C54  1  0.04004000  0.31889000  0.25717000  1.0 0.2618665257
C  C55  1  0.68111000  0.74283000  0.04004000  1.0 0.2618665257
C  C56  1  0.95996000  0.31889000  0.74283000  1.0 0.2618665257
C  C57  1  0.31889000  0.74283000  0.95996000  1.0 0.2618665257
C  C58  1  0.95996000  0.68111000  0.25717000  1.0 0.2618665257
C  C59  1  0.68111000  0.25717000  0.95996000  1.0 0.2618665257
C  C60  1  0.04004000  0.68111000  0.74283000  1.0 0.2618665257
C  C61  1  0.24283000  0.45996000  0.18111000  1.0 0.2618665257
C  C62  1  0.75717000  0.54004000  0.18111000  1.0 0.2618665257
C  C63  1  0.24283000  0.54004000  0.81889000  1.0 0.2618665257
C  C64  1  0.75717000  0.45996000  0.81889000  1.0 0.2618665257
C  C65  1  0.18111000  0.24283000  0.45996000  1.0 0.2618665257
C  C66  1  0.45996000  0.18111000  0.24283000  1.0 0.2618665257
C  C67  1  0.81889000  0.75717000  0.45996000  1.0 0.2618665257
C  C68  1  0.54004000  0.18111000  0.75717000  1.0 0.2618665257
C  C69  1  0.18111000  0.75717000  0.54004000  1.0 0.2618665257
C  C70  1  0.54004000  0.81889000  0.24283000  1.0 0.2618665257
C  C71  1  0.81889000  0.24283000  0.54004000  1.0 0.2618665257
C  C72  1  0.45996000  0.81889000  0.75717000  1.0 0.2618665257
C  C73  1  0.28700000  0.02590000  0.37170000  1.0 -0.2274527094
C  C74  1  0.71300000  0.97410000  0.37170000  1.0 -0.2274527094
C  C75  1  0.28700000  0.97410000  0.62830000  1.0 -0.2274527094
C  C76  1  0.71300000  0.02590000  0.62830000  1.0 -0.2274527094
C  C77  1  0.37170000  0.28700000  0.02590000  1.0 -0.2274527094
C  C78  1  0.02590000  0.37170000  0.28700000  1.0 -0.2274527094
C  C79  1  0.62830000  0.71300000  0.02590000  1.0 -0.2274527094
C  C80  1  0.97410000  0.37170000  0.71300000  1.0 -0.2274527094
C  C81  1  0.37170000  0.71300000  0.97410000  1.0 -0.2274527094
C  C82  1  0.97410000  0.62830000  0.28700000  1.0 -0.2274527094
C  C83  1  0.62830000  0.28700000  0.97410000  1.0 -0.2274527094
C  C84  1  0.02590000  0.62830000  0.71300000  1.0 -0.2274527094
C  C85  1  0.21300000  0.47410000  0.12830000  1.0 -0.2274527094
C  C86  1  0.78700000  0.52590000  0.12830000  1.0 -0.2274527094
C  C87  1  0.21300000  0.52590000  0.87170000  1.0 -0.2274527094
C  C88  1  0.78700000  0.47410000  0.87170000  1.0 -0.2274527094
C  C89  1  0.12830000  0.21300000  0.47410000  1.0 -0.2274527094
C  C90  1  0.47410000  0.12830000  0.21300000  1.0 -0.2274527094
C  C91  1  0.87170000  0.78700000  0.47410000  1.0 -0.2274527094
C  C92  1  0.52590000  0.12830000  0.78700000  1.0 -0.2274527094
C  C93  1  0.12830000  0.78700000  0.52590000  1.0 -0.2274527094
C  C94  1  0.52590000  0.87170000  0.21300000  1.0 -0.2274527094
C  C95  1  0.87170000  0.21300000  0.52590000  1.0 -0.2274527094
C  C96  1  0.47410000  0.87170000  0.78700000  1.0 -0.2274527094
C  C97  1  0.29140000  0.96580000  0.38880000  1.0 -0.0790980773
C  C98  1  0.70860000  0.03420000  0.38880000  1.0 -0.0790980773
C  C99  1  0.29140000  0.03420000  0.61120000  1.0 -0.0790980773
C  C100  1  0.70860000  0.96580000  0.61120000  1.0 -0.0790980773
C  C101  1  0.38880000  0.29140000  0.96580000  1.0 -0.0790980773
C  C102  1  0.96580000  0.38880000  0.29140000  1.0 -0.0790980773
C  C103  1  0.61120000  0.70860000  0.96580000  1.0 -0.0790980773
C  C104  1  0.03420000  0.38880000  0.70860000  1.0 -0.0790980773
C  C105  1  0.38880000  0.70860000  0.03420000  1.0 -0.0790980773
C  C106  1  0.03420000  0.61120000  0.29140000  1.0 -0.0790980773
C  C107  1  0.61120000  0.29140000  0.03420000  1.0 -0.0790980773
C  C108  1  0.96580000  0.61120000  0.70860000  1.0 -0.0790980773
C  C109  1  0.20860000  0.53420000  0.11120000  1.0 -0.0790980773
C  C110  1  0.79140000  0.46580000  0.11120000  1.0 -0.0790980773
C  C111  1  0.20860000  0.46580000  0.88880000  1.0 -0.0790980773
C  C112  1  0.79140000  0.53420000  0.88880000  1.0 -0.0790980773
C  C113  1  0.11120000  0.20860000  0.53420000  1.0 -0.0790980773
C  C114  1  0.53420000  0.11120000  0.20860000  1.0 -0.0790980773
C  C115  1  0.88880000  0.79140000  0.53420000  1.0 -0.0790980773
C  C116  1  0.46580000  0.11120000  0.79140000  1.0 -0.0790980773
C  C117  1  0.11120000  0.79140000  0.46580000  1.0 -0.0790980773
C  C118  1  0.46580000  0.88880000  0.20860000  1.0 -0.0790980773
C  C119  1  0.88880000  0.20860000  0.46580000  1.0 -0.0790980773
C  C120  1  0.53420000  0.88880000  0.79140000  1.0 -0.0790980773
C  C121  1  0.26680000  0.92049000  0.35530000  1.0 -0.1406870749
C  C122  1  0.73320000  0.07951000  0.35530000  1.0 -0.1406870749
C  C123  1  0.26680000  0.07951000  0.64470000  1.0 -0.1406870749
C  C124  1  0.73320000  0.92049000  0.64470000  1.0 -0.1406870749
C  C125  1  0.35530000  0.26680000  0.92049000  1.0 -0.1406870749
C  C126  1  0.92049000  0.35530000  0.26680000  1.0 -0.1406870749
C  C127  1  0.64470000  0.73320000  0.92049000  1.0 -0.1406870749
C  C128  1  0.07951000  0.35530000  0.73320000  1.0 -0.1406870749
C  C129  1  0.35530000  0.73320000  0.07951000  1.0 -0.1406870749
C  C130  1  0.07951000  0.64470000  0.26680000  1.0 -0.1406870749
C  C131  1  0.64470000  0.26680000  0.07951000  1.0 -0.1406870749
C  C132  1  0.92049000  0.64470000  0.73320000  1.0 -0.1406870749
C  C133  1  0.23320000  0.57951000  0.14470000  1.0 -0.1406870749
C  C134  1  0.76680000  0.42049000  0.14470000  1.0 -0.1406870749
C  C135  1  0.23320000  0.42049000  0.85530000  1.0 -0.1406870749
C  C136  1  0.76680000  0.57951000  0.85530000  1.0 -0.1406870749
C  C137  1  0.14470000  0.23320000  0.57951000  1.0 -0.1406870749
C  C138  1  0.57951000  0.14470000  0.23320000  1.0 -0.1406870749
C  C139  1  0.85530000  0.76680000  0.57951000  1.0 -0.1406870749
C  C140  1  0.42049000  0.14470000  0.76680000  1.0 -0.1406870749
C  C141  1  0.14470000  0.76680000  0.42049000  1.0 -0.1406870749
C  C142  1  0.42049000  0.85530000  0.23320000  1.0 -0.1406870749
C  C143  1  0.85530000  0.23320000  0.42049000  1.0 -0.1406870749
C  C144  1  0.57951000  0.85530000  0.76680000  1.0 -0.1406870749
C  C145  1  0.21338000  0.88546000  0.26154000  1.0 0.6074550632
C  C146  1  0.78662000  0.11454000  0.26154000  1.0 0.6074550632
C  C147  1  0.21338000  0.11454000  0.73846000  1.0 0.6074550632
C  C148  1  0.78662000  0.88546000  0.73846000  1.0 0.6074550632
C  C149  1  0.26154000  0.21338000  0.88546000  1.0 0.6074550632
C  C150  1  0.88546000  0.26154000  0.21338000  1.0 0.6074550632
C  C151  1  0.73846000  0.78662000  0.88546000  1.0 0.6074550632
C  C152  1  0.11454000  0.26154000  0.78662000  1.0 0.6074550632
C  C153  1  0.26154000  0.78662000  0.11454000  1.0 0.6074550632
C  C154  1  0.11454000  0.73846000  0.21338000  1.0 0.6074550632
C  C155  1  0.73846000  0.21338000  0.11454000  1.0 0.6074550632
C  C156  1  0.88546000  0.73846000  0.78662000  1.0 0.6074550632
C  C157  1  0.28662000  0.61454000  0.23846000  1.0 0.6074550632
C  C158  1  0.71338000  0.38546000  0.23846000  1.0 0.6074550632
C  C159  1  0.28662000  0.38546000  0.76154000  1.0 0.6074550632
C  C160  1  0.71338000  0.61454000  0.76154000  1.0 0.6074550632
C  C161  1  0.23846000  0.28662000  0.61454000  1.0 0.6074550632
C  C162  1  0.61454000  0.23846000  0.28662000  1.0 0.6074550632
C  C163  1  0.76154000  0.71338000  0.61454000  1.0 0.6074550632
C  C164  1  0.38546000  0.23846000  0.71338000  1.0 0.6074550632
C  C165  1  0.23846000  0.71338000  0.38546000  1.0 0.6074550632
C  C166  1  0.38546000  0.76154000  0.28662000  1.0 0.6074550632
C  C167  1  0.76154000  0.28662000  0.38546000  1.0 0.6074550632
C  C168  1  0.61454000  0.76154000  0.71338000  1.0 0.6074550632
C  C169  1  0.27674000  0.14672000  0.32679000  1.0 -0.09602017
C  C170  1  0.72326000  0.85328000  0.32679000  1.0 -0.09602017
C  C171  1  0.27674000  0.85328000  0.67321000  1.0 -0.09602017
C  C172  1  0.72326000  0.14672000  0.67321000  1.0 -0.09602017
C  C173  1  0.32679000  0.27674000  0.14672000  1.0 -0.09602017
C  C174  1  0.14672000  0.32679000  0.27674000  1.0 -0.09602017
C  C175  1  0.67321000  0.72326000  0.14672000  1.0 -0.09602017
C  C176  1  0.85328000  0.32679000  0.72326000  1.0 -0.09602017
C  C177  1  0.32679000  0.72326000  0.85328000  1.0 -0.09602017
C  C178  1  0.85328000  0.67321000  0.27674000  1.0 -0.09602017
C  C179  1  0.67321000  0.27674000  0.85328000  1.0 -0.09602017
C  C180  1  0.14672000  0.67321000  0.72326000  1.0 -0.09602017
C  C181  1  0.22326000  0.35328000  0.17321000  1.0 -0.09602017
C  C182  1  0.77674000  0.64672000  0.17321000  1.0 -0.09602017
C  C183  1  0.22326000  0.64672000  0.82679000  1.0 -0.09602017
C  C184  1  0.77674000  0.35328000  0.82679000  1.0 -0.09602017
C  C185  1  0.17321000  0.22326000  0.35328000  1.0 -0.09602017
C  C186  1  0.35328000  0.17321000  0.22326000  1.0 -0.09602017
C  C187  1  0.82679000  0.77674000  0.35328000  1.0 -0.09602017
C  C188  1  0.64672000  0.17321000  0.77674000  1.0 -0.09602017
C  C189  1  0.17321000  0.77674000  0.64672000  1.0 -0.09602017
C  C190  1  0.64672000  0.82679000  0.22326000  1.0 -0.09602017
C  C191  1  0.82679000  0.22326000  0.64672000  1.0 -0.09602017
C  C192  1  0.35328000  0.82679000  0.77674000  1.0 -0.09602017
C  C193  1  0.26214000  0.20080000  0.28737000  1.0 -0.0025094258
C  C194  1  0.73786000  0.79920000  0.28737000  1.0 -0.0025094258
C  C195  1  0.26214000  0.79920000  0.71263000  1.0 -0.0025094258
C  C196  1  0.73786000  0.20080000  0.71263000  1.0 -0.0025094258
C  C197  1  0.28737000  0.26214000  0.20080000  1.0 -0.0025094258
C  C198  1  0.20080000  0.28737000  0.26214000  1.0 -0.0025094258
C  C199  1  0.71263000  0.73786000  0.20080000  1.0 -0.0025094258
C  C200  1  0.79920000  0.28737000  0.73786000  1.0 -0.0025094258
C  C201  1  0.28737000  0.73786000  0.79920000  1.0 -0.0025094258
C  C202  1  0.79920000  0.71263000  0.26214000  1.0 -0.0025094258
C  C203  1  0.71263000  0.26214000  0.79920000  1.0 -0.0025094258
C  C204  1  0.20080000  0.71263000  0.73786000  1.0 -0.0025094258
C  C205  1  0.23786000  0.29920000  0.21263000  1.0 -0.0025094258
C  C206  1  0.76214000  0.70080000  0.21263000  1.0 -0.0025094258
C  C207  1  0.23786000  0.70080000  0.78737000  1.0 -0.0025094258
C  C208  1  0.76214000  0.29920000  0.78737000  1.0 -0.0025094258
C  C209  1  0.21263000  0.23786000  0.29920000  1.0 -0.0025094258
C  C210  1  0.29920000  0.21263000  0.23786000  1.0 -0.0025094258
C  C211  1  0.78737000  0.76214000  0.29920000  1.0 -0.0025094258
C  C212  1  0.70080000  0.21263000  0.76214000  1.0 -0.0025094258
C  C213  1  0.21263000  0.76214000  0.70080000  1.0 -0.0025094258
C  C214  1  0.70080000  0.78737000  0.23786000  1.0 -0.0025094258
C  C215  1  0.78737000  0.23786000  0.70080000  1.0 -0.0025094258
C  C216  1  0.29920000  0.78737000  0.76214000  1.0 -0.0025094258
O  O1  1  0.21542000  0.83245000  0.27945000  1.0 -0.5518048521
O  O2  1  0.78458000  0.16755000  0.27945000  1.0 -0.5518048521
O  O3  1  0.21542000  0.16755000  0.72055000  1.0 -0.5518048521
O  O4  1  0.78458000  0.83245000  0.72055000  1.0 -0.5518048521
O  O5  1  0.27945000  0.21542000  0.83245000  1.0 -0.5518048521
O  O6  1  0.83245000  0.27945000  0.21542000  1.0 -0.5518048521
O  O7  1  0.72055000  0.78458000  0.83245000  1.0 -0.5518048521
O  O8  1  0.16755000  0.27945000  0.78458000  1.0 -0.5518048521
O  O9  1  0.27945000  0.78458000  0.16755000  1.0 -0.5518048521
O  O10  1  0.16755000  0.72055000  0.21542000  1.0 -0.5518048521
O  O11  1  0.72055000  0.21542000  0.16755000  1.0 -0.5518048521
O  O12  1  0.83245000  0.72055000  0.78458000  1.0 -0.5518048521
O  O13  1  0.28458000  0.66755000  0.22055000  1.0 -0.5518048521
O  O14  1  0.71542000  0.33245000  0.22055000  1.0 -0.5518048521
O  O15  1  0.28458000  0.33245000  0.77945000  1.0 -0.5518048521
O  O16  1  0.71542000  0.66755000  0.77945000  1.0 -0.5518048521
O  O17  1  0.22055000  0.28458000  0.66755000  1.0 -0.5518048521
O  O18  1  0.66755000  0.22055000  0.28458000  1.0 -0.5518048521
O  O19  1  0.77945000  0.71542000  0.66755000  1.0 -0.5518048521
O  O20  1  0.33245000  0.22055000  0.71542000  1.0 -0.5518048521
O  O21  1  0.22055000  0.71542000  0.33245000  1.0 -0.5518048521
O  O22  1  0.33245000  0.77945000  0.28458000  1.0 -0.5518048521
O  O23  1  0.77945000  0.28458000  0.33245000  1.0 -0.5518048521
O  O24  1  0.66755000  0.77945000  0.71542000  1.0 -0.5518048521
O  O25  1  0.19076000  0.90230000  0.21124000  1.0 -0.5652049299
O  O26  1  0.80924000  0.09770000  0.21124000  1.0 -0.5652049299
O  O27  1  0.19076000  0.09770000  0.78876000  1.0 -0.5652049299
O  O28  1  0.80924000  0.90230000  0.78876000  1.0 -0.5652049299
O  O29  1  0.21124000  0.19076000  0.90230000  1.0 -0.5652049299
O  O30  1  0.90230000  0.21124000  0.19076000  1.0 -0.5652049299
O  O31  1  0.78876000  0.80924000  0.90230000  1.0 -0.5652049299
O  O32  1  0.09770000  0.21124000  0.80924000  1.0 -0.5652049299
O  O33  1  0.21124000  0.80924000  0.09770000  1.0 -0.5652049299
O  O34  1  0.09770000  0.78876000  0.19076000  1.0 -0.5652049299
O  O35  1  0.78876000  0.19076000  0.09770000  1.0 -0.5652049299
O  O36  1  0.90230000  0.78876000  0.80924000  1.0 -0.5652049299
O  O37  1  0.30924000  0.59770000  0.28876000  1.0 -0.5652049299
O  O38  1  0.69076000  0.40230000  0.28876000  1.0 -0.5652049299
O  O39  1  0.30924000  0.40230000  0.71124000  1.0 -0.5652049299
O  O40  1  0.69076000  0.59770000  0.71124000  1.0 -0.5652049299
O  O41  1  0.28876000  0.30924000  0.59770000  1.0 -0.5652049299
O  O42  1  0.59770000  0.28876000  0.30924000  1.0 -0.5652049299
O  O43  1  0.71124000  0.69076000  0.59770000  1.0 -0.5652049299
O  O44  1  0.40230000  0.28876000  0.69076000  1.0 -0.5652049299
O  O45  1  0.28876000  0.69076000  0.40230000  1.0 -0.5652049299
O  O46  1  0.40230000  0.71124000  0.30924000  1.0 -0.5652049299
O  O47  1  0.71124000  0.30924000  0.40230000  1.0 -0.5652049299
O  O48  1  0.59770000  0.71124000  0.69076000  1.0 -0.5652049299
O  O49  1  0.24860000  0.09660000  0.29622000  1.0 -0.1875071194
O  O50  1  0.75140000  0.90340000  0.29622000  1.0 -0.1875071194
O  O51  1  0.24860000  0.90340000  0.70378000  1.0 -0.1875071194
O  O52  1  0.75140000  0.09660000  0.70378000  1.0 -0.1875071194
O  O53  1  0.29622000  0.24860000  0.09660000  1.0 -0.1875071194
O  O54  1  0.09660000  0.29622000  0.24860000  1.0 -0.1875071194
O  O55  1  0.70378000  0.75140000  0.09660000  1.0 -0.1875071194
O  O56  1  0.90340000  0.29622000  0.75140000  1.0 -0.1875071194
O  O57  1  0.29622000  0.75140000  0.90340000  1.0 -0.1875071194
O  O58  1  0.90340000  0.70378000  0.24860000  1.0 -0.1875071194
O  O59  1  0.70378000  0.24860000  0.90340000  1.0 -0.1875071194
O  O60  1  0.09660000  0.70378000  0.75140000  1.0 -0.1875071194
O  O61  1  0.25140000  0.40340000  0.20378000  1.0 -0.1875071194
O  O62  1  0.74860000  0.59660000  0.20378000  1.0 -0.1875071194
O  O63  1  0.25140000  0.59660000  0.79622000  1.0 -0.1875071194
O  O64  1  0.74860000  0.40340000  0.79622000  1.0 -0.1875071194
O  O65  1  0.20378000  0.25140000  0.40340000  1.0 -0.1875071194
O  O66  1  0.40340000  0.20378000  0.25140000  1.0 -0.1875071194
O  O67  1  0.79622000  0.74860000  0.40340000  1.0 -0.1875071194
O  O68  1  0.59660000  0.20378000  0.74860000  1.0 -0.1875071194
O  O69  1  0.20378000  0.74860000  0.59660000  1.0 -0.1875071194
O  O70  1  0.59660000  0.79622000  0.25140000  1.0 -0.1875071194
O  O71  1  0.79622000  0.25140000  0.59660000  1.0 -0.1875071194
O  O72  1  0.40340000  0.79622000  0.74860000  1.0 -0.1875071194
