# DDEC6 charges by PACMAN v1.1 (https://github.com/mtap-research/PACMAN-charge/)
data_ADUWON_ASR_pacman
_symmetry_space_group_name_H-M   'P 1'
_cell_length_a   25.99290000
_cell_length_b   25.99290000
_cell_length_c   25.99290000
_cell_angle_alpha   109.47100000
_cell_angle_beta   109.47100000
_cell_angle_gamma   109.47100000
_symmetry_Int_Tables_number   1
_chemical_formula_structural   NiH24(C3O)12
_chemical_formula_sum   'Ni6 H144 C216 O72'
_cell_volume   13519.04036552
_cell_formula_units_Z   6
loop_
 _symmetry_equiv_pos_site_id
 _symmetry_equiv_pos_as_xyz
  1  'x, y, z'
loop_
 _atom_site_type_symbol
 _atom_site_label
 _atom_site_symmetry_multiplicity
 _atom_site_fract_x
 _atom_site_fract_y
 _atom_site_fract_z
 _atom_site_occupancy
 _atom_site_charge
Ni  Ni1  1  0.37657000  0.37657000  0.00000000  1.0 0.950322185
Ni  Ni2  1  0.62343000  0.62343000  0.00000000  1.0 0.950322185
Ni  Ni3  1  0.00000000  0.37657000  0.37657000  1.0 0.950322185
Ni  Ni4  1  0.37657000  0.00000000  0.37657000  1.0 0.950322185
Ni  Ni5  1  0.00000000  0.62343000  0.62343000  1.0 0.950322185
Ni  Ni6  1  0.62343000  0.00000000  0.62343000  1.0 0.950322185
H  H1  1  0.52570000  0.52570000  0.18760000  1.0 0.1368650797
H  H2  1  0.33810000  0.33810000  0.81240000  1.0 0.1368650797
H  H3  1  0.47430000  0.66190000  0.00000000  1.0 0.1368650797
H  H4  1  0.66190000  0.47430000  0.00000000  1.0 0.1368650797
H  H5  1  0.18760000  0.52570000  0.52570000  1.0 0.1368650797
H  H6  1  0.52570000  0.18760000  0.52570000  1.0 0.1368650797
H  H7  1  0.00000000  0.66190000  0.47430000  1.0 0.1368650797
H  H8  1  0.33810000  0.81240000  0.33810000  1.0 0.1368650797
H  H9  1  0.81240000  0.33810000  0.33810000  1.0 0.1368650797
H  H10  1  0.66190000  0.00000000  0.47430000  1.0 0.1368650797
H  H11  1  0.00000000  0.47430000  0.66190000  1.0 0.1368650797
H  H12  1  0.47430000  0.00000000  0.66190000  1.0 0.1368650797
H  H13  1  0.47430000  0.47430000  0.81240000  1.0 0.1368650797
H  H14  1  0.66190000  0.66190000  0.18760000  1.0 0.1368650797
H  H15  1  0.33810000  0.52570000  0.00000000  1.0 0.1368650797
H  H16  1  0.52570000  0.33810000  0.00000000  1.0 0.1368650797
H  H17  1  0.47430000  0.81240000  0.47430000  1.0 0.1368650797
H  H18  1  0.81240000  0.47430000  0.47430000  1.0 0.1368650797
H  H19  1  0.33810000  0.00000000  0.52570000  1.0 0.1368650797
H  H20  1  0.18760000  0.66190000  0.66190000  1.0 0.1368650797
H  H21  1  0.66190000  0.18760000  0.66190000  1.0 0.1368650797
H  H22  1  0.00000000  0.33810000  0.52570000  1.0 0.1368650797
H  H23  1  0.52570000  0.00000000  0.33810000  1.0 0.1368650797
H  H24  1  0.00000000  0.52570000  0.33810000  1.0 0.1368650797
H  H25  1  0.59580000  0.59580000  0.28200000  1.0 0.1202915323
H  H26  1  0.31380000  0.31380000  0.71800000  1.0 0.1202915323
H  H27  1  0.40420000  0.68620000  0.00000000  1.0 0.1202915323
H  H28  1  0.68620000  0.40420000  0.00000000  1.0 0.1202915323
H  H29  1  0.28200000  0.59580000  0.59580000  1.0 0.1202915323
H  H30  1  0.59580000  0.28200000  0.59580000  1.0 0.1202915323
H  H31  1  0.00000000  0.68620000  0.40420000  1.0 0.1202915323
H  H32  1  0.31380000  0.71800000  0.31380000  1.0 0.1202915323
H  H33  1  0.71800000  0.31380000  0.31380000  1.0 0.1202915323
H  H34  1  0.68620000  0.00000000  0.40420000  1.0 0.1202915323
H  H35  1  0.00000000  0.40420000  0.68620000  1.0 0.1202915323
H  H36  1  0.40420000  0.00000000  0.68620000  1.0 0.1202915323
H  H37  1  0.40420000  0.40420000  0.71800000  1.0 0.1202915323
H  H38  1  0.68620000  0.68620000  0.28200000  1.0 0.1202915323
H  H39  1  0.31380000  0.59580000  0.00000000  1.0 0.1202915323
H  H40  1  0.59580000  0.31380000  0.00000000  1.0 0.1202915323
H  H41  1  0.40420000  0.71800000  0.40420000  1.0 0.1202915323
H  H42  1  0.71800000  0.40420000  0.40420000  1.0 0.1202915323
H  H43  1  0.31380000  0.00000000  0.59580000  1.0 0.1202915323
H  H44  1  0.28200000  0.68620000  0.68620000  1.0 0.1202915323
H  H45  1  0.68620000  0.28200000  0.68620000  1.0 0.1202915323
H  H46  1  0.00000000  0.31380000  0.59580000  1.0 0.1202915323
H  H47  1  0.59580000  0.00000000  0.31380000  1.0 0.1202915323
H  H48  1  0.00000000  0.59580000  0.31380000  1.0 0.1202915323
H  H49  1  0.59020000  0.59020000  0.36940000  1.0 0.1202915323
H  H50  1  0.22080000  0.22080000  0.63060000  1.0 0.1202915323
H  H51  1  0.40980000  0.77920000  0.00000000  1.0 0.1202915323
H  H52  1  0.77920000  0.40980000  0.00000000  1.0 0.125088507
H  H53  1  0.36940000  0.59020000  0.59020000  1.0 0.1202915323
H  H54  1  0.59020000  0.36940000  0.59020000  1.0 0.1202915323
H  H55  1  0.00000000  0.77920000  0.40980000  1.0 0.1202915323
H  H56  1  0.22080000  0.63060000  0.22080000  1.0 0.1202915323
H  H57  1  0.63060000  0.22080000  0.22080000  1.0 0.1202915323
H  H58  1  0.77920000  0.00000000  0.40980000  1.0 0.125088507
H  H59  1  0.00000000  0.40980000  0.77920000  1.0 0.1202915323
H  H60  1  0.40980000  0.00000000  0.77920000  1.0 0.1202915323
H  H61  1  0.40980000  0.40980000  0.63060000  1.0 0.1202915323
H  H62  1  0.77920000  0.77920000  0.36940000  1.0 0.1202915323
H  H63  1  0.22080000  0.59020000  0.00000000  1.0 0.1202915323
H  H64  1  0.59020000  0.22080000  0.00000000  1.0 0.1202915323
H  H65  1  0.40980000  0.63060000  0.40980000  1.0 0.1202915323
H  H66  1  0.63060000  0.40980000  0.40980000  1.0 0.1202915323
H  H67  1  0.22080000  0.00000000  0.59020000  1.0 0.1202915323
H  H68  1  0.36940000  0.77920000  0.77920000  1.0 0.1202915323
H  H69  1  0.77920000  0.36940000  0.77920000  1.0 0.1202915323
H  H70  1  0.00000000  0.22080000  0.59020000  1.0 0.1202915323
H  H71  1  0.59020000  0.00000000  0.22080000  1.0 0.1202915323
H  H72  1  0.00000000  0.59020000  0.22080000  1.0 0.1202915323
H  H73  1  0.42520000  0.42520000  0.24020000  1.0 0.1535153106
H  H74  1  0.18500000  0.18500000  0.75980000  1.0 0.1535153106
H  H75  1  0.57480000  0.81500000  0.00000000  1.0 0.1535153106
H  H76  1  0.81500000  0.57480000  0.00000000  1.0 0.1535153106
H  H77  1  0.24020000  0.42520000  0.42520000  1.0 0.1535153106
H  H78  1  0.42520000  0.24020000  0.42520000  1.0 0.1535153106
H  H79  1  0.00000000  0.81500000  0.57480000  1.0 0.1535153106
H  H80  1  0.18500000  0.75980000  0.18500000  1.0 0.1535153106
H  H81  1  0.75980000  0.18500000  0.18500000  1.0 0.1535153106
H  H82  1  0.81500000  0.00000000  0.57480000  1.0 0.1535153106
H  H83  1  0.00000000  0.57480000  0.81500000  1.0 0.1535153106
H  H84  1  0.57480000  0.00000000  0.81500000  1.0 0.1535153106
H  H85  1  0.57480000  0.57480000  0.75980000  1.0 0.1535153106
H  H86  1  0.81500000  0.81500000  0.24020000  1.0 0.1535153106
H  H87  1  0.18500000  0.42520000  0.00000000  1.0 0.1535153106
H  H88  1  0.42520000  0.18500000  0.00000000  1.0 0.1535153106
H  H89  1  0.57480000  0.75980000  0.57480000  1.0 0.1535153106
H  H90  1  0.75980000  0.57480000  0.57480000  1.0 0.1535153106
H  H91  1  0.18500000  0.00000000  0.42520000  1.0 0.1535153106
H  H92  1  0.24020000  0.81500000  0.81500000  1.0 0.1535153106
H  H93  1  0.81500000  0.24020000  0.81500000  1.0 0.1535153106
H  H94  1  0.00000000  0.18500000  0.42520000  1.0 0.1535153106
H  H95  1  0.42520000  0.00000000  0.18500000  1.0 0.1535153106
H  H96  1  0.00000000  0.42520000  0.18500000  1.0 0.1535153106
H  H97  1  0.54730000  0.58440000  0.43350000  1.0 0.1087876778
H  H98  1  0.15090000  0.11380000  0.56650000  1.0 0.1087876778
H  H99  1  0.45270000  0.88620000  0.03710000  1.0 0.1087876778
H  H100  1  0.84910000  0.41560000  0.96290000  1.0 0.1087876778
H  H101  1  0.43350000  0.54730000  0.58440000  1.0 0.1087876778
H  H102  1  0.58440000  0.43350000  0.54730000  1.0 0.1087876778
H  H103  1  0.96290000  0.84910000  0.41560000  1.0 0.1087876778
H  H104  1  0.11380000  0.56650000  0.15090000  1.0 0.1087876778
H  H105  1  0.56650000  0.15090000  0.11380000  1.0 0.1087876778
H  H106  1  0.88620000  0.03710000  0.45270000  1.0 0.1087876778
H  H107  1  0.03710000  0.45270000  0.88620000  1.0 0.1087876778
H  H108  1  0.41560000  0.96290000  0.84910000  1.0 0.1087876778
H  H109  1  0.41560000  0.45270000  0.56650000  1.0 0.1087876778
H  H110  1  0.88620000  0.84910000  0.43350000  1.0 0.1087876778
H  H111  1  0.11380000  0.54730000  0.96290000  1.0 0.1087876778
H  H112  1  0.58440000  0.15090000  0.03710000  1.0 0.1087876778
H  H113  1  0.45270000  0.56650000  0.41560000  1.0 0.1087876778
H  H114  1  0.56650000  0.41560000  0.45270000  1.0 0.1087876778
H  H115  1  0.15090000  0.03710000  0.58440000  1.0 0.1087876778
H  H116  1  0.43350000  0.88620000  0.84910000  1.0 0.1087876778
H  H117  1  0.84910000  0.43350000  0.88620000  1.0 0.1087876778
H  H118  1  0.96290000  0.11380000  0.54730000  1.0 0.1087876778
H  H119  1  0.54730000  0.96290000  0.11380000  1.0 0.1087876778
H  H120  1  0.03710000  0.58440000  0.15090000  1.0 0.1087876778
H  H121  1  0.45270000  0.41560000  0.56650000  1.0 0.1087876778
H  H122  1  0.84910000  0.88620000  0.43350000  1.0 0.1087876778
H  H123  1  0.54730000  0.11380000  0.96290000  1.0 0.1087876778
H  H124  1  0.15090000  0.58440000  0.03710000  1.0 0.1087876778
H  H125  1  0.56650000  0.45270000  0.41560000  1.0 0.1087876778
H  H126  1  0.41560000  0.56650000  0.45270000  1.0 0.1087876778
H  H127  1  0.03710000  0.15090000  0.58440000  1.0 0.1087876778
H  H128  1  0.88620000  0.43350000  0.84910000  1.0 0.1087876778
H  H129  1  0.43350000  0.84910000  0.88620000  1.0 0.1087876778
H  H130  1  0.11380000  0.96290000  0.54730000  1.0 0.1087876778
H  H131  1  0.96290000  0.54730000  0.11380000  1.0 0.1087876778
H  H132  1  0.58440000  0.03710000  0.15090000  1.0 0.1087876778
H  H133  1  0.58440000  0.54730000  0.43350000  1.0 0.1087876778
H  H134  1  0.11380000  0.15090000  0.56650000  1.0 0.1087876778
H  H135  1  0.88620000  0.45270000  0.03710000  1.0 0.1087876778
H  H136  1  0.41560000  0.84910000  0.96290000  1.0 0.1087876778
H  H137  1  0.54730000  0.43350000  0.58440000  1.0 0.1087876778
H  H138  1  0.43350000  0.58440000  0.54730000  1.0 0.1087876778
H  H139  1  0.84910000  0.96290000  0.41560000  1.0 0.1087876778
H  H140  1  0.56650000  0.11380000  0.15090000  1.0 0.1087876778
H  H141  1  0.15090000  0.56650000  0.11380000  1.0 0.1087876778
H  H142  1  0.03710000  0.88620000  0.45270000  1.0 0.1087876778
H  H143  1  0.45270000  0.03710000  0.88620000  1.0 0.1087876778
H  H144  1  0.96290000  0.41560000  0.84910000  1.0 0.1087876778
C  C1  1  0.41973000  0.41973000  0.13586000  1.0 0.5699205389
C  C2  1  0.28387000  0.28387000  0.86414000  1.0 0.5699205389
C  C3  1  0.58027000  0.71613000  0.00000000  1.0 0.5699205389
C  C4  1  0.71613000  0.58027000  0.00000000  1.0 0.5699205389
C  C5  1  0.13586000  0.41973000  0.41973000  1.0 0.5699205389
C  C6  1  0.41973000  0.13586000  0.41973000  1.0 0.5699205389
C  C7  1  0.00000000  0.71613000  0.58027000  1.0 0.5699205389
C  C8  1  0.28387000  0.86414000  0.28387000  1.0 0.5699205389
C  C9  1  0.86414000  0.28387000  0.28387000  1.0 0.5699205389
C  C10  1  0.71613000  0.00000000  0.58027000  1.0 0.5699205389
C  C11  1  0.00000000  0.58027000  0.71613000  1.0 0.5699205389
C  C12  1  0.58027000  0.00000000  0.71613000  1.0 0.5699205389
C  C13  1  0.58027000  0.58027000  0.86414000  1.0 0.5699205389
C  C14  1  0.71613000  0.71613000  0.13586000  1.0 0.5699205389
C  C15  1  0.28387000  0.41973000  0.00000000  1.0 0.5699205389
C  C16  1  0.41973000  0.28387000  0.00000000  1.0 0.5699205389
C  C17  1  0.58027000  0.86414000  0.58027000  1.0 0.5699205389
C  C18  1  0.86414000  0.58027000  0.58027000  1.0 0.5699205389
C  C19  1  0.28387000  0.00000000  0.41973000  1.0 0.5699205389
C  C20  1  0.13586000  0.71613000  0.71613000  1.0 0.5699205389
C  C21  1  0.71613000  0.13586000  0.71613000  1.0 0.5699205389
C  C22  1  0.00000000  0.28387000  0.41973000  1.0 0.5699205389
C  C23  1  0.41973000  0.00000000  0.28387000  1.0 0.5699205389
C  C24  1  0.00000000  0.41973000  0.28387000  1.0 0.5699205389
C  C25  1  0.47051000  0.47051000  0.20382000  1.0 -0.0107712243
C  C26  1  0.26669000  0.26669000  0.79618000  1.0 -0.0107712243
C  C27  1  0.52949000  0.73331000  0.00000000  1.0 -0.0107712243
C  C28  1  0.73331000  0.52949000  0.00000000  1.0 -0.0107712243
C  C29  1  0.20382000  0.47051000  0.47051000  1.0 -0.0107712243
C  C30  1  0.47051000  0.20382000  0.47051000  1.0 -0.0107712243
C  C31  1  0.00000000  0.73331000  0.52949000  1.0 -0.0107712243
C  C32  1  0.26669000  0.79618000  0.26669000  1.0 -0.0107712243
C  C33  1  0.79618000  0.26669000  0.26669000  1.0 -0.0107712243
C  C34  1  0.73331000  0.00000000  0.52949000  1.0 -0.0107712243
C  C35  1  0.00000000  0.52949000  0.73331000  1.0 -0.0107712243
C  C36  1  0.52949000  0.00000000  0.73331000  1.0 -0.0107712243
C  C37  1  0.52949000  0.52949000  0.79618000  1.0 -0.0107712243
C  C38  1  0.73331000  0.73331000  0.20382000  1.0 -0.0107712243
C  C39  1  0.26669000  0.47051000  0.00000000  1.0 -0.0107712243
C  C40  1  0.47051000  0.26669000  0.00000000  1.0 -0.0107712243
C  C41  1  0.52949000  0.79618000  0.52949000  1.0 -0.0107712243
C  C42  1  0.79618000  0.52949000  0.52949000  1.0 -0.0107712243
C  C43  1  0.26669000  0.00000000  0.47051000  1.0 -0.0107712243
C  C44  1  0.20382000  0.73331000  0.73331000  1.0 -0.0107712243
C  C45  1  0.73331000  0.20382000  0.73331000  1.0 -0.0107712243
C  C46  1  0.00000000  0.26669000  0.47051000  1.0 -0.0107712243
C  C47  1  0.47051000  0.00000000  0.26669000  1.0 -0.0107712243
C  C48  1  0.00000000  0.47051000  0.26669000  1.0 -0.0107712243
C  C49  1  0.52070000  0.52070000  0.21980000  1.0 -0.0979098929
C  C50  1  0.30090000  0.30090000  0.78020000  1.0 -0.0979098929
C  C51  1  0.47930000  0.69910000  0.00000000  1.0 -0.0979098929
C  C52  1  0.69910000  0.47930000  0.00000000  1.0 -0.0979098929
C  C53  1  0.21980000  0.52070000  0.52070000  1.0 -0.0979098929
C  C54  1  0.52070000  0.21980000  0.52070000  1.0 -0.0979098929
C  C55  1  0.00000000  0.69910000  0.47930000  1.0 -0.0979098929
C  C56  1  0.30090000  0.78020000  0.30090000  1.0 -0.0979098929
C  C57  1  0.78020000  0.30090000  0.30090000  1.0 -0.0979098929
C  C58  1  0.69910000  0.00000000  0.47930000  1.0 -0.0979098929
C  C59  1  0.00000000  0.47930000  0.69910000  1.0 -0.0979098929
C  C60  1  0.47930000  0.00000000  0.69910000  1.0 -0.0979098929
C  C61  1  0.47930000  0.47930000  0.78020000  1.0 -0.0979098929
C  C62  1  0.69910000  0.69910000  0.21980000  1.0 -0.0979098929
C  C63  1  0.30090000  0.52070000  0.00000000  1.0 -0.0979098929
C  C64  1  0.52070000  0.30090000  0.00000000  1.0 -0.0979098929
C  C65  1  0.47930000  0.78020000  0.47930000  1.0 -0.0979098929
C  C66  1  0.78020000  0.47930000  0.47930000  1.0 -0.0979098929
C  C67  1  0.30090000  0.00000000  0.52070000  1.0 -0.0979098929
C  C68  1  0.21980000  0.69910000  0.69910000  1.0 -0.0979098929
C  C69  1  0.69910000  0.21980000  0.69910000  1.0 -0.0979098929
C  C70  1  0.00000000  0.30090000  0.52070000  1.0 -0.0979098929
C  C71  1  0.52070000  0.00000000  0.30090000  1.0 -0.0979098929
C  C72  1  0.00000000  0.52070000  0.30090000  1.0 -0.0979098929
C  C73  1  0.56160000  0.56160000  0.27480000  1.0 -0.0820768314
C  C74  1  0.28680000  0.28680000  0.72520000  1.0 -0.0820768314
C  C75  1  0.43840000  0.71320000  0.00000000  1.0 -0.0820768314
C  C76  1  0.71320000  0.43840000  0.00000000  1.0 -0.0820768314
C  C77  1  0.27480000  0.56160000  0.56160000  1.0 -0.0820768314
C  C78  1  0.56160000  0.27480000  0.56160000  1.0 -0.0820768314
C  C79  1  0.00000000  0.71320000  0.43840000  1.0 -0.0820768314
C  C80  1  0.28680000  0.72520000  0.28680000  1.0 -0.0820768314
C  C81  1  0.72520000  0.28680000  0.28680000  1.0 -0.0820768314
C  C82  1  0.71320000  0.00000000  0.43840000  1.0 -0.0820768314
C  C83  1  0.00000000  0.43840000  0.71320000  1.0 -0.0820768314
C  C84  1  0.43840000  0.00000000  0.71320000  1.0 -0.0820768314
C  C85  1  0.43840000  0.43840000  0.72520000  1.0 -0.0820768314
C  C86  1  0.71320000  0.71320000  0.27480000  1.0 -0.0820768314
C  C87  1  0.28680000  0.56160000  0.00000000  1.0 -0.0820768314
C  C88  1  0.56160000  0.28680000  0.00000000  1.0 -0.0820768314
C  C89  1  0.43840000  0.72520000  0.43840000  1.0 -0.0820768314
C  C90  1  0.72520000  0.43840000  0.43840000  1.0 -0.0820768314
C  C91  1  0.28680000  0.00000000  0.56160000  1.0 -0.0820768314
C  C92  1  0.27480000  0.71320000  0.71320000  1.0 -0.0820768314
C  C93  1  0.71320000  0.27480000  0.71320000  1.0 -0.0820768314
C  C94  1  0.00000000  0.28680000  0.56160000  1.0 -0.0820768314
C  C95  1  0.56160000  0.00000000  0.28680000  1.0 -0.0820768314
C  C96  1  0.00000000  0.56160000  0.28680000  1.0 -0.0820768314
C  C97  1  0.55910000  0.55910000  0.32820000  1.0 -0.2515385831
C  C98  1  0.23090000  0.23090000  0.67180000  1.0 -0.2515385831
C  C99  1  0.44090000  0.76910000  0.00000000  1.0 -0.2515385831
C  C100  1  0.76910000  0.44090000  0.00000000  1.0 -0.2515385831
C  C101  1  0.32820000  0.55910000  0.55910000  1.0 -0.2515385831
C  C102  1  0.55910000  0.32820000  0.55910000  1.0 -0.2515385831
C  C103  1  0.00000000  0.76910000  0.44090000  1.0 -0.2515385831
C  C104  1  0.23090000  0.67180000  0.23090000  1.0 -0.2515385831
C  C105  1  0.67180000  0.23090000  0.23090000  1.0 -0.2515385831
C  C106  1  0.76910000  0.00000000  0.44090000  1.0 -0.2515385831
C  C107  1  0.00000000  0.44090000  0.76910000  1.0 -0.2515385831
C  C108  1  0.44090000  0.00000000  0.76910000  1.0 -0.2515385831
C  C109  1  0.44090000  0.44090000  0.67180000  1.0 -0.2515385831
C  C110  1  0.76910000  0.76910000  0.32820000  1.0 -0.2515385831
C  C111  1  0.23090000  0.55910000  0.00000000  1.0 -0.2515385831
C  C112  1  0.55910000  0.23090000  0.00000000  1.0 -0.2515385831
C  C113  1  0.44090000  0.67180000  0.44090000  1.0 -0.2515385831
C  C114  1  0.67180000  0.44090000  0.44090000  1.0 -0.2515385831
C  C115  1  0.23090000  0.00000000  0.55910000  1.0 -0.2515385831
C  C116  1  0.32820000  0.76910000  0.76910000  1.0 -0.2515385831
C  C117  1  0.76910000  0.32820000  0.76910000  1.0 -0.2515385831
C  C118  1  0.00000000  0.23090000  0.55910000  1.0 -0.2515385831
C  C119  1  0.55910000  0.00000000  0.23090000  1.0 -0.2515385831
C  C120  1  0.00000000  0.55910000  0.23090000  1.0 -0.2515385831
C  C121  1  0.50721000  0.50721000  0.31422000  1.0 0.2801434785
C  C122  1  0.19299000  0.19299000  0.68578000  1.0 0.2801434785
C  C123  1  0.49279000  0.80701000  0.00000000  1.0 0.2801434785
C  C124  1  0.80701000  0.49279000  0.00000000  1.0 0.2801434785
C  C125  1  0.31422000  0.50721000  0.50721000  1.0 0.2801434785
C  C126  1  0.50721000  0.31422000  0.50721000  1.0 0.2801434785
C  C127  1  0.00000000  0.80701000  0.49279000  1.0 0.2801434785
C  C128  1  0.19299000  0.68578000  0.19299000  1.0 0.2801434785
C  C129  1  0.68578000  0.19299000  0.19299000  1.0 0.2801434785
C  C130  1  0.80701000  0.00000000  0.49279000  1.0 0.2801434785
C  C131  1  0.00000000  0.49279000  0.80701000  1.0 0.2801434785
C  C132  1  0.49279000  0.00000000  0.80701000  1.0 0.2801434785
C  C133  1  0.49279000  0.49279000  0.68578000  1.0 0.2801434785
C  C134  1  0.80701000  0.80701000  0.31422000  1.0 0.2801434785
C  C135  1  0.19299000  0.50721000  0.00000000  1.0 0.2801434785
C  C136  1  0.50721000  0.19299000  0.00000000  1.0 0.2801434785
C  C137  1  0.49279000  0.68578000  0.49279000  1.0 0.2801434785
C  C138  1  0.68578000  0.49279000  0.49279000  1.0 0.2801434785
C  C139  1  0.19299000  0.00000000  0.50721000  1.0 0.2801434785
C  C140  1  0.31422000  0.80701000  0.80701000  1.0 0.2801434785
C  C141  1  0.80701000  0.31422000  0.80701000  1.0 0.2801434785
C  C142  1  0.00000000  0.19299000  0.50721000  1.0 0.2801434785
C  C143  1  0.50721000  0.00000000  0.19299000  1.0 0.2801434785
C  C144  1  0.00000000  0.50721000  0.19299000  1.0 0.2801434785
C  C145  1  0.46044000  0.46044000  0.25048000  1.0 -0.2247115708
C  C146  1  0.20996000  0.20996000  0.74952000  1.0 -0.2247115708
C  C147  1  0.53956000  0.79004000  0.00000000  1.0 -0.2247115708
C  C148  1  0.79004000  0.53956000  0.00000000  1.0 -0.2247115708
C  C149  1  0.25048000  0.46044000  0.46044000  1.0 -0.2247115708
C  C150  1  0.46044000  0.25048000  0.46044000  1.0 -0.2247115708
C  C151  1  0.00000000  0.79004000  0.53956000  1.0 -0.2256433725
C  C152  1  0.20996000  0.74952000  0.20996000  1.0 -0.2256433725
C  C153  1  0.74952000  0.20996000  0.20996000  1.0 -0.2247115708
C  C154  1  0.79004000  0.00000000  0.53956000  1.0 -0.2247115708
C  C155  1  0.00000000  0.53956000  0.79004000  1.0 -0.2247115708
C  C156  1  0.53956000  0.00000000  0.79004000  1.0 -0.2247115708
C  C157  1  0.53956000  0.53956000  0.74952000  1.0 -0.2247115708
C  C158  1  0.79004000  0.79004000  0.25048000  1.0 -0.2256433725
C  C159  1  0.20996000  0.46044000  0.00000000  1.0 -0.2256433725
C  C160  1  0.46044000  0.20996000  0.00000000  1.0 -0.2247115708
C  C161  1  0.53956000  0.74952000  0.53956000  1.0 -0.2256433725
C  C162  1  0.74952000  0.53956000  0.53956000  1.0 -0.2247115708
C  C163  1  0.20996000  0.00000000  0.46044000  1.0 -0.2247115708
C  C164  1  0.25048000  0.79004000  0.79004000  1.0 -0.2247115708
C  C165  1  0.79004000  0.25048000  0.79004000  1.0 -0.2247115708
C  C166  1  0.00000000  0.20996000  0.46044000  1.0 -0.2247115708
C  C167  1  0.46044000  0.00000000  0.20996000  1.0 -0.2247115708
C  C168  1  0.00000000  0.46044000  0.20996000  1.0 -0.2247115708
C  C169  1  0.54347000  0.54347000  0.42414000  1.0 -0.0899754654
C  C170  1  0.11933000  0.11933000  0.57586000  1.0 -0.0899754654
C  C171  1  0.45653000  0.88067000  0.00000000  1.0 -0.0899754654
C  C172  1  0.88067000  0.45653000  0.00000000  1.0 -0.0899754654
C  C173  1  0.42414000  0.54347000  0.54347000  1.0 -0.0899754654
C  C174  1  0.54347000  0.42414000  0.54347000  1.0 -0.0899754654
C  C175  1  0.00000000  0.88067000  0.45653000  1.0 -0.0899754654
C  C176  1  0.11933000  0.57586000  0.11933000  1.0 -0.0899754654
C  C177  1  0.57586000  0.11933000  0.11933000  1.0 -0.0899754654
C  C178  1  0.88067000  0.00000000  0.45653000  1.0 -0.0899754654
C  C179  1  0.00000000  0.45653000  0.88067000  1.0 -0.0899754654
C  C180  1  0.45653000  0.00000000  0.88067000  1.0 -0.0899754654
C  C181  1  0.45653000  0.45653000  0.57586000  1.0 -0.0899754654
C  C182  1  0.88067000  0.88067000  0.42414000  1.0 -0.0899754654
C  C183  1  0.11933000  0.54347000  0.00000000  1.0 -0.0899754654
C  C184  1  0.54347000  0.11933000  0.00000000  1.0 -0.0899754654
C  C185  1  0.45653000  0.57586000  0.45653000  1.0 -0.0899754654
C  C186  1  0.57586000  0.45653000  0.45653000  1.0 -0.0899754654
C  C187  1  0.11933000  0.00000000  0.54347000  1.0 -0.0899754654
C  C188  1  0.42414000  0.88067000  0.88067000  1.0 -0.0899754654
C  C189  1  0.88067000  0.42414000  0.88067000  1.0 -0.0899754654
C  C190  1  0.00000000  0.11933000  0.54347000  1.0 -0.0899754654
C  C191  1  0.54347000  0.00000000  0.11933000  1.0 -0.0899754654
C  C192  1  0.00000000  0.54347000  0.11933000  1.0 -0.0899754654
C  C193  1  0.52084000  0.52084000  0.46222000  1.0 0.0038564617
C  C194  1  0.05862000  0.05862000  0.53778000  1.0 0.0038564617
C  C195  1  0.47916000  0.94138000  0.00000000  1.0 0.0038564617
C  C196  1  0.94138000  0.47916000  0.00000000  1.0 0.0038564617
C  C197  1  0.46222000  0.52084000  0.52084000  1.0 0.0038564617
C  C198  1  0.52084000  0.46222000  0.52084000  1.0 0.0038564617
C  C199  1  0.00000000  0.94138000  0.47916000  1.0 0.0038564617
C  C200  1  0.05862000  0.53778000  0.05862000  1.0 0.0038564617
C  C201  1  0.53778000  0.05862000  0.05862000  1.0 0.006329619
C  C202  1  0.94138000  0.00000000  0.47916000  1.0 0.0038564617
C  C203  1  0.00000000  0.47916000  0.94138000  1.0 0.0038564617
C  C204  1  0.47916000  0.00000000  0.94138000  1.0 0.0038564617
C  C205  1  0.47916000  0.47916000  0.53778000  1.0 0.0038564617
C  C206  1  0.94138000  0.94138000  0.46222000  1.0 0.0038564617
C  C207  1  0.05862000  0.52084000  0.00000000  1.0 0.0038564617
C  C208  1  0.52084000  0.05862000  0.00000000  1.0 0.0038564617
C  C209  1  0.47916000  0.53778000  0.47916000  1.0 0.0038564617
C  C210  1  0.53778000  0.47916000  0.47916000  1.0 0.0038564617
C  C211  1  0.05862000  0.00000000  0.52084000  1.0 0.0038564617
C  C212  1  0.46222000  0.94138000  0.94138000  1.0 0.0038564617
C  C213  1  0.94138000  0.46222000  0.94138000  1.0 0.0038564617
C  C214  1  0.00000000  0.05862000  0.52084000  1.0 0.0038564617
C  C215  1  0.52084000  0.00000000  0.05862000  1.0 0.0038564617
C  C216  1  0.00000000  0.52084000  0.05862000  1.0 0.0038564617
O  O1  1  0.37479000  0.37479000  0.12780000  1.0 -0.4074848584
O  O2  1  0.24699000  0.24699000  0.87220000  1.0 -0.4074848584
O  O3  1  0.62521000  0.75301000  0.00000000  1.0 -0.4049918115
O  O4  1  0.75301000  0.62521000  0.00000000  1.0 -0.4074848584
O  O5  1  0.12780000  0.37479000  0.37479000  1.0 -0.4074848584
O  O6  1  0.37479000  0.12780000  0.37479000  1.0 -0.4074848584
O  O7  1  0.00000000  0.75301000  0.62521000  1.0 -0.4074848584
O  O8  1  0.24699000  0.87220000  0.24699000  1.0 -0.4074848584
O  O9  1  0.87220000  0.24699000  0.24699000  1.0 -0.4074848584
O  O10  1  0.75301000  0.00000000  0.62521000  1.0 -0.4074848584
O  O11  1  0.00000000  0.62521000  0.75301000  1.0 -0.4074848584
O  O12  1  0.62521000  0.00000000  0.75301000  1.0 -0.4074848584
O  O13  1  0.62521000  0.62521000  0.87220000  1.0 -0.4074848584
O  O14  1  0.75301000  0.75301000  0.12780000  1.0 -0.4074848584
O  O15  1  0.24699000  0.37479000  0.00000000  1.0 -0.4074848584
O  O16  1  0.37479000  0.24699000  0.00000000  1.0 -0.4074848584
O  O17  1  0.62521000  0.87220000  0.62521000  1.0 -0.4074848584
O  O18  1  0.87220000  0.62521000  0.62521000  1.0 -0.4074848584
O  O19  1  0.24699000  0.00000000  0.37479000  1.0 -0.4074848584
O  O20  1  0.12780000  0.75301000  0.75301000  1.0 -0.4074848584
O  O21  1  0.75301000  0.12780000  0.75301000  1.0 -0.4074848584
O  O22  1  0.00000000  0.24699000  0.37479000  1.0 -0.4074848584
O  O23  1  0.37479000  0.00000000  0.24699000  1.0 -0.4049918115
O  O24  1  0.00000000  0.37479000  0.24699000  1.0 -0.4074848584
O  O25  1  0.42750000  0.42750000  0.09496000  1.0 -0.4957000917
O  O26  1  0.33254000  0.33254000  0.90504000  1.0 -0.4957000917
O  O27  1  0.57250000  0.66746000  0.00000000  1.0 -0.4957000917
O  O28  1  0.66746000  0.57250000  0.00000000  1.0 -0.4957000917
O  O29  1  0.09496000  0.42750000  0.42750000  1.0 -0.4957000917
O  O30  1  0.42750000  0.09496000  0.42750000  1.0 -0.4957000917
O  O31  1  0.00000000  0.66746000  0.57250000  1.0 -0.4957000917
O  O32  1  0.33254000  0.90504000  0.33254000  1.0 -0.4957000917
O  O33  1  0.90504000  0.33254000  0.33254000  1.0 -0.4916862904
O  O34  1  0.66746000  0.00000000  0.57250000  1.0 -0.4957000917
O  O35  1  0.00000000  0.57250000  0.66746000  1.0 -0.4957000917
O  O36  1  0.57250000  0.00000000  0.66746000  1.0 -0.4957000917
O  O37  1  0.57250000  0.57250000  0.90504000  1.0 -0.4957000917
O  O38  1  0.66746000  0.66746000  0.09496000  1.0 -0.4957000917
O  O39  1  0.33254000  0.42750000  0.00000000  1.0 -0.4957000917
O  O40  1  0.42750000  0.33254000  0.00000000  1.0 -0.4916862904
O  O41  1  0.57250000  0.90504000  0.57250000  1.0 -0.4957000917
O  O42  1  0.90504000  0.57250000  0.57250000  1.0 -0.4957000917
O  O43  1  0.33254000  0.00000000  0.42750000  1.0 -0.4957000917
O  O44  1  0.09496000  0.66746000  0.66746000  1.0 -0.4957000917
O  O45  1  0.66746000  0.09496000  0.66746000  1.0 -0.4957000917
O  O46  1  0.00000000  0.33254000  0.42750000  1.0 -0.4957000917
O  O47  1  0.42750000  0.00000000  0.33254000  1.0 -0.4957000917
O  O48  1  0.00000000  0.42750000  0.33254000  1.0 -0.4957000917
O  O49  1  0.49693000  0.49693000  0.35836000  1.0 -0.1807222258
O  O50  1  0.13857000  0.13857000  0.64164000  1.0 -0.1807222258
O  O51  1  0.50307000  0.86143000  0.00000000  1.0 -0.1807222258
O  O52  1  0.86143000  0.50307000  0.00000000  1.0 -0.1807222258
O  O53  1  0.35836000  0.49693000  0.49693000  1.0 -0.1807222258
O  O54  1  0.49693000  0.35836000  0.49693000  1.0 -0.1807222258
O  O55  1  0.00000000  0.86143000  0.50307000  1.0 -0.1807222258
O  O56  1  0.13857000  0.64164000  0.13857000  1.0 -0.1807222258
O  O57  1  0.64164000  0.13857000  0.13857000  1.0 -0.1807222258
O  O58  1  0.86143000  0.00000000  0.50307000  1.0 -0.1807222258
O  O59  1  0.00000000  0.50307000  0.86143000  1.0 -0.1807222258
O  O60  1  0.50307000  0.00000000  0.86143000  1.0 -0.1807222258
O  O61  1  0.50307000  0.50307000  0.64164000  1.0 -0.1807222258
O  O62  1  0.86143000  0.86143000  0.35836000  1.0 -0.1807222258
O  O63  1  0.13857000  0.49693000  0.00000000  1.0 -0.1807222258
O  O64  1  0.49693000  0.13857000  0.00000000  1.0 -0.1807222258
O  O65  1  0.50307000  0.64164000  0.50307000  1.0 -0.1807222258
O  O66  1  0.64164000  0.50307000  0.50307000  1.0 -0.1807222258
O  O67  1  0.13857000  0.00000000  0.49693000  1.0 -0.1807222258
O  O68  1  0.35836000  0.86143000  0.86143000  1.0 -0.1807222258
O  O69  1  0.86143000  0.35836000  0.86143000  1.0 -0.1807222258
O  O70  1  0.00000000  0.13857000  0.49693000  1.0 -0.1807222258
O  O71  1  0.49693000  0.00000000  0.13857000  1.0 -0.1807222258
O  O72  1  0.00000000  0.49693000  0.13857000  1.0 -0.1807222258
