# DDEC6 charges by PACMAN v1.1 (https://github.com/mtap-research/PACMAN-charge/)
data_AFIXES_FSR_pacman
_symmetry_space_group_name_H-M   'P 1'
_cell_length_a   24.24600000
_cell_length_b   9.51820000
_cell_length_c   34.30980000
_cell_angle_alpha   90.00000000
_cell_angle_beta   133.99700000
_cell_angle_gamma   90.00000000
_symmetry_Int_Tables_number   1
_chemical_formula_structural   CoH8(C2N)4
_chemical_formula_sum   'Co20 H160 C160 N80'
_cell_volume   5695.98925894
_cell_formula_units_Z   20
loop_
 _symmetry_equiv_pos_site_id
 _symmetry_equiv_pos_as_xyz
  1  'x, y, z'
loop_
 _atom_site_type_symbol
 _atom_site_label
 _atom_site_symmetry_multiplicity
 _atom_site_fract_x
 _atom_site_fract_y
 _atom_site_fract_z
 _atom_site_occupancy
 _atom_site_charge
Co  Co1  1  0.41448000  0.04144000  0.68027000  1.0 0.5512644193
Co  Co2  1  0.58552000  0.54144000  0.81973000  1.0 0.5512644193
Co  Co3  1  0.58552000  0.95856000  0.31973000  1.0 0.5512644193
Co  Co4  1  0.41448000  0.45856000  0.18027000  1.0 0.5512644193
Co  Co5  1  0.35632000  0.67542000  0.51706000  1.0 0.6129340372
Co  Co6  1  0.64368000  0.17542000  0.98294000  1.0 0.6129340372
Co  Co7  1  0.64368000  0.32458000  0.48294000  1.0 0.6129340372
Co  Co8  1  0.35632000  0.82458000  0.01706000  1.0 0.6129340372
Co  Co9  1  0.39190000  0.73115000  0.36150000  1.0 0.5512644193
Co  Co10  1  0.60810000  0.23115000  0.13850000  1.0 0.5573293707
Co  Co11  1  0.60810000  0.26885000  0.63850000  1.0 0.5573293707
Co  Co12  1  0.39190000  0.76885000  0.86150000  1.0 0.5512644193
Co  Co13  1  0.23566000  0.26264000  0.72162000  1.0 0.4610851547
Co  Co14  1  0.76434000  0.76264000  0.77838000  1.0 0.4610851547
Co  Co15  1  0.76434000  0.73736000  0.27838000  1.0 0.4610851547
Co  Co16  1  0.23566000  0.23736000  0.22162000  1.0 0.4610851547
Co  Co17  1  0.03171000  0.53406000  0.31646000  1.0 0.5264423928
Co  Co18  1  0.96829000  0.03406000  0.18354000  1.0 0.53920031
Co  Co19  1  0.96829000  0.46594000  0.68354000  1.0 0.53920031
Co  Co20  1  0.03171000  0.96594000  0.81646000  1.0 0.53920031
H  H1  1  0.33130000  0.07080000  0.71840000  1.0 0.1001083783
H  H2  1  0.66870000  0.57080000  0.78160000  1.0 0.1001083783
H  H3  1  0.66870000  0.92920000  0.28160000  1.0 0.1001083783
H  H4  1  0.33130000  0.42920000  0.21840000  1.0 0.1001083783
H  H5  1  0.45420000  0.33010000  0.73330000  1.0 0.0910288543
H  H6  1  0.54580000  0.83010000  0.76670000  1.0 0.0910288543
H  H7  1  0.54580000  0.66990000  0.26670000  1.0 0.0910288543
H  H8  1  0.45420000  0.16990000  0.23330000  1.0 0.0910288543
H  H9  1  0.60080000  0.07350000  0.76030000  1.0 0.1099329946
H  H10  1  0.39920000  0.57350000  0.73970000  1.0 0.1099329946
H  H11  1  0.39920000  0.92650000  0.23970000  1.0 0.1099329946
H  H12  1  0.60080000  0.42650000  0.26030000  1.0 0.1099329946
H  H13  1  0.67100000  0.27970000  0.81740000  1.0 0.1180243329
H  H14  1  0.32900000  0.77970000  0.68260000  1.0 0.1180243329
H  H15  1  0.32900000  0.72030000  0.18260000  1.0 0.1180243329
H  H16  1  0.67100000  0.22030000  0.31740000  1.0 0.1180243329
H  H17  1  0.39900000  0.78640000  0.61990000  1.0 0.1001083783
H  H18  1  0.60100000  0.28640000  0.88010000  1.0 0.1001083783
H  H19  1  0.60100000  0.21360000  0.38010000  1.0 0.1001083783
H  H20  1  0.39900000  0.71360000  0.11990000  1.0 0.1001083783
H  H21  1  0.35830000  0.16850000  0.56810000  1.0 0.1001083783
H  H22  1  0.64170000  0.66850000  0.93190000  1.0 0.1001083783
H  H23  1  0.64170000  0.83150000  0.43190000  1.0 0.1001083783
H  H24  1  0.35830000  0.33150000  0.06810000  1.0 0.1001083783
H  H25  1  0.32870000  0.01290000  0.49940000  1.0 0.1099329946
H  H26  1  0.67130000  0.51290000  0.00060000  1.0 0.1180243329
H  H27  1  0.67130000  0.98710000  0.50060000  1.0 0.1099329946
H  H28  1  0.32870000  0.48710000  0.99940000  1.0 0.1099329946
H  H29  1  0.32380000  0.64620000  0.41040000  1.0 0.0910288543
H  H30  1  0.67620000  0.14620000  0.08960000  1.0 0.0910288543
H  H31  1  0.67620000  0.35380000  0.58960000  1.0 0.0910288543
H  H32  1  0.32380000  0.85380000  0.91040000  1.0 0.0910288543
H  H33  1  0.49100000  0.83820000  0.54170000  1.0 0.1099329946
H  H34  1  0.50900000  0.33820000  0.95830000  1.0 0.1099329946
H  H35  1  0.50900000  0.16180000  0.45830000  1.0 0.1099329946
H  H36  1  0.49100000  0.66180000  0.04170000  1.0 0.1099329946
H  H37  1  0.50920000  0.85780000  0.48120000  1.0 0.1099329946
H  H38  1  0.49080000  0.35780000  0.01880000  1.0 0.1099329946
H  H39  1  0.49080000  0.14220000  0.51880000  1.0 0.1099329946
H  H40  1  0.50920000  0.64220000  0.98120000  1.0 0.1099329946
H  H41  1  0.47950000  0.47390000  0.55120000  1.0 0.1001083783
H  H42  1  0.52050000  0.97390000  0.94880000  1.0 0.1001083783
H  H43  1  0.52050000  0.52610000  0.44880000  1.0 0.1001083783
H  H44  1  0.47950000  0.02610000  0.05120000  1.0 0.1001083783
H  H45  1  0.41780000  0.51900000  0.62930000  1.0 0.1099329946
H  H46  1  0.58220000  0.01900000  0.87070000  1.0 0.1099329946
H  H47  1  0.58220000  0.48100000  0.37070000  1.0 0.1099329946
H  H48  1  0.41780000  0.98100000  0.12930000  1.0 0.1099329946
H  H49  1  0.51750000  0.34150000  0.67580000  1.0 0.1099329946
H  H50  1  0.48250000  0.84150000  0.82420000  1.0 0.1099329946
H  H51  1  0.48250000  0.65850000  0.32420000  1.0 0.1099329946
H  H52  1  0.51750000  0.15850000  0.17580000  1.0 0.1099329946
H  H53  1  0.26490000  0.56210000  0.76940000  1.0 0.0910288543
H  H54  1  0.73510000  0.06210000  0.73060000  1.0 0.0910288543
H  H55  1  0.73510000  0.43790000  0.23060000  1.0 0.0910288543
H  H56  1  0.26490000  0.93790000  0.26940000  1.0 0.0910288543
H  H57  1  0.41970000  0.29140000  0.81910000  1.0 0.1099329946
H  H58  1  0.58030000  0.79140000  0.68090000  1.0 0.1099329946
H  H59  1  0.58030000  0.70860000  0.18090000  1.0 0.1099329946
H  H60  1  0.41970000  0.20860000  0.31910000  1.0 0.1099329946
H  H61  1  0.48430000  0.49770000  0.87490000  1.0 0.1099329946
H  H62  1  0.51570000  0.99770000  0.62510000  1.0 0.1099329946
H  H63  1  0.51570000  0.50230000  0.12510000  1.0 0.1099329946
H  H64  1  0.48430000  0.00230000  0.37490000  1.0 0.1099329946
H  H65  1  0.35850000  0.05790000  0.81440000  1.0 0.1099329946
H  H66  1  0.64150000  0.55790000  0.68560000  1.0 0.1099329946
H  H67  1  0.64150000  0.94210000  0.18560000  1.0 0.1099329946
H  H68  1  0.35850000  0.44210000  0.31440000  1.0 0.1099329946
H  H69  1  0.18560000  0.69950000  0.40070000  1.0 0.1001083783
H  H70  1  0.81440000  0.19950000  0.09930000  1.0 0.1001083783
H  H71  1  0.81440000  0.30050000  0.59930000  1.0 0.1001083783
H  H72  1  0.18560000  0.80050000  0.90070000  1.0 0.1001083783
H  H73  1  0.13460000  0.36100000  0.74200000  1.0 0.1099329946
H  H74  1  0.86540000  0.86100000  0.75800000  1.0 0.1099329946
H  H75  1  0.86540000  0.63900000  0.25800000  1.0 0.1099329946
H  H76  1  0.13460000  0.13900000  0.24200000  1.0 0.1099329946
H  H77  1  0.03240000  0.32810000  0.24420000  1.0 0.1001083783
H  H78  1  0.96760000  0.82810000  0.25580000  1.0 0.1001083783
H  H79  1  0.96760000  0.67190000  0.75580000  1.0 0.1001083783
H  H80  1  0.03240000  0.17190000  0.74420000  1.0 0.1001083783
H  H81  1  0.30700000  0.31400000  0.61730000  1.0 0.0589792943
H  H82  1  0.69300000  0.81400000  0.88270000  1.0 0.0589792943
H  H83  1  0.69300000  0.68600000  0.38270000  1.0 0.0589792943
H  H84  1  0.30700000  0.18600000  0.11730000  1.0 0.0589792943
H  H85  1  0.22380000  0.40180000  0.62820000  1.0 0.0589792943
H  H86  1  0.77620000  0.90180000  0.87180000  1.0 0.0589792943
H  H87  1  0.77620000  0.59820000  0.37180000  1.0 0.0589792943
H  H88  1  0.22380000  0.09820000  0.12820000  1.0 0.0589792943
H  H89  1  0.13870000  0.99200000  0.70120000  1.0 0.050324227
H  H90  1  0.86130000  0.49200000  0.79880000  1.0 0.050324227
H  H91  1  0.86130000  0.00800000  0.29880000  1.0 0.050324227
H  H92  1  0.13870000  0.50800000  0.20120000  1.0 0.050324227
H  H93  1  0.20260000  0.78440000  0.75830000  1.0 0.0589792943
H  H94  1  0.79740000  0.28440000  0.74170000  1.0 0.0589792943
H  H95  1  0.79740000  0.21560000  0.24170000  1.0 0.0589792943
H  H96  1  0.20260000  0.71560000  0.25830000  1.0 0.0589792943
H  H97  1  0.26950000  0.40710000  0.50650000  1.0 0.050324227
H  H98  1  0.73050000  0.90710000  0.99350000  1.0 0.050324227
H  H99  1  0.73050000  0.59290000  0.49350000  1.0 0.050324227
H  H100  1  0.26950000  0.09290000  0.00650000  1.0 0.0589792943
H  H101  1  0.13730000  0.35210000  0.42620000  1.0 0.050324227
H  H102  1  0.86270000  0.85210000  0.07380000  1.0 0.0423974523
H  H103  1  0.86270000  0.64790000  0.57380000  1.0 0.050324227
H  H104  1  0.13730000  0.14790000  0.92620000  1.0 0.050324227
H  H105  1  0.06480000  0.27030000  0.60530000  1.0 0.0793086915
H  H106  1  0.93520000  0.77030000  0.89470000  1.0 0.0793086915
H  H107  1  0.93520000  0.72970000  0.39470000  1.0 0.0793086915
H  H108  1  0.06480000  0.22970000  0.10530000  1.0 0.0793086915
H  H109  1  0.95430000  0.34650000  0.59080000  1.0 0.0910288543
H  H110  1  0.04570000  0.84650000  0.90920000  1.0 0.0910288543
H  H111  1  0.04570000  0.65350000  0.40920000  1.0 0.0910288543
H  H112  1  0.95430000  0.15350000  0.09080000  1.0 0.0910288543
H  H113  1  0.87580000  0.10810000  0.21340000  1.0 0.0589792943
H  H114  1  0.12420000  0.60810000  0.28660000  1.0 0.0589792943
H  H115  1  0.12420000  0.89190000  0.78660000  1.0 0.0589792943
H  H116  1  0.87580000  0.39190000  0.71340000  1.0 0.0589792943
H  H117  1  0.90860000  0.29880000  0.27390000  1.0 0.0423974523
H  H118  1  0.09140000  0.79880000  0.22610000  1.0 0.0423974523
H  H119  1  0.09140000  0.70120000  0.72610000  1.0 0.0423974523
H  H120  1  0.90860000  0.20120000  0.77390000  1.0 0.0423974523
H  H121  1  0.25770000  0.23030000  0.58610000  1.0 0.050324227
H  H122  1  0.74230000  0.73030000  0.91390000  1.0 0.050324227
H  H123  1  0.74230000  0.76970000  0.41390000  1.0 0.050324227
H  H124  1  0.25770000  0.26970000  0.08610000  1.0 0.050324227
H  H125  1  0.17910000  0.30000000  0.60360000  1.0 0.050324227
H  H126  1  0.82090000  0.80000000  0.89640000  1.0 0.050324227
H  H127  1  0.82090000  0.70000000  0.39640000  1.0 0.050324227
H  H128  1  0.17910000  0.20000000  0.10360000  1.0 0.050324227
H  H129  1  0.14610000  0.47550000  0.23200000  1.0 0.0726307864
H  H130  1  0.85390000  0.97550000  0.26800000  1.0 0.0726307864
H  H131  1  0.85390000  0.52450000  0.76800000  1.0 0.0726307864
H  H132  1  0.14610000  0.02450000  0.73200000  1.0 0.0726307864
H  H133  1  0.20930000  0.68070000  0.28930000  1.0 0.050324227
H  H134  1  0.79070000  0.18070000  0.21070000  1.0 0.050324227
H  H135  1  0.79070000  0.31930000  0.71070000  1.0 0.050324227
H  H136  1  0.20930000  0.81930000  0.78930000  1.0 0.050324227
H  H137  1  0.28760000  0.36880000  0.48510000  1.0 0.0589792943
H  H138  1  0.71240000  0.86880000  0.01490000  1.0 0.0589792943
H  H139  1  0.71240000  0.63120000  0.51490000  1.0 0.0589792943
H  H140  1  0.28760000  0.13120000  0.98510000  1.0 0.0589792943
H  H141  1  0.15620000  0.30550000  0.40940000  1.0 0.050324227
H  H142  1  0.84380000  0.80550000  0.09060000  1.0 0.050324227
H  H143  1  0.84380000  0.69450000  0.59060000  1.0 0.050324227
H  H144  1  0.15620000  0.19450000  0.90940000  1.0 0.050324227
H  H145  1  0.91400000  0.58130000  0.38920000  1.0 0.0793086915
H  H146  1  0.08600000  0.08130000  0.11080000  1.0 0.0793086915
H  H147  1  0.08600000  0.41870000  0.61080000  1.0 0.0793086915
H  H148  1  0.91400000  0.91870000  0.88920000  1.0 0.0793086915
H  H149  1  0.02240000  0.50120000  0.40260000  1.0 0.0793086915
H  H150  1  0.97760000  0.00120000  0.09740000  1.0 0.0793086915
H  H151  1  0.97760000  0.49880000  0.59740000  1.0 0.0793086915
H  H152  1  0.02240000  0.99880000  0.90260000  1.0 0.0793086915
H  H153  1  0.93880000  0.05030000  0.25950000  1.0 0.0423974523
H  H154  1  0.06120000  0.55030000  0.24050000  1.0 0.0423974523
H  H155  1  0.06120000  0.94970000  0.74050000  1.0 0.0423974523
H  H156  1  0.93880000  0.44970000  0.75950000  1.0 0.0423974523
H  H157  1  0.96480000  0.24980000  0.31480000  1.0 0.050324227
H  H158  1  0.03520000  0.74980000  0.18520000  1.0 0.050324227
H  H159  1  0.03520000  0.75020000  0.68520000  1.0 0.050324227
H  H160  1  0.96480000  0.25020000  0.81480000  1.0 0.050324227
C  C1  1  0.30880000  0.13460000  0.69030000  1.0 -0.0109331993
C  C2  1  0.69120000  0.63460000  0.80970000  1.0 -0.0109331993
C  C3  1  0.69120000  0.86540000  0.30970000  1.0 -0.0109331993
C  C4  1  0.30880000  0.36540000  0.19030000  1.0 -0.0109331993
C  C5  1  0.50020000  0.29070000  0.74750000  1.0 0.1180243329
C  C6  1  0.49980000  0.79070000  0.75250000  1.0 0.1180243329
C  C7  1  0.49980000  0.70930000  0.25250000  1.0 0.1180243329
C  C8  1  0.50020000  0.20930000  0.24750000  1.0 0.1180243329
C  C9  1  0.57890000  0.15100000  0.76170000  1.0 -0.0608762514
C  C10  1  0.42110000  0.65100000  0.73830000  1.0 -0.0608762514
C  C11  1  0.42110000  0.84900000  0.23830000  1.0 -0.0608762514
C  C12  1  0.57890000  0.34900000  0.26170000  1.0 -0.0608762514
C  C13  1  0.61840000  0.26580000  0.79360000  1.0 -0.0608762514
C  C14  1  0.38160000  0.76580000  0.70640000  1.0 -0.0608762514
C  C15  1  0.38160000  0.73420000  0.20640000  1.0 -0.0608762514
C  C16  1  0.61840000  0.23420000  0.29360000  1.0 -0.0608762514
C  C17  1  0.38420000  0.86330000  0.59770000  1.0 0.1315430692
C  C18  1  0.61580000  0.36330000  0.90230000  1.0 0.1315430692
C  C19  1  0.61580000  0.13670000  0.40230000  1.0 0.1315430692
C  C20  1  0.38420000  0.63670000  0.09770000  1.0 0.1315430692
C  C21  1  0.36270000  0.07110000  0.57060000  1.0 -0.0762820178
C  C22  1  0.63730000  0.57110000  0.92940000  1.0 -0.0762820178
C  C23  1  0.63730000  0.92890000  0.42940000  1.0 -0.0762820178
C  C24  1  0.36270000  0.42890000  0.07060000  1.0 -0.0762820178
C  C25  1  0.34650000  0.98440000  0.53250000  1.0 -0.0695083597
C  C26  1  0.65350000  0.48440000  0.96750000  1.0 -0.0695083597
C  C27  1  0.65350000  0.01560000  0.46750000  1.0 -0.0695083597
C  C28  1  0.34650000  0.51560000  0.03250000  1.0 -0.0695083597
C  C29  1  0.36850000  0.69750000  0.43620000  1.0 0.1315430692
C  C30  1  0.63150000  0.19750000  0.06380000  1.0 0.1315430692
C  C31  1  0.63150000  0.30250000  0.56380000  1.0 0.1315430692
C  C32  1  0.36850000  0.80250000  0.93620000  1.0 0.1315430692
C  C33  1  0.45840000  0.80040000  0.50700000  1.0 -0.0608762514
C  C34  1  0.54160000  0.30040000  0.99300000  1.0 -0.0608762514
C  C35  1  0.54160000  0.19960000  0.49300000  1.0 -0.0608762514
C  C36  1  0.45840000  0.69960000  0.00700000  1.0 -0.0608762514
C  C37  1  0.46860000  0.81220000  0.47350000  1.0 -0.0608762514
C  C38  1  0.53140000  0.31220000  0.02650000  1.0 -0.0608762514
C  C39  1  0.53140000  0.18780000  0.52650000  1.0 -0.0608762514
C  C40  1  0.46860000  0.68780000  0.97350000  1.0 -0.0608762514
C  C41  1  0.47610000  0.46290000  0.57640000  1.0 0.1099329946
C  C42  1  0.52390000  0.96290000  0.92360000  1.0 0.1099329946
C  C43  1  0.52390000  0.53710000  0.42360000  1.0 0.1099329946
C  C44  1  0.47610000  0.03710000  0.07640000  1.0 0.1099329946
C  C45  1  0.44230000  0.48840000  0.61880000  1.0 -0.0950501346
C  C46  1  0.55770000  0.98840000  0.88120000  1.0 -0.0950501346
C  C47  1  0.55770000  0.51160000  0.38120000  1.0 -0.0950501346
C  C48  1  0.44230000  0.01160000  0.11880000  1.0 -0.0950501346
C  C49  1  0.49750000  0.38930000  0.64460000  1.0 -0.0695083597
C  C50  1  0.50250000  0.88930000  0.85540000  1.0 -0.0695083597
C  C51  1  0.50250000  0.61070000  0.35540000  1.0 -0.0695083597
C  C52  1  0.49750000  0.11070000  0.14460000  1.0 -0.0695083597
C  C53  1  0.31220000  0.51870000  0.78920000  1.0 0.1180243329
C  C54  1  0.68780000  0.01870000  0.71080000  1.0 0.1180243329
C  C55  1  0.68780000  0.48130000  0.21080000  1.0 0.1180243329
C  C56  1  0.31220000  0.98130000  0.28920000  1.0 0.1180243329
C  C57  1  0.39550000  0.37270000  0.81580000  1.0 -0.0695083597
C  C58  1  0.60450000  0.87270000  0.68420000  1.0 -0.0695083597
C  C59  1  0.60450000  0.62730000  0.18420000  1.0 -0.0695083597
C  C60  1  0.39550000  0.12730000  0.31580000  1.0 -0.0695083597
C  C61  1  0.43160000  0.48660000  0.84690000  1.0 -0.0608762514
C  C62  1  0.56840000  0.98660000  0.65310000  1.0 -0.0608762514
C  C63  1  0.56840000  0.51340000  0.15310000  1.0 -0.0608762514
C  C64  1  0.43160000  0.01340000  0.34690000  1.0 -0.0608762514
C  C65  1  0.31100000  0.01720000  0.79570000  1.0 0.0009476146
C  C66  1  0.68900000  0.51720000  0.70430000  1.0 0.0009476146
C  C67  1  0.68900000  0.98280000  0.20430000  1.0 -0.0015244818
C  C68  1  0.31100000  0.48280000  0.29570000  1.0 0.0009476146
C  C69  1  0.19250000  0.61090000  0.41500000  1.0 -0.0109331993
C  C70  1  0.80750000  0.11090000  0.08500000  1.0 -0.0109331993
C  C71  1  0.80750000  0.38910000  0.58500000  1.0 -0.0109331993
C  C72  1  0.19250000  0.88910000  0.91500000  1.0 -0.0109331993
C  C73  1  0.10490000  0.36860000  0.70500000  1.0 -0.02294236
C  C74  1  0.89510000  0.86860000  0.79500000  1.0 -0.02294236
C  C75  1  0.89510000  0.63140000  0.29500000  1.0 -0.02294236
C  C76  1  0.10490000  0.13140000  0.20500000  1.0 -0.02294236
C  C77  1  0.00310000  0.28780000  0.24950000  1.0 0.0099564151
C  C78  1  0.99690000  0.78780000  0.25050000  1.0 0.0099564151
C  C79  1  0.99690000  0.71220000  0.75050000  1.0 0.0099564151
C  C80  1  0.00310000  0.21220000  0.74950000  1.0 0.0099564151
C  C81  1  0.29750000  0.26940000  0.63630000  1.0 -0.0305362568
C  C82  1  0.70250000  0.76940000  0.86370000  1.0 -0.0305362568
C  C83  1  0.70250000  0.73060000  0.36370000  1.0 -0.0305362568
C  C84  1  0.29750000  0.23060000  0.13630000  1.0 -0.0305362568
C  C85  1  0.25230000  0.31930000  0.64290000  1.0 -0.0393699489
C  C86  1  0.74770000  0.81930000  0.85710000  1.0 -0.0393699489
C  C87  1  0.74770000  0.68070000  0.35710000  1.0 -0.0393699489
C  C88  1  0.25230000  0.18070000  0.14290000  1.0 -0.0393699489
C  C89  1  0.19060000  0.98300000  0.73230000  1.0 -0.0305362568
C  C90  1  0.80940000  0.48300000  0.76770000  1.0 -0.0305362568
C  C91  1  0.80940000  0.01700000  0.26770000  1.0 -0.0305362568
C  C92  1  0.19060000  0.51700000  0.23230000  1.0 -0.0305362568
C  C93  1  0.22690000  0.86880000  0.76450000  1.0 -0.0393699489
C  C94  1  0.77310000  0.36880000  0.73550000  1.0 -0.0393699489
C  C95  1  0.77310000  0.13120000  0.23550000  1.0 -0.0393699489
C  C96  1  0.22690000  0.63120000  0.26450000  1.0 -0.0393699489
C  C97  1  0.23820000  0.45700000  0.47410000  1.0 -0.0305362568
C  C98  1  0.76180000  0.95700000  0.02590000  1.0 -0.02294236
C  C99  1  0.76180000  0.54300000  0.52590000  1.0 -0.0305362568
C  C100  1  0.23820000  0.04300000  0.97410000  1.0 -0.0305362568
C  C101  1  0.16510000  0.42570000  0.42900000  1.0 -0.0305362568
C  C102  1  0.83490000  0.92570000  0.07100000  1.0 -0.0305362568
C  C103  1  0.83490000  0.57430000  0.57100000  1.0 -0.0305362568
C  C104  1  0.16510000  0.07430000  0.92900000  1.0 -0.0305362568
C  C105  1  0.06740000  0.31120000  0.63120000  1.0 -0.0305362568
C  C106  1  0.93260000  0.81120000  0.86880000  1.0 -0.0305362568
C  C107  1  0.93260000  0.68880000  0.36880000  1.0 -0.0305362568
C  C108  1  0.06740000  0.18880000  0.13120000  1.0 -0.0305362568
C  C109  1  0.00570000  0.35320000  0.62310000  1.0 -0.02294236
C  C110  1  0.99430000  0.85320000  0.87690000  1.0 -0.02294236
C  C111  1  0.99430000  0.64680000  0.37690000  1.0 -0.02294236
C  C112  1  0.00570000  0.14680000  0.12310000  1.0 -0.02294236
C  C113  1  0.91690000  0.16960000  0.23070000  1.0 -0.0393699489
C  C114  1  0.08310000  0.66960000  0.26930000  1.0 -0.0393699489
C  C115  1  0.08310000  0.83040000  0.76930000  1.0 -0.0393699489
C  C116  1  0.91690000  0.33040000  0.73070000  1.0 -0.0393699489
C  C117  1  0.93440000  0.27850000  0.26350000  1.0 -0.0393699489
C  C118  1  0.06560000  0.77850000  0.23650000  1.0 -0.0393699489
C  C119  1  0.06560000  0.72150000  0.73650000  1.0 -0.0393699489
C  C120  1  0.93440000  0.22150000  0.76350000  1.0 -0.0393699489
C  C121  1  0.26780000  0.21300000  0.61720000  1.0 -0.0015244818
C  C122  1  0.73220000  0.71300000  0.88280000  1.0 -0.0015244818
C  C123  1  0.73220000  0.78700000  0.38280000  1.0 -0.0015244818
C  C124  1  0.26780000  0.28700000  0.11720000  1.0 -0.0015244818
C  C125  1  0.22590000  0.25400000  0.62870000  1.0 0.0331750159
C  C126  1  0.77410000  0.75400000  0.87130000  1.0 0.0331750159
C  C127  1  0.77410000  0.74600000  0.37130000  1.0 0.0331750159
C  C128  1  0.22590000  0.24600000  0.12870000  1.0 0.0331750159
C  C129  1  0.19740000  0.49770000  0.25310000  1.0 -0.0470670685
C  C130  1  0.80260000  0.99770000  0.24690000  1.0 -0.0470670685
C  C131  1  0.80260000  0.50230000  0.74690000  1.0 -0.0470670685
C  C132  1  0.19740000  0.00230000  0.75310000  1.0 -0.0470670685
C  C133  1  0.23170000  0.61220000  0.28460000  1.0 -0.0109331993
C  C134  1  0.76830000  0.11220000  0.21540000  1.0 -0.0109331993
C  C135  1  0.76830000  0.38780000  0.71540000  1.0 -0.0109331993
C  C136  1  0.23170000  0.88780000  0.78460000  1.0 -0.0109331993
C  C137  1  0.24860000  0.43220000  0.46040000  1.0 -0.0109331993
C  C138  1  0.75140000  0.93220000  0.03960000  1.0 -0.0109331993
C  C139  1  0.75140000  0.56780000  0.53960000  1.0 -0.0109331993
C  C140  1  0.24860000  0.06780000  0.96040000  1.0 -0.0109331993
C  C141  1  0.17660000  0.39550000  0.41770000  1.0 -0.0305362568
C  C142  1  0.82340000  0.89550000  0.08230000  1.0 -0.0305362568
C  C143  1  0.82340000  0.60450000  0.58230000  1.0 -0.0305362568
C  C144  1  0.17660000  0.10450000  0.91770000  1.0 -0.0305362568
C  C145  1  0.91890000  0.59410000  0.36490000  1.0 -0.0109331993
C  C146  1  0.08110000  0.09410000  0.13510000  1.0 -0.0109331993
C  C147  1  0.08110000  0.40590000  0.63510000  1.0 -0.0109331993
C  C148  1  0.91890000  0.90590000  0.86490000  1.0 -0.0109331993
C  C149  1  0.97990000  0.55040000  0.37280000  1.0 -0.0470670685
C  C150  1  0.02010000  0.05040000  0.12720000  1.0 -0.0470670685
C  C151  1  0.02010000  0.44960000  0.62720000  1.0 -0.0470670685
C  C152  1  0.97990000  0.94960000  0.87280000  1.0 -0.0470670685
C  C153  1  0.95620000  0.13710000  0.25930000  1.0 -0.02294236
C  C154  1  0.04380000  0.63710000  0.24070000  1.0 -0.02294236
C  C155  1  0.04380000  0.86290000  0.74070000  1.0 -0.02294236
C  C156  1  0.95620000  0.36290000  0.75930000  1.0 -0.02294236
C  C157  1  0.97040000  0.24750000  0.29060000  1.0 -0.0305362568
C  C158  1  0.02960000  0.74750000  0.20940000  1.0 -0.0305362568
C  C159  1  0.02960000  0.75250000  0.70940000  1.0 -0.0305362568
C  C160  1  0.97040000  0.25250000  0.79060000  1.0 -0.0305362568
N  N1  1  0.32763000  0.14050000  0.66253000  1.0 -0.2409037686
N  N2  1  0.67237000  0.64050000  0.83747000  1.0 -0.2409037686
N  N3  1  0.67237000  0.85950000  0.33747000  1.0 -0.2409037686
N  N4  1  0.32763000  0.35950000  0.16253000  1.0 -0.2409037686
N  N5  1  0.25594000  0.22460000  0.67600000  1.0 -0.2303553567
N  N6  1  0.74406000  0.72460000  0.82400000  1.0 -0.2303553567
N  N7  1  0.74406000  0.77540000  0.32400000  1.0 -0.2303553567
N  N8  1  0.25594000  0.27540000  0.17600000  1.0 -0.2303553567
N  N9  1  0.50336000  0.16550000  0.73249000  1.0 -0.2988526159
N  N10  1  0.49664000  0.66550000  0.76751000  1.0 -0.2988526159
N  N11  1  0.49664000  0.83450000  0.26751000  1.0 -0.2988526159
N  N12  1  0.50336000  0.33450000  0.23249000  1.0 -0.2988526159
N  N13  1  0.56704000  0.35660000  0.78434000  1.0 -0.2888360019
N  N14  1  0.43296000  0.85660000  0.71566000  1.0 -0.2888360019
N  N15  1  0.43296000  0.64340000  0.21566000  1.0 -0.2888360019
N  N16  1  0.56704000  0.14340000  0.28434000  1.0 -0.2888360019
N  N17  1  0.38618000  0.99360000  0.61247000  1.0 -0.2888360019
N  N18  1  0.61382000  0.49360000  0.88753000  1.0 -0.2888360019
N  N19  1  0.61382000  0.00640000  0.38753000  1.0 -0.2888360019
N  N20  1  0.38618000  0.50640000  0.11247000  1.0 -0.2888360019
N  N21  1  0.36002000  0.84970000  0.54980000  1.0 -0.2888360019
N  N22  1  0.63998000  0.34970000  0.95020000  1.0 -0.281865699
N  N23  1  0.63998000  0.15030000  0.45020000  1.0 -0.2888360019
N  N24  1  0.36002000  0.65030000  0.04980000  1.0 -0.281865699
N  N25  1  0.39481000  0.72630000  0.48380000  1.0 -0.281865699
N  N26  1  0.60519000  0.22630000  0.01620000  1.0 -0.281865699
N  N27  1  0.60519000  0.27370000  0.51620000  1.0 -0.281865699
N  N28  1  0.39481000  0.77370000  0.98380000  1.0 -0.281865699
N  N29  1  0.41003000  0.74670000  0.42693000  1.0 -0.281865699
N  N30  1  0.58997000  0.24670000  0.07307000  1.0 -0.281865699
N  N31  1  0.58997000  0.25330000  0.57307000  1.0 -0.281865699
N  N32  1  0.41003000  0.75330000  0.92693000  1.0 -0.281865699
N  N33  1  0.51932000  0.37080000  0.61733000  1.0 -0.2888360019
N  N34  1  0.48068000  0.87080000  0.88267000  1.0 -0.2888360019
N  N35  1  0.48068000  0.62920000  0.38267000  1.0 -0.2888360019
N  N36  1  0.51932000  0.12920000  0.11733000  1.0 -0.2888360019
N  N37  1  0.37807000  0.58290000  0.83037000  1.0 -0.2888360019
N  N38  1  0.62193000  0.08290000  0.66963000  1.0 -0.2888360019
N  N39  1  0.62193000  0.41710000  0.16963000  1.0 -0.2888360019
N  N40  1  0.37807000  0.91710000  0.33037000  1.0 -0.2888360019
N  N41  1  0.31831000  0.39230000  0.77863000  1.0 -0.2888360019
N  N42  1  0.68169000  0.89230000  0.72137000  1.0 -0.2888360019
N  N43  1  0.68169000  0.60770000  0.22137000  1.0 -0.2888360019
N  N44  1  0.31831000  0.10770000  0.27863000  1.0 -0.2888360019
N  N45  1  0.24700000  0.08340000  0.75560000  1.0 -0.2409037686
N  N46  1  0.75300000  0.58340000  0.74440000  1.0 -0.2409037686
N  N47  1  0.75300000  0.91660000  0.24440000  1.0 -0.2409037686
N  N48  1  0.24700000  0.41660000  0.25560000  1.0 -0.2409037686
N  N49  1  0.30491000  0.89180000  0.80806000  1.0 -0.2409037686
N  N50  1  0.69509000  0.39180000  0.69194000  1.0 -0.2409037686
N  N51  1  0.69509000  0.10820000  0.19194000  1.0 -0.2409037686
N  N52  1  0.30491000  0.60820000  0.30806000  1.0 -0.2409037686
N  N53  1  0.25836000  0.57610000  0.46361000  1.0 -0.2571263088
N  N54  1  0.74164000  0.07610000  0.03639000  1.0 -0.2571263088
N  N55  1  0.74164000  0.42390000  0.53639000  1.0 -0.2571263088
N  N56  1  0.25836000  0.92390000  0.96361000  1.0 -0.2571263088
N  N57  1  0.13670000  0.51820000  0.38710000  1.0 -0.2718874746
N  N58  1  0.86330000  0.01820000  0.11290000  1.0 -0.2718874746
N  N59  1  0.86330000  0.48180000  0.61290000  1.0 -0.2718874746
N  N60  1  0.13670000  0.98180000  0.88710000  1.0 -0.2718874746
N  N61  1  0.03358000  0.40720000  0.67170000  1.0 -0.2482455292
N  N62  1  0.96642000  0.90720000  0.82830000  1.0 -0.2482455292
N  N63  1  0.96642000  0.59280000  0.32830000  1.0 -0.2482455292
N  N64  1  0.03358000  0.09280000  0.17170000  1.0 -0.2482455292
N  N65  1  0.13366000  0.34040000  0.68426000  1.0 -0.2571263088
N  N66  1  0.86634000  0.84040000  0.81574000  1.0 -0.2571263088
N  N67  1  0.86634000  0.65960000  0.31574000  1.0 -0.2482455292
N  N68  1  0.13366000  0.15960000  0.18426000  1.0 -0.2571263088
N  N69  1  0.42751000  0.53780000  0.57442000  1.0 -0.3239556932
N  N70  1  0.57249000  0.03780000  0.92558000  1.0 -0.3239556932
N  N71  1  0.57249000  0.46220000  0.42558000  1.0 -0.3239556932
N  N72  1  0.42751000  0.96220000  0.07442000  1.0 -0.3239556932
N  N73  1  0.99480000  0.35360000  0.27910000  1.0 -0.2409037686
N  N74  1  0.00520000  0.85360000  0.22090000  1.0 -0.2409037686
N  N75  1  0.00520000  0.64640000  0.72090000  1.0 -0.2409037686
N  N76  1  0.99480000  0.14640000  0.77910000  1.0 -0.2409037686
N  N77  1  0.97010000  0.16630000  0.22770000  1.0 -0.2303553567
N  N78  1  0.02990000  0.66630000  0.27230000  1.0 -0.2303553567
N  N79  1  0.02990000  0.83370000  0.77230000  1.0 -0.2303553567
N  N80  1  0.97010000  0.33370000  0.72770000  1.0 -0.2303553567
