# DDEC6 charges by PACMAN v1.1 (https://github.com/mtap-research/PACMAN-charge/)
data_AFOXAX_ASR_pacman
_symmetry_space_group_name_H-M   'P 1'
_cell_length_a   12.18410000
_cell_length_b   12.18410000
_cell_length_c   14.00000000
_cell_angle_alpha   90.00000000
_cell_angle_beta   90.00000000
_cell_angle_gamma   120.00000000
_symmetry_Int_Tables_number   1
_chemical_formula_structural   KH3(C3O)3
_chemical_formula_sum   'K8 H24 C72 O24'
_cell_volume   1799.88839553
_cell_formula_units_Z   8
loop_
 _symmetry_equiv_pos_site_id
 _symmetry_equiv_pos_as_xyz
  1  'x, y, z'
loop_
 _atom_site_type_symbol
 _atom_site_label
 _atom_site_symmetry_multiplicity
 _atom_site_fract_x
 _atom_site_fract_y
 _atom_site_fract_z
 _atom_site_occupancy
 _atom_site_charge
K  K1  1  0.32459000  0.36729000  0.55137000  1.0 0.8914197092
K  K2  1  0.63271000  0.95730000  0.55137000  1.0 0.8914197092
K  K3  1  0.04270000  0.67541000  0.55137000  1.0 0.8914197092
K  K4  1  0.67541000  0.63271000  0.44863000  1.0 0.8914197092
K  K5  1  0.36729000  0.04270000  0.44863000  1.0 0.8914197092
K  K6  1  0.95730000  0.32459000  0.44863000  1.0 0.8914197092
K  K7  1  0.33333333  0.66666667  0.45925000  1.0 0.9043770935
K  K8  1  0.66666667  0.33333333  0.54075000  1.0 0.9043770935
H  H1  1  0.12550000  0.39450000  0.15630000  1.0 0.1194766654
H  H2  1  0.20000000  0.44710000  0.00160000  1.0 0.1110513265
H  H3  1  0.25620000  0.46520000  0.86320000  1.0 0.1194766654
H  H4  1  0.33750000  0.54040000  0.71260000  1.0 0.1194766654
H  H5  1  0.60550000  0.73100000  0.15630000  1.0 0.1194766654
H  H6  1  0.55290000  0.75290000  0.00160000  1.0 0.1110513265
H  H7  1  0.53480000  0.79100000  0.86320000  1.0 0.1194766654
H  H8  1  0.45960000  0.79710000  0.71260000  1.0 0.1194766654
H  H9  1  0.26900000  0.87450000  0.15630000  1.0 0.1194766654
H  H10  1  0.24710000  0.80000000  0.00160000  1.0 0.1110513265
H  H11  1  0.20900000  0.74380000  0.86320000  1.0 0.1194766654
H  H12  1  0.20290000  0.66250000  0.71260000  1.0 0.1194766654
H  H13  1  0.87450000  0.60550000  0.84370000  1.0 0.1194766654
H  H14  1  0.80000000  0.55290000  0.99840000  1.0 0.1110513265
H  H15  1  0.74380000  0.53480000  0.13680000  1.0 0.1194766654
H  H16  1  0.66250000  0.45960000  0.28740000  1.0 0.1194766654
H  H17  1  0.39450000  0.26900000  0.84370000  1.0 0.1194766654
H  H18  1  0.44710000  0.24710000  0.99840000  1.0 0.1110513265
H  H19  1  0.46520000  0.20900000  0.13680000  1.0 0.1194766654
H  H20  1  0.54040000  0.20290000  0.28740000  1.0 0.1194766654
H  H21  1  0.73100000  0.12550000  0.84370000  1.0 0.1194766654
H  H22  1  0.75290000  0.20000000  0.99840000  1.0 0.1110513265
H  H23  1  0.79100000  0.25620000  0.13680000  1.0 0.1194766654
H  H24  1  0.79710000  0.33750000  0.28740000  1.0 0.1194766654
C  C1  1  0.43740000  0.33880000  0.35370000  1.0 0.5894673373
C  C2  1  0.22500000  0.38160000  0.31380000  1.0 0.6095843917
C  C3  1  0.48360000  0.41360000  0.26158000  1.0 -0.0435847821
C  C4  1  0.40310000  0.42410000  0.19206000  1.0 0.0547357369
C  C5  1  0.27960000  0.40170000  0.21365000  1.0 -0.0190974475
C  C6  1  0.20670000  0.41040000  0.14200000  1.0 -0.0965003688
C  C7  1  0.25190000  0.44250000  0.04820000  1.0 -0.1259570067
C  C8  1  0.37220000  0.46740000  0.02374000  1.0 0.0359240615
C  C9  1  0.45100000  0.46190000  0.09671000  1.0 -0.0076007769
C  C10  1  0.42010000  0.50210000  0.92513000  1.0 0.0322292316
C  C11  1  0.34220000  0.49770000  0.85180000  1.0 -0.1208613944
C  C12  1  0.39150000  0.54170000  0.76020000  1.0 -0.1208613944
C  C13  1  0.66120000  0.09860000  0.35370000  1.0 0.5894673373
C  C14  1  0.61840000  0.84340000  0.31380000  1.0 0.6095843917
C  C15  1  0.58640000  0.07000000  0.26158000  1.0 -0.0435847821
C  C16  1  0.57590000  0.97900000  0.19206000  1.0 0.055231804
C  C17  1  0.59830000  0.87790000  0.21365000  1.0 -0.0190974475
C  C18  1  0.58960000  0.79630000  0.14200000  1.0 -0.0965003688
C  C19  1  0.55750000  0.80940000  0.04820000  1.0 -0.1259570067
C  C20  1  0.53260000  0.90480000  0.02374000  1.0 0.0359240615
C  C21  1  0.53810000  0.98910000  0.09671000  1.0 -0.0076007769
C  C22  1  0.49790000  0.91800000  0.92513000  1.0 0.0322292316
C  C23  1  0.50230000  0.84450000  0.85180000  1.0 -0.1208613944
C  C24  1  0.45830000  0.84980000  0.76020000  1.0 -0.1208613944
C  C25  1  0.90140000  0.56260000  0.35370000  1.0 0.5894673373
C  C26  1  0.15660000  0.77500000  0.31380000  1.0 0.6095843917
C  C27  1  0.93000000  0.51640000  0.26158000  1.0 -0.0435847821
C  C28  1  0.02100000  0.59690000  0.19206000  1.0 0.055231804
C  C29  1  0.12210000  0.72040000  0.21365000  1.0 -0.0190974475
C  C30  1  0.20370000  0.79330000  0.14200000  1.0 -0.0965003688
C  C31  1  0.19060000  0.74810000  0.04820000  1.0 -0.1259570067
C  C32  1  0.09520000  0.62780000  0.02374000  1.0 0.0359240615
C  C33  1  0.01090000  0.54900000  0.09671000  1.0 -0.0076007769
C  C34  1  0.08200000  0.57990000  0.92513000  1.0 0.0322292316
C  C35  1  0.15550000  0.65780000  0.85180000  1.0 -0.1208613944
C  C36  1  0.15020000  0.60850000  0.76020000  1.0 -0.1208613944
C  C37  1  0.56260000  0.66120000  0.64630000  1.0 0.5894673373
C  C38  1  0.77500000  0.61840000  0.68620000  1.0 0.6095843917
C  C39  1  0.51640000  0.58640000  0.73842000  1.0 -0.0435847821
C  C40  1  0.59690000  0.57590000  0.80794000  1.0 0.055231804
C  C41  1  0.72040000  0.59830000  0.78635000  1.0 -0.0190974475
C  C42  1  0.79330000  0.58960000  0.85800000  1.0 -0.0965003688
C  C43  1  0.74810000  0.55750000  0.95180000  1.0 -0.1259570067
C  C44  1  0.62780000  0.53260000  0.97626000  1.0 0.0359240615
C  C45  1  0.54900000  0.53810000  0.90329000  1.0 -0.0076007769
C  C46  1  0.57990000  0.49790000  0.07487000  1.0 0.0322292316
C  C47  1  0.65780000  0.50230000  0.14820000  1.0 -0.1208613944
C  C48  1  0.60850000  0.45830000  0.23980000  1.0 -0.1208613944
C  C49  1  0.33880000  0.90140000  0.64630000  1.0 0.5894673373
C  C50  1  0.38160000  0.15660000  0.68620000  1.0 0.6095843917
C  C51  1  0.41360000  0.93000000  0.73842000  1.0 -0.0435847821
C  C52  1  0.42410000  0.02100000  0.80794000  1.0 0.055231804
C  C53  1  0.40170000  0.12210000  0.78635000  1.0 -0.0190974475
C  C54  1  0.41040000  0.20370000  0.85800000  1.0 -0.0965003688
C  C55  1  0.44250000  0.19060000  0.95180000  1.0 -0.1259570067
C  C56  1  0.46740000  0.09520000  0.97626000  1.0 0.0359240615
C  C57  1  0.46190000  0.01090000  0.90329000  1.0 -0.0076007769
C  C58  1  0.50210000  0.08200000  0.07487000  1.0 0.0322292316
C  C59  1  0.49770000  0.15550000  0.14820000  1.0 -0.1208613944
C  C60  1  0.54170000  0.15020000  0.23980000  1.0 -0.1208613944
C  C61  1  0.09860000  0.43740000  0.64630000  1.0 0.5894673373
C  C62  1  0.84340000  0.22500000  0.68620000  1.0 0.6095843917
C  C63  1  0.07000000  0.48360000  0.73842000  1.0 -0.0435847821
C  C64  1  0.97900000  0.40310000  0.80794000  1.0 0.055231804
C  C65  1  0.87790000  0.27960000  0.78635000  1.0 -0.0190974475
C  C66  1  0.79630000  0.20670000  0.85800000  1.0 -0.0965003688
C  C67  1  0.80940000  0.25190000  0.95180000  1.0 -0.1259570067
C  C68  1  0.90480000  0.37220000  0.97626000  1.0 0.0359240615
C  C69  1  0.98910000  0.45100000  0.90329000  1.0 -0.0076007769
C  C70  1  0.91800000  0.42010000  0.07487000  1.0 0.0322292316
C  C71  1  0.84450000  0.34220000  0.14820000  1.0 -0.1208613944
C  C72  1  0.84980000  0.39150000  0.23980000  1.0 -0.1208613944
O  O1  1  0.33590000  0.23510000  0.34996000  1.0 -0.5379301702
O  O2  1  0.50860000  0.37990000  0.42542000  1.0 -0.6879028772
O  O3  1  0.11050000  0.29650000  0.32330000  1.0 -0.5779737924
O  O4  1  0.29470000  0.45290000  0.37793000  1.0 -0.6469378565
O  O5  1  0.76490000  0.10080000  0.34996000  1.0 -0.5379301702
O  O6  1  0.62010000  0.12870000  0.42542000  1.0 -0.6879028772
O  O7  1  0.70350000  0.81400000  0.32330000  1.0 -0.5779737924
O  O8  1  0.54710000  0.84180000  0.37793000  1.0 -0.6439759229
O  O9  1  0.89920000  0.66410000  0.34996000  1.0 -0.5379301702
O  O10  1  0.87130000  0.49140000  0.42542000  1.0 -0.6879028772
O  O11  1  0.18600000  0.88950000  0.32330000  1.0 -0.5779737924
O  O12  1  0.15820000  0.70530000  0.37793000  1.0 -0.6469378565
O  O13  1  0.66410000  0.76490000  0.65004000  1.0 -0.5379301702
O  O14  1  0.49140000  0.62010000  0.57458000  1.0 -0.6879028772
O  O15  1  0.88950000  0.70350000  0.67670000  1.0 -0.5779737924
O  O16  1  0.70530000  0.54710000  0.62207000  1.0 -0.6469378565
O  O17  1  0.23510000  0.89920000  0.65004000  1.0 -0.5379301702
O  O18  1  0.37990000  0.87130000  0.57458000  1.0 -0.6879028772
O  O19  1  0.29650000  0.18600000  0.67670000  1.0 -0.5779737924
O  O20  1  0.45290000  0.15820000  0.62207000  1.0 -0.6469378565
O  O21  1  0.10080000  0.33590000  0.65004000  1.0 -0.5379301702
O  O22  1  0.12870000  0.50860000  0.57458000  1.0 -0.6879028772
O  O23  1  0.81400000  0.11050000  0.67670000  1.0 -0.5779737924
O  O24  1  0.84180000  0.29470000  0.62207000  1.0 -0.6469378565
