# DDEC6 charges by PACMAN v1.1 (https://github.com/mtap-research/PACMAN-charge/)
data_AFUCAI_ASR_pacman
_symmetry_space_group_name_H-M   'P 1'
_cell_length_a   44.28600000
_cell_length_b   44.28600000
_cell_length_c   26.46670000
_cell_angle_alpha   90.00000000
_cell_angle_beta   90.00000000
_cell_angle_gamma   120.00000000
_symmetry_Int_Tables_number   1
_chemical_formula_structural   Cu8Ni4H140C95(N3O5)8
_chemical_formula_sum   'Cu48 Ni24 H840 C570 N144 O240'
_cell_volume   44953.48209385
_cell_formula_units_Z   6
loop_
 _symmetry_equiv_pos_site_id
 _symmetry_equiv_pos_as_xyz
  1  'x, y, z'
loop_
 _atom_site_type_symbol
 _atom_site_label
 _atom_site_symmetry_multiplicity
 _atom_site_fract_x
 _atom_site_fract_y
 _atom_site_fract_z
 _atom_site_occupancy
 _atom_site_charge
Cu  Cu1  1  0.69311000  0.32202000  0.57330000  1.0 0.8074311521
Cu  Cu2  1  0.61046000  0.24775000  0.72320000  1.0 0.7853387849
Cu  Cu3  1  0.69539000  0.07815000  0.85608000  1.0 0.75903301
Cu  Cu4  1  0.76398000  0.10080000  0.67902000  1.0 0.8074311521
Cu  Cu5  1  0.76714000  0.13882000  0.02127000  1.0 0.8399745778
Cu  Cu6  1  0.83242000  0.20771000  0.18896000  1.0 0.6889024135
Cu  Cu7  1  0.83629000  0.13779000  0.34955000  1.0 0.8399745778
Cu  Cu8  1  0.84689000  0.09803000  0.53621000  1.0 0.8009628908
Cu  Cu9  1  0.62891000  0.30689000  0.90663000  1.0 0.8074311521
Cu  Cu10  1  0.63729000  0.38954000  0.05653000  1.0 0.7853387849
Cu  Cu11  1  0.38276000  0.30461000  0.18941000  1.0 0.75903301
Cu  Cu12  1  0.33682000  0.23602000  0.01235000  1.0 0.8074311521
Cu  Cu13  1  0.37168000  0.23286000  0.35460000  1.0 0.8399745778
Cu  Cu14  1  0.37529000  0.16758000  0.52229000  1.0 0.6889024135
Cu  Cu15  1  0.30150000  0.16371000  0.68288000  1.0 0.8399745778
Cu  Cu16  1  0.25114000  0.15311000  0.86954000  1.0 0.8009628908
Cu  Cu17  1  0.67798000  0.37109000  0.23997000  1.0 0.8074311521
Cu  Cu18  1  0.75225000  0.36271000  0.38987000  1.0 0.7853387849
Cu  Cu19  1  0.92185000  0.61724000  0.52275000  1.0 0.75903301
Cu  Cu20  1  0.89920000  0.66318000  0.34569000  1.0 0.8074311521
Cu  Cu21  1  0.86118000  0.62832000  0.68794000  1.0 0.8399745778
Cu  Cu22  1  0.79229000  0.62471000  0.85563000  1.0 0.6889024135
Cu  Cu23  1  0.86221000  0.69850000  0.01622000  1.0 0.8399745778
Cu  Cu24  1  0.90197000  0.74886000  0.20288000  1.0 0.8009628908
Cu  Cu25  1  0.30689000  0.67798000  0.07330000  1.0 0.8074311521
Cu  Cu26  1  0.38954000  0.75225000  0.22320000  1.0 0.7853387849
Cu  Cu27  1  0.30461000  0.92185000  0.35608000  1.0 0.75903301
Cu  Cu28  1  0.23602000  0.89920000  0.17902000  1.0 0.8074311521
Cu  Cu29  1  0.23286000  0.86118000  0.52127000  1.0 0.8399745778
Cu  Cu30  1  0.16758000  0.79229000  0.68896000  1.0 0.6889024135
Cu  Cu31  1  0.16371000  0.86221000  0.84955000  1.0 0.8399745778
Cu  Cu32  1  0.15311000  0.90197000  0.03621000  1.0 0.8009628908
Cu  Cu33  1  0.37109000  0.69311000  0.40663000  1.0 0.8074311521
Cu  Cu34  1  0.36271000  0.61046000  0.55653000  1.0 0.7853387849
Cu  Cu35  1  0.61724000  0.69539000  0.68941000  1.0 0.75903301
Cu  Cu36  1  0.66318000  0.76398000  0.51235000  1.0 0.8074311521
Cu  Cu37  1  0.62832000  0.76714000  0.85460000  1.0 0.8399745778
Cu  Cu38  1  0.62471000  0.83242000  0.02229000  1.0 0.6889024135
Cu  Cu39  1  0.69850000  0.83629000  0.18288000  1.0 0.8399745778
Cu  Cu40  1  0.74886000  0.84689000  0.36954000  1.0 0.8009628908
Cu  Cu41  1  0.32202000  0.62891000  0.73997000  1.0 0.8074311521
Cu  Cu42  1  0.24775000  0.63729000  0.88987000  1.0 0.7853387849
Cu  Cu43  1  0.07815000  0.38276000  0.02275000  1.0 0.75903301
Cu  Cu44  1  0.10080000  0.33682000  0.84569000  1.0 0.8074311521
Cu  Cu45  1  0.13882000  0.37168000  0.18794000  1.0 0.8399745778
Cu  Cu46  1  0.20771000  0.37529000  0.35563000  1.0 0.6889024135
Cu  Cu47  1  0.13779000  0.30150000  0.51622000  1.0 0.8399745778
Cu  Cu48  1  0.09803000  0.25114000  0.70288000  1.0 0.8009628908
Ni  Ni1  1  0.64034000  0.15187000  0.78879000  1.0 0.6359728431
Ni  Ni2  1  0.76671000  0.26354000  0.29311000  1.0 0.6023663537
Ni  Ni3  1  0.95752000  0.28928000  0.09710000  1.0 0.6476921893
Ni  Ni4  1  0.79231000  0.97359000  0.45971000  1.0 0.5854845103
Ni  Ni5  1  0.51153000  0.35966000  0.12212000  1.0 0.6359728431
Ni  Ni6  1  0.49683000  0.23329000  0.62644000  1.0 0.6023663537
Ni  Ni7  1  0.33176000  0.04248000  0.43043000  1.0 0.6476921893
Ni  Ni8  1  0.18128000  0.20769000  0.79304000  1.0 0.5854845103
Ni  Ni9  1  0.84813000  0.48847000  0.45546000  1.0 0.6359728431
Ni  Ni10  1  0.73646000  0.50317000  0.95978000  1.0 0.6023663537
Ni  Ni11  1  0.71072000  0.66824000  0.76377000  1.0 0.6476921893
Ni  Ni12  1  0.02641000  0.81872000  0.12638000  1.0 0.5854845103
Ni  Ni13  1  0.35966000  0.84813000  0.28879000  1.0 0.6359728431
Ni  Ni14  1  0.23329000  0.73646000  0.79311000  1.0 0.6023663537
Ni  Ni15  1  0.04248000  0.71072000  0.59710000  1.0 0.6476921893
Ni  Ni16  1  0.20769000  0.02641000  0.95971000  1.0 0.5854845103
Ni  Ni17  1  0.48847000  0.64034000  0.62212000  1.0 0.6359728431
Ni  Ni18  1  0.50317000  0.76671000  0.12644000  1.0 0.6023663537
Ni  Ni19  1  0.66824000  0.95752000  0.93043000  1.0 0.6476921893
Ni  Ni20  1  0.81872000  0.79231000  0.29304000  1.0 0.5854845103
Ni  Ni21  1  0.15187000  0.51153000  0.95546000  1.0 0.6359728431
Ni  Ni22  1  0.26354000  0.49683000  0.45978000  1.0 0.6023663537
Ni  Ni23  1  0.28928000  0.33176000  0.26377000  1.0 0.6476921893
Ni  Ni24  1  0.97359000  0.18128000  0.62638000  1.0 0.5854845103
H  H1  1  0.61060000  0.16100000  0.63950000  1.0 0.0910880486
H  H2  1  0.59640000  0.19680000  0.57230000  1.0 0.1104006913
H  H3  1  0.60060000  0.16480000  0.55320000  1.0 0.1196406006
H  H4  1  0.63270000  0.20380000  0.54900000  1.0 0.1300339125
H  H5  1  0.67680000  0.21810000  0.60000000  1.0 0.1465044141
H  H6  1  0.66590000  0.17790000  0.59530000  1.0 0.1196406006
H  H7  1  0.67490000  0.19650000  0.64950000  1.0 0.1104006913
H  H8  1  0.72940000  0.04250000  0.82660000  1.0 0.1196406006
H  H9  1  0.74630000  0.04880000  0.74000000  1.0 0.1719970262
H  H10  1  0.70780000  0.00290000  0.68530000  1.0 0.1465044141
H  H11  1  0.69230000  0.02600000  0.70760000  1.0 0.1397528466
H  H12  1  0.68000000  0.98810000  0.73040000  1.0 0.1300339125
H  H13  1  0.77520000  0.02250000  0.75120000  1.0 0.1300339125
H  H14  1  0.74350000  0.99150000  0.72100000  1.0 0.1397528466
H  H15  1  0.74450000  0.99040000  0.78140000  1.0 0.1300339125
H  H16  1  0.67720000  0.13720000  0.93650000  1.0 0.1104006913
H  H17  1  0.62050000  0.06500000  0.94200000  1.0 0.0705980292
H  H18  1  0.63280000  0.13190000  0.94620000  1.0 0.1002065789
H  H19  1  0.62060000  0.11640000  0.00190000  1.0 0.1104006913
H  H20  1  0.59560000  0.09770000  0.95460000  1.0 0.1196406006
H  H21  1  0.66630000  0.09990000  0.02750000  1.0 0.1397528466
H  H22  1  0.64020000  0.05890000  0.02180000  1.0 0.0910880486
H  H23  1  0.62560000  0.08400000  0.03830000  1.0 0.1002065789
H  H24  1  0.75550000  0.20690000  0.13660000  1.0 0.1300339125
H  H25  1  0.78240000  0.26060000  0.10770000  1.0 0.0813775528
H  H26  1  0.83870000  0.28440000  0.15130000  1.0 0.1300339125
H  H27  1  0.82880000  0.30520000  0.11140000  1.0 0.1196406006
H  H28  1  0.85140000  0.28800000  0.09390000  1.0 0.1397528466
H  H29  1  0.81330000  0.24320000  0.03050000  1.0 0.1300339125
H  H30  1  0.80780000  0.27620000  0.03210000  1.0 0.1104006913
H  H31  1  0.77470000  0.23770000  0.03110000  1.0 0.1397528466
H  H32  1  0.89480000  0.19970000  0.20710000  1.0 0.1300339125
H  H33  1  0.94520000  0.21450000  0.22530000  1.0 0.0705980292
H  H34  1  0.96740000  0.27310000  0.21080000  1.0 0.1104006913
H  H35  1  0.96810000  0.27720000  0.27090000  1.0 0.0603085009
H  H36  1  0.93540000  0.27290000  0.23930000  1.0 0.1104006913
H  H37  1  0.92090000  0.21420000  0.32260000  1.0 0.1465044141
H  H38  1  0.95760000  0.24920000  0.31560000  1.0 0.0910880486
H  H39  1  0.95500000  0.21210000  0.30880000  1.0 0.1196406006
H  H40  1  0.77620000  0.02530000  0.60240000  1.0 0.1300339125
H  H41  1  0.80390000  0.00430000  0.64150000  1.0 0.0813775528
H  H42  1  0.86960000  0.03660000  0.60180000  1.0 0.1397528466
H  H43  1  0.83600000  0.00380000  0.57770000  1.0 0.1300339125
H  H44  1  0.84960000  0.00060000  0.63240000  1.0 0.1196406006
H  H45  1  0.82250000  0.02250000  0.71280000  1.0 0.1300339125
H  H46  1  0.80960000  0.04890000  0.69600000  1.0 0.1300339125
H  H47  1  0.85030000  0.06120000  0.69510000  1.0 0.1196406006
H  H48  1  0.92390000  0.09860000  0.46300000  1.0 0.1196406006
H  H49  1  0.97630000  0.16490000  0.47910000  1.0 0.1104006913
H  H50  1  0.96580000  0.17080000  0.42360000  1.0 0.1002065789
H  H51  1  0.98140000  0.14540000  0.43170000  1.0 0.1196406006
H  H52  1  0.89210000  0.11540000  0.39920000  1.0 0.1196406006
H  H53  1  0.93060000  0.13240000  0.37620000  1.0 0.1196406006
H  H54  1  0.91940000  0.15570000  0.40870000  1.0 0.1300339125
H  H55  1  0.67470000  0.23890000  0.88200000  1.0 0.1002065789
H  H56  1  0.66480000  0.19970000  0.89600000  1.0 0.1002065789
H  H57  1  0.62060000  0.22410000  0.86510000  1.0 0.1002065789
H  H58  1  0.61100000  0.19070000  0.89790000  1.0 0.1002065789
H  H59  1  0.71020000  0.21680000  0.24360000  1.0 0.1002065789
H  H60  1  0.67580000  0.21020000  0.27020000  1.0 0.1002065789
H  H61  1  0.68310000  0.25650000  0.21990000  1.0 0.1104006913
H  H62  1  0.71950000  0.26070000  0.20080000  1.0 0.1002065789
H  H63  1  0.71880000  0.31240000  0.27010000  1.0 0.1397528466
H  H64  1  0.72230000  0.31890000  0.20980000  1.0 0.1196406006
H  H65  1  0.77170000  0.30550000  0.21100000  1.0 0.1002065789
H  H66  1  0.78170000  0.34250000  0.23130000  1.0 0.1104006913
H  H67  1  0.83760000  0.35770000  0.26540000  1.0 0.1300339125
H  H68  1  0.82950000  0.32850000  0.22270000  1.0 0.1196406006
H  H69  1  0.86170000  0.31440000  0.28990000  1.0 0.1300339125
H  H70  1  0.84200000  0.32140000  0.33440000  1.0 0.1300339125
H  H71  1  0.80300000  0.26630000  0.37670000  1.0 0.1300339125
H  H72  1  0.84150000  0.27230000  0.36820000  1.0 0.1002065789
H  H73  1  0.81390000  0.21640000  0.38020000  1.0 0.1104006913
H  H74  1  0.80920000  0.21660000  0.32020000  1.0 0.1300339125
H  H75  1  0.75100000  0.17720000  0.35970000  1.0 0.1104006913
H  H76  1  0.75450000  0.20860000  0.39370000  1.0 0.1104006913
H  H77  1  0.87850000  0.27390000  0.00680000  1.0 0.0910880486
H  H78  1  0.91740000  0.28270000  0.99480000  1.0 0.1002065789
H  H79  1  0.87090000  0.22350000  0.04830000  1.0 0.1300339125
H  H80  1  0.87390000  0.22400000  0.98790000  1.0 0.0910880486
H  H81  1  0.93050000  0.24090000  0.99350000  1.0 0.1002065789
H  H82  1  0.90650000  0.20440000  0.02010000  1.0 0.0910880486
H  H83  1  0.96970000  0.21220000  0.05990000  1.0 0.1104006913
H  H84  1  0.99020000  0.24970000  0.03230000  1.0 0.1300339125
H  H85  1  0.98240000  0.23930000  0.14100000  1.0 0.1002065789
H  H86  1  0.01860000  0.25330000  0.11190000  1.0 0.1104006913
H  H87  1  0.03950000  0.29990000  0.17320000  1.0 0.1104006913
H  H88  1  0.00090000  0.28750000  0.19440000  1.0 0.0490072947
H  H89  1  0.04220000  0.35270000  0.13920000  1.0 0.1300339125
H  H90  1  0.04070000  0.35200000  0.19920000  1.0 0.1104006913
H  H91  1  0.98440000  0.34380000  0.20000000  1.0 0.1196406006
H  H92  1  0.00840000  0.37680000  0.16630000  1.0 0.1104006913
H  H93  1  0.96530000  0.37080000  0.09530000  1.0 0.1104006913
H  H94  1  0.93960000  0.35440000  0.14110000  1.0 0.1002065789
H  H95  1  0.92710000  0.34010000  0.04310000  1.0 0.0910880486
H  H96  1  0.90000000  0.32990000  0.08880000  1.0 0.0910880486
H  H97  1  0.83140000  0.97510000  0.51710000  1.0 0.1104006913
H  H98  1  0.84620000  0.94990000  0.52380000  1.0 0.1002065789
H  H99  1  0.88850000  0.99970000  0.48680000  1.0 0.1002065789
H  H100  1  0.87510000  0.97110000  0.44130000  1.0 0.1104006913
H  H101  1  0.78660000  0.91430000  0.55630000  1.0 0.1104006913
H  H102  1  0.77640000  0.88590000  0.51310000  1.0 0.1300339125
H  H103  1  0.73150000  0.90090000  0.55380000  1.0 0.1196406006
H  H104  1  0.72520000  0.88210000  0.49980000  1.0 0.1300339125
H  H105  1  0.69290000  0.90450000  0.46420000  1.0 0.1104006913
H  H106  1  0.72290000  0.91970000  0.42040000  1.0 0.1104006913
H  H107  1  0.72180000  0.97060000  0.49110000  1.0 0.1397528466
H  H108  1  0.69350000  0.95820000  0.44680000  1.0 0.1104006913
H  H109  1  0.74380000  0.98080000  0.38550000  1.0 0.1104006913
H  H110  1  0.73810000  0.00930000  0.41310000  1.0 0.1104006913
H  H111  1  0.85320000  0.02080000  0.36630000  1.0 0.1196406006
H  H112  1  0.86500000  0.05080000  0.40800000  1.0 0.1104006913
H  H113  1  0.81410000  0.04880000  0.39090000  1.0 0.1104006913
H  H114  1  0.79920000  0.01330000  0.36130000  1.0 0.1002065789
H  H115  1  0.69070000  0.19190000  0.34430000  1.0 0.1196406006
H  H116  1  0.69390000  0.17100000  0.29640000  1.0 0.1104006913
H  H117  1  0.66970000  0.10280000  0.75230000  1.0 0.1196406006
H  H118  1  0.70710000  0.13020000  0.72800000  1.0 0.1002065789
H  H119  1  0.53790000  0.26300000  0.78970000  1.0 0.1465044141
H  H120  1  0.50260000  0.19870000  0.76730000  1.0 0.0910880486
H  H121  1  0.48020000  0.20340000  0.84760000  1.0 0.1300339125
H  H122  1  0.49760000  0.18270000  0.87190000  1.0 0.1465044141
H  H123  1  0.46830000  0.16470000  0.82930000  1.0 0.1196406006
H  H124  1  0.53740000  0.17450000  0.75050000  1.0 0.1397528466
H  H125  1  0.49740000  0.15160000  0.76740000  1.0 0.1196406006
H  H126  1  0.52790000  0.16060000  0.80730000  1.0 0.1300339125
H  H127  1  0.67100000  0.15800000  0.69790000  1.0 0.1104006913
H  H128  1  0.67570000  0.13120000  0.66320000  1.0 0.1104006913
H  H129  1  0.61540000  0.12200000  0.67910000  1.0 0.1002065789
H  H130  1  0.62060000  0.08860000  0.67490000  1.0 0.1002065789
H  H131  1  0.54110000  0.09280000  0.79730000  1.0 0.1002065789
H  H132  1  0.56370000  0.09770000  0.84690000  1.0 0.1196406006
H  H133  1  0.72650000  0.19990000  0.74900000  1.0 0.1104006913
H  H134  1  0.73710000  0.18650000  0.79840000  1.0 0.1196406006
H  H135  1  0.71610000  0.21010000  0.85100000  1.0 0.1002065789
H  H136  1  0.72640000  0.23690000  0.80570000  1.0 0.1104006913
H  H137  1  0.58750000  0.06590000  0.80900000  1.0 0.1300339125
H  H138  1  0.56400000  0.06000000  0.76010000  1.0 0.1104006913
H  H139  1  0.56990000  0.17210000  0.83670000  1.0 0.0813775528
H  H140  1  0.59690000  0.19320000  0.79340000  1.0 0.1465044141
H  H141  1  0.55040000  0.38940000  0.97283000  1.0 0.0910880486
H  H142  1  0.60040000  0.40360000  0.90563000  1.0 0.1104006913
H  H143  1  0.56420000  0.39940000  0.88653000  1.0 0.1196406006
H  H144  1  0.57110000  0.36730000  0.88233000  1.0 0.1300339125
H  H145  1  0.54130000  0.32320000  0.93333000  1.0 0.1465044141
H  H146  1  0.51200000  0.33410000  0.92863000  1.0 0.1196406006
H  H147  1  0.52160000  0.32510000  0.98283000  1.0 0.1104006913
H  H148  1  0.31310000  0.27060000  0.15993000  1.0 0.1196406006
H  H149  1  0.30250000  0.25370000  0.07333000  1.0 0.1719970262
H  H150  1  0.29510000  0.29220000  0.01863000  1.0 0.1465044141
H  H151  1  0.33370000  0.30770000  0.04093000  1.0 0.1397528466
H  H152  1  0.30810000  0.32000000  0.06373000  1.0 0.1300339125
H  H153  1  0.24730000  0.22480000  0.08453000  1.0 0.1300339125
H  H154  1  0.24800000  0.25650000  0.05433000  1.0 0.1397528466
H  H155  1  0.24590000  0.25550000  0.11473000  1.0 0.1300339125
H  H156  1  0.46000000  0.32280000  0.26983000  1.0 0.1104006913
H  H157  1  0.44450000  0.37950000  0.27533000  1.0 0.0705980292
H  H158  1  0.49910000  0.36720000  0.27953000  1.0 0.1002065789
H  H159  1  0.49580000  0.37940000  0.33523000  1.0 0.1104006913
H  H160  1  0.50210000  0.40440000  0.28793000  1.0 0.1196406006
H  H161  1  0.43360000  0.33370000  0.36083000  1.0 0.1397528466
H  H162  1  0.41870000  0.35980000  0.35513000  1.0 0.0910880486
H  H163  1  0.45840000  0.37440000  0.37163000  1.0 0.1002065789
H  H164  1  0.45140000  0.24450000  0.46993000  1.0 0.1300339125
H  H165  1  0.47820000  0.21760000  0.44103000  1.0 0.0813775528
H  H166  1  0.44570000  0.16130000  0.48463000  1.0 0.1300339125
H  H167  1  0.47640000  0.17120000  0.44473000  1.0 0.1196406006
H  H168  1  0.43660000  0.14860000  0.42723000  1.0 0.1397528466
H  H169  1  0.42990000  0.18670000  0.36383000  1.0 0.1300339125
H  H170  1  0.46840000  0.19220000  0.36543000  1.0 0.1104006913
H  H171  1  0.46300000  0.22530000  0.36443000  1.0 0.1397528466
H  H172  1  0.30490000  0.10520000  0.54043000  1.0 0.1300339125
H  H173  1  0.26930000  0.05480000  0.55863000  1.0 0.0705980292
H  H174  1  0.30570000  0.03260000  0.54413000  1.0 0.1104006913
H  H175  1  0.30910000  0.03190000  0.60423000  1.0 0.0603085009
H  H176  1  0.33750000  0.06460000  0.57263000  1.0 0.1104006913
H  H177  1  0.29330000  0.07910000  0.65593000  1.0 0.1465044141
H  H178  1  0.29160000  0.04240000  0.64893000  1.0 0.0910880486
H  H179  1  0.25710000  0.04500000  0.64213000  1.0 0.1196406006
H  H180  1  0.24910000  0.22380000  0.93573000  1.0 0.1300339125
H  H181  1  0.20040000  0.19610000  0.97483000  1.0 0.0813775528
H  H182  1  0.16700000  0.13040000  0.93513000  1.0 0.1397528466
H  H183  1  0.16780000  0.16400000  0.91103000  1.0 0.1300339125
H  H184  1  0.15100000  0.15040000  0.96573000  1.0 0.1196406006
H  H185  1  0.20000000  0.17750000  0.04613000  1.0 0.1300339125
H  H186  1  0.23930000  0.19040000  0.02933000  1.0 0.1300339125
H  H187  1  0.21090000  0.14970000  0.02843000  1.0 0.1196406006
H  H188  1  0.17470000  0.07610000  0.79633000  1.0 0.1196406006
H  H189  1  0.18860000  0.02370000  0.81243000  1.0 0.1104006913
H  H190  1  0.20500000  0.03420000  0.75693000  1.0 0.1002065789
H  H191  1  0.16400000  0.01860000  0.76503000  1.0 0.1196406006
H  H192  1  0.22330000  0.10790000  0.73253000  1.0 0.1196406006
H  H193  1  0.20180000  0.06940000  0.70953000  1.0 0.1196406006
H  H194  1  0.23630000  0.08060000  0.74203000  1.0 0.1300339125
H  H195  1  0.56420000  0.32530000  0.21533000  1.0 0.1002065789
H  H196  1  0.53490000  0.33520000  0.22933000  1.0 0.1002065789
H  H197  1  0.60350000  0.37940000  0.19843000  1.0 0.1002065789
H  H198  1  0.57970000  0.38900000  0.23123000  1.0 0.1002065789
H  H199  1  0.50660000  0.28980000  0.57693000  1.0 0.1002065789
H  H200  1  0.53440000  0.32420000  0.60353000  1.0 0.1002065789
H  H201  1  0.57340000  0.31690000  0.55323000  1.0 0.1104006913
H  H202  1  0.54120000  0.28050000  0.53413000  1.0 0.1002065789
H  H203  1  0.59360000  0.28120000  0.60343000  1.0 0.1397528466
H  H204  1  0.59660000  0.27770000  0.54313000  1.0 0.1196406006
H  H205  1  0.53380000  0.22830000  0.54433000  1.0 0.1002065789
H  H206  1  0.56080000  0.21830000  0.56463000  1.0 0.1104006913
H  H207  1  0.52010000  0.16240000  0.59873000  1.0 0.1300339125
H  H208  1  0.49900000  0.17050000  0.55603000  1.0 0.1196406006
H  H209  1  0.45270000  0.13830000  0.62323000  1.0 0.1300339125
H  H210  1  0.47940000  0.15800000  0.66773000  1.0 0.1300339125
H  H211  1  0.46330000  0.19700000  0.71003000  1.0 0.1300339125
H  H212  1  0.43080000  0.15850000  0.70153000  1.0 0.1002065789
H  H213  1  0.40250000  0.18610000  0.71353000  1.0 0.1104006913
H  H214  1  0.40740000  0.19080000  0.65353000  1.0 0.1300339125
H  H215  1  0.42620000  0.24900000  0.69303000  1.0 0.1104006913
H  H216  1  0.45410000  0.24550000  0.72703000  1.0 0.1104006913
H  H217  1  0.39540000  0.12150000  0.34013000  1.0 0.0910880486
H  H218  1  0.36530000  0.08260000  0.32813000  1.0 0.1002065789
H  H219  1  0.35260000  0.12910000  0.38163000  1.0 0.1300339125
H  H220  1  0.35010000  0.12610000  0.32123000  1.0 0.0910880486
H  H221  1  0.31040000  0.06950000  0.32683000  1.0 0.1002065789
H  H222  1  0.29790000  0.09350000  0.35343000  1.0 0.0910880486
H  H223  1  0.24250000  0.03030000  0.39323000  1.0 0.1104006913
H  H224  1  0.25950000  0.00980000  0.36563000  1.0 0.1300339125
H  H225  1  0.25690000  0.01760000  0.47433000  1.0 0.1002065789
H  H226  1  0.23470000  0.98140000  0.44523000  1.0 0.1104006913
H  H227  1  0.26040000  0.96050000  0.50653000  1.0 0.1104006913
H  H228  1  0.28660000  0.99910000  0.52773000  1.0 0.0490072947
H  H229  1  0.31050000  0.95780000  0.47253000  1.0 0.1300339125
H  H230  1  0.31130000  0.95930000  0.53253000  1.0 0.1104006913
H  H231  1  0.35940000  0.01560000  0.53333000  1.0 0.1196406006
H  H232  1  0.36840000  0.99160000  0.49963000  1.0 0.1104006913
H  H233  1  0.40550000  0.03470000  0.42863000  1.0 0.1104006913
H  H234  1  0.41480000  0.06040000  0.47443000  1.0 0.1002065789
H  H235  1  0.41300000  0.07290000  0.37643000  1.0 0.0910880486
H  H236  1  0.42990000  0.10000000  0.42213000  1.0 0.0910880486
H  H237  1  0.14370000  0.16860000  0.85043000  1.0 0.1104006913
H  H238  1  0.10370000  0.15380000  0.85713000  1.0 0.1002065789
H  H239  1  0.11120000  0.11150000  0.82013000  1.0 0.1002065789
H  H240  1  0.09600000  0.12490000  0.77463000  1.0 0.1104006913
H  H241  1  0.12770000  0.21340000  0.88963000  1.0 0.1196406006
H  H242  1  0.10950000  0.22360000  0.84643000  1.0 0.1300339125
H  H243  1  0.16940000  0.26850000  0.88713000  1.0 0.1196406006
H  H244  1  0.15690000  0.27480000  0.83313000  1.0 0.1300339125
H  H245  1  0.21160000  0.30710000  0.79753000  1.0 0.1104006913
H  H246  1  0.19680000  0.27710000  0.75373000  1.0 0.1104006913
H  H247  1  0.24880000  0.27820000  0.82443000  1.0 0.1397528466
H  H248  1  0.26470000  0.30650000  0.78013000  1.0 0.1104006913
H  H249  1  0.23700000  0.25620000  0.71883000  1.0 0.1104006913
H  H250  1  0.27120000  0.26190000  0.74643000  1.0 0.1104006913
H  H251  1  0.16760000  0.14680000  0.69963000  1.0 0.1196406006
H  H252  1  0.18580000  0.13500000  0.74133000  1.0 0.1104006913
H  H253  1  0.23470000  0.18590000  0.72423000  1.0 0.1104006913
H  H254  1  0.21410000  0.20080000  0.69463000  1.0 0.1002065789
H  H255  1  0.50120000  0.30930000  0.67763000  1.0 0.1196406006
H  H256  1  0.47710000  0.30610000  0.62973000  1.0 0.1104006913
H  H257  1  0.43310000  0.33030000  0.08563000  1.0 0.1196406006
H  H258  1  0.42310000  0.29290000  0.06133000  1.0 0.1002065789
H  H259  1  0.72510000  0.46210000  0.12303000  1.0 0.1465044141
H  H260  1  0.69610000  0.49740000  0.10063000  1.0 0.0910880486
H  H261  1  0.72320000  0.51980000  0.18093000  1.0 0.1300339125
H  H262  1  0.68510000  0.50240000  0.20523000  1.0 0.1465044141
H  H263  1  0.69640000  0.53170000  0.16263000  1.0 0.1196406006
H  H264  1  0.63710000  0.46260000  0.08383000  1.0 0.1397528466
H  H265  1  0.65420000  0.50260000  0.10073000  1.0 0.1196406006
H  H266  1  0.63270000  0.47210000  0.14063000  1.0 0.1300339125
H  H267  1  0.48700000  0.32900000  0.03123000  1.0 0.1104006913
H  H268  1  0.45550000  0.32430000  0.99653000  1.0 0.1104006913
H  H269  1  0.50660000  0.38460000  0.01243000  1.0 0.1002065789
H  H270  1  0.46800000  0.37940000  0.00823000  1.0 0.1002065789
H  H271  1  0.55170000  0.45890000  0.13063000  1.0 0.1002065789
H  H272  1  0.53400000  0.43630000  0.18023000  1.0 0.1196406006
H  H273  1  0.47340000  0.27350000  0.08233000  1.0 0.1104006913
H  H274  1  0.44940000  0.26290000  0.13173000  1.0 0.1196406006
H  H275  1  0.49400000  0.28390000  0.18433000  1.0 0.1002065789
H  H276  1  0.51050000  0.27360000  0.13903000  1.0 0.1104006913
H  H277  1  0.47840000  0.41250000  0.14233000  1.0 0.1300339125
H  H278  1  0.49600000  0.43600000  0.09343000  1.0 0.1104006913
H  H279  1  0.60220000  0.43010000  0.17003000  1.0 0.0813775528
H  H280  1  0.59630000  0.40310000  0.12673000  1.0 0.1465044141
H  H281  1  0.83900000  0.44960000  0.30617000  1.0 0.0910880486
H  H282  1  0.80320000  0.39960000  0.23897000  1.0 0.1104006913
H  H283  1  0.83520000  0.43580000  0.21987000  1.0 0.1196406006
H  H284  1  0.79620000  0.42890000  0.21567000  1.0 0.1300339125
H  H285  1  0.78190000  0.45870000  0.26667000  1.0 0.1465044141
H  H286  1  0.82210000  0.48800000  0.26197000  1.0 0.1196406006
H  H287  1  0.80350000  0.47840000  0.31617000  1.0 0.1104006913
H  H288  1  0.95750000  0.68690000  0.49327000  1.0 0.1196406006
H  H289  1  0.95120000  0.69750000  0.40667000  1.0 0.1719970262
H  H290  1  0.99710000  0.70490000  0.35197000  1.0 0.1465044141
H  H291  1  0.97400000  0.66630000  0.37427000  1.0 0.1397528466
H  H292  1  0.01190000  0.69190000  0.39707000  1.0 0.1300339125
H  H293  1  0.97750000  0.75270000  0.41787000  1.0 0.1300339125
H  H294  1  0.00850000  0.75200000  0.38767000  1.0 0.1397528466
H  H295  1  0.00960000  0.75410000  0.44807000  1.0 0.1300339125
H  H296  1  0.86280000  0.54000000  0.60317000  1.0 0.1104006913
H  H297  1  0.93500000  0.55550000  0.60867000  1.0 0.0705980292
H  H298  1  0.86810000  0.50090000  0.61287000  1.0 0.1002065789
H  H299  1  0.88360000  0.50420000  0.66857000  1.0 0.1104006913
H  H300  1  0.90230000  0.49790000  0.62127000  1.0 0.1196406006
H  H301  1  0.90010000  0.56640000  0.69417000  1.0 0.1397528466
H  H302  1  0.94110000  0.58130000  0.68847000  1.0 0.0910880486
H  H303  1  0.91600000  0.54160000  0.70497000  1.0 0.1002065789
H  H304  1  0.79310000  0.54860000  0.80327000  1.0 0.1300339125
H  H305  1  0.73940000  0.52180000  0.77437000  1.0 0.0813775528
H  H306  1  0.71560000  0.55430000  0.81797000  1.0 0.1300339125
H  H307  1  0.69480000  0.52360000  0.77807000  1.0 0.1196406006
H  H308  1  0.71200000  0.56340000  0.76057000  1.0 0.1397528466
H  H309  1  0.75680000  0.57010000  0.69717000  1.0 0.1300339125
H  H310  1  0.72380000  0.53160000  0.69877000  1.0 0.1104006913
H  H311  1  0.76230000  0.53700000  0.69777000  1.0 0.1397528466
H  H312  1  0.80030000  0.69510000  0.87377000  1.0 0.1300339125
H  H313  1  0.78550000  0.73070000  0.89197000  1.0 0.0705980292
H  H314  1  0.72690000  0.69430000  0.87747000  1.0 0.1104006913
H  H315  1  0.72280000  0.69090000  0.93757000  1.0 0.0603085009
H  H316  1  0.72710000  0.66250000  0.90597000  1.0 0.1104006913
H  H317  1  0.78580000  0.70670000  0.98927000  1.0 0.1397528466
H  H318  1  0.75080000  0.70840000  0.98227000  1.0 0.0910880486
H  H319  1  0.78790000  0.74290000  0.97547000  1.0 0.1196406006
H  H320  1  0.97470000  0.75090000  0.26907000  1.0 0.1300339125
H  H321  1  0.99570000  0.79960000  0.30817000  1.0 0.0813775528
H  H322  1  0.96340000  0.83300000  0.26847000  1.0 0.1397528466
H  H323  1  0.99620000  0.83220000  0.24437000  1.0 0.1300339125
H  H324  1  0.99940000  0.84900000  0.29907000  1.0 0.1196406006
H  H325  1  0.97750000  0.80000000  0.37947000  1.0 0.1300339125
H  H326  1  0.95110000  0.76070000  0.36267000  1.0 0.1300339125
H  H327  1  0.93880000  0.78910000  0.36177000  1.0 0.1196406006
H  H328  1  0.90140000  0.82530000  0.12967000  1.0 0.1196406006
H  H329  1  0.83510000  0.81140000  0.14577000  1.0 0.1104006913
H  H330  1  0.82920000  0.79500000  0.09027000  1.0 0.1002065789
H  H331  1  0.85460000  0.83600000  0.09837000  1.0 0.1196406006
H  H332  1  0.88460000  0.77670000  0.06587000  1.0 0.1196406006
H  H333  1  0.86760000  0.79820000  0.04287000  1.0 0.1196406006
H  H334  1  0.84430000  0.76370000  0.07537000  1.0 0.1300339125
H  H335  1  0.76110000  0.43580000  0.54867000  1.0 0.1002065789
H  H336  1  0.80030000  0.46510000  0.56267000  1.0 0.1002065789
H  H337  1  0.77590000  0.39650000  0.53177000  1.0 0.1002065789
H  H338  1  0.80930000  0.42030000  0.56457000  1.0 0.1002065789
H  H339  1  0.78320000  0.49340000  0.91027000  1.0 0.1002065789
H  H340  1  0.78980000  0.46560000  0.93687000  1.0 0.1002065789
H  H341  1  0.74350000  0.42660000  0.88657000  1.0 0.1104006913
H  H342  1  0.73930000  0.45880000  0.86747000  1.0 0.1002065789
H  H343  1  0.68760000  0.40640000  0.93677000  1.0 0.1397528466
H  H344  1  0.68110000  0.40340000  0.87647000  1.0 0.1196406006
H  H345  1  0.69450000  0.46620000  0.87767000  1.0 0.1002065789
H  H346  1  0.65750000  0.43920000  0.89797000  1.0 0.1104006913
H  H347  1  0.64230000  0.47990000  0.93207000  1.0 0.1300339125
H  H348  1  0.67150000  0.50100000  0.88937000  1.0 0.1196406006
H  H349  1  0.68560000  0.54730000  0.95657000  1.0 0.1300339125
H  H350  1  0.67860000  0.52060000  0.00107000  1.0 0.1300339125
H  H351  1  0.73370000  0.53670000  0.04337000  1.0 0.1300339125
H  H352  1  0.72770000  0.56920000  0.03487000  1.0 0.1002065789
H  H353  1  0.78360000  0.59750000  0.04687000  1.0 0.1196406006
H  H354  1  0.78340000  0.59260000  0.98687000  1.0 0.1300339125
H  H355  1  0.82280000  0.57380000  0.02637000  1.0 0.1104006913
H  H356  1  0.79140000  0.54590000  0.06037000  1.0 0.1104006913
H  H357  1  0.72610000  0.60460000  0.67347000  1.0 0.0910880486
H  H358  1  0.71730000  0.63470000  0.66147000  1.0 0.1002065789
H  H359  1  0.77650000  0.64740000  0.71497000  1.0 0.1300339125
H  H360  1  0.77600000  0.64990000  0.65457000  1.0 0.0910880486
H  H361  1  0.75910000  0.68960000  0.66017000  1.0 0.1002065789
H  H362  1  0.79560000  0.70210000  0.68677000  1.0 0.0910880486
H  H363  1  0.78780000  0.75750000  0.72657000  1.0 0.1104006913
H  H364  1  0.75030000  0.74050000  0.69897000  1.0 0.1300339125
H  H365  1  0.76070000  0.74310000  0.80767000  1.0 0.1002065789
H  H366  1  0.74670000  0.76530000  0.77857000  1.0 0.1104006913
H  H367  1  0.70010000  0.73960000  0.83987000  1.0 0.1104006913
H  H368  1  0.71250000  0.71340000  0.86107000  1.0 0.0490072947
H  H369  1  0.64730000  0.68950000  0.80587000  1.0 0.1300339125
H  H370  1  0.64800000  0.68870000  0.86587000  1.0 0.1104006913
H  H371  1  0.65620000  0.64060000  0.86667000  1.0 0.1196406006
H  H372  1  0.62320000  0.63160000  0.83297000  1.0 0.1104006913
H  H373  1  0.62920000  0.59450000  0.76197000  1.0 0.1104006913
H  H374  1  0.64560000  0.58520000  0.80777000  1.0 0.1002065789
H  H375  1  0.65990000  0.58700000  0.70977000  1.0 0.0910880486
H  H376  1  0.67010000  0.57010000  0.75547000  1.0 0.0910880486
H  H377  1  0.02490000  0.85630000  0.18377000  1.0 0.1104006913
H  H378  1  0.05010000  0.89630000  0.19047000  1.0 0.1002065789
H  H379  1  0.00030000  0.88880000  0.15347000  1.0 0.1002065789
H  H380  1  0.02890000  0.90400000  0.10797000  1.0 0.1104006913
H  H381  1  0.08570000  0.87230000  0.22297000  1.0 0.1196406006
H  H382  1  0.11410000  0.89050000  0.17977000  1.0 0.1300339125
H  H383  1  0.09910000  0.83060000  0.22047000  1.0 0.1196406006
H  H384  1  0.11790000  0.84310000  0.16647000  1.0 0.1300339125
H  H385  1  0.09550000  0.78840000  0.13087000  1.0 0.1104006913
H  H386  1  0.08030000  0.80320000  0.08707000  1.0 0.1104006913
H  H387  1  0.02940000  0.75120000  0.15777000  1.0 0.1397528466
H  H388  1  0.04180000  0.73530000  0.11347000  1.0 0.1104006913
H  H389  1  0.01920000  0.76300000  0.05217000  1.0 0.1104006913
H  H390  1  0.99070000  0.72880000  0.07977000  1.0 0.1104006913
H  H391  1  0.97920000  0.83240000  0.03297000  1.0 0.1196406006
H  H392  1  0.94920000  0.81420000  0.07467000  1.0 0.1104006913
H  H393  1  0.95120000  0.76530000  0.05757000  1.0 0.1104006913
H  H394  1  0.98670000  0.78590000  0.02797000  1.0 0.1002065789
H  H395  1  0.80810000  0.49880000  0.01097000  1.0 0.1196406006
H  H396  1  0.82900000  0.52290000  0.96307000  1.0 0.1104006913
H  H397  1  0.89720000  0.56690000  0.41897000  1.0 0.1196406006
H  H398  1  0.86980000  0.57690000  0.39467000  1.0 0.1002065789
H  H399  1  0.73700000  0.27490000  0.45637000  1.0 0.1465044141
H  H400  1  0.80130000  0.30390000  0.43397000  1.0 0.0910880486
H  H401  1  0.79660000  0.27680000  0.51427000  1.0 0.1300339125
H  H402  1  0.81730000  0.31490000  0.53857000  1.0 0.1465044141
H  H403  1  0.83530000  0.30360000  0.49597000  1.0 0.1196406006
H  H404  1  0.82550000  0.36290000  0.41717000  1.0 0.1397528466
H  H405  1  0.84840000  0.34580000  0.43407000  1.0 0.1196406006
H  H406  1  0.83940000  0.36730000  0.47397000  1.0 0.1300339125
H  H407  1  0.84200000  0.51300000  0.36457000  1.0 0.1104006913
H  H408  1  0.86880000  0.54450000  0.32987000  1.0 0.1104006913
H  H409  1  0.87800000  0.49340000  0.34577000  1.0 0.1002065789
H  H410  1  0.91140000  0.53200000  0.34157000  1.0 0.1002065789
H  H411  1  0.90720000  0.44830000  0.46397000  1.0 0.1002065789
H  H412  1  0.90230000  0.46600000  0.51357000  1.0 0.1196406006
H  H413  1  0.80010000  0.52660000  0.41567000  1.0 0.1104006913
H  H414  1  0.81350000  0.55060000  0.46507000  1.0 0.1196406006
H  H415  1  0.78990000  0.50600000  0.51767000  1.0 0.1002065789
H  H416  1  0.76310000  0.48950000  0.47237000  1.0 0.1104006913
H  H417  1  0.93410000  0.52160000  0.47567000  1.0 0.1300339125
H  H418  1  0.94000000  0.50400000  0.42677000  1.0 0.1104006913
H  H419  1  0.82790000  0.39780000  0.50337000  1.0 0.0813775528
H  H420  1  0.80680000  0.40370000  0.46007000  1.0 0.1465044141
H  H421  1  0.38940000  0.83900000  0.13950000  1.0 0.0910880486
H  H422  1  0.40360000  0.80320000  0.07230000  1.0 0.1104006913
H  H423  1  0.39940000  0.83520000  0.05320000  1.0 0.1196406006
H  H424  1  0.36730000  0.79620000  0.04900000  1.0 0.1300339125
H  H425  1  0.32320000  0.78190000  0.10000000  1.0 0.1465044141
H  H426  1  0.33410000  0.82210000  0.09530000  1.0 0.1196406006
H  H427  1  0.32510000  0.80350000  0.14950000  1.0 0.1104006913
H  H428  1  0.27060000  0.95750000  0.32660000  1.0 0.1196406006
H  H429  1  0.25370000  0.95120000  0.24000000  1.0 0.1719970262
H  H430  1  0.29220000  0.99710000  0.18530000  1.0 0.1465044141
H  H431  1  0.30770000  0.97400000  0.20760000  1.0 0.1397528466
H  H432  1  0.32000000  0.01190000  0.23040000  1.0 0.1300339125
H  H433  1  0.22480000  0.97750000  0.25120000  1.0 0.1300339125
H  H434  1  0.25650000  0.00850000  0.22100000  1.0 0.1397528466
H  H435  1  0.25550000  0.00960000  0.28140000  1.0 0.1300339125
H  H436  1  0.32280000  0.86280000  0.43650000  1.0 0.1104006913
H  H437  1  0.37950000  0.93500000  0.44200000  1.0 0.0705980292
H  H438  1  0.36720000  0.86810000  0.44620000  1.0 0.1002065789
H  H439  1  0.37940000  0.88360000  0.50190000  1.0 0.1104006913
H  H440  1  0.40440000  0.90230000  0.45460000  1.0 0.1196406006
H  H441  1  0.33370000  0.90010000  0.52750000  1.0 0.1397528466
H  H442  1  0.35980000  0.94110000  0.52180000  1.0 0.0910880486
H  H443  1  0.37440000  0.91600000  0.53830000  1.0 0.1002065789
H  H444  1  0.24450000  0.79310000  0.63660000  1.0 0.1300339125
H  H445  1  0.21760000  0.73940000  0.60770000  1.0 0.0813775528
H  H446  1  0.16130000  0.71560000  0.65130000  1.0 0.1300339125
H  H447  1  0.17120000  0.69480000  0.61140000  1.0 0.1196406006
H  H448  1  0.14860000  0.71200000  0.59390000  1.0 0.1397528466
H  H449  1  0.18670000  0.75680000  0.53050000  1.0 0.1300339125
H  H450  1  0.19220000  0.72380000  0.53210000  1.0 0.1104006913
H  H451  1  0.22530000  0.76230000  0.53110000  1.0 0.1397528466
H  H452  1  0.10520000  0.80030000  0.70710000  1.0 0.1300339125
H  H453  1  0.05480000  0.78550000  0.72530000  1.0 0.0705980292
H  H454  1  0.03260000  0.72690000  0.71080000  1.0 0.1104006913
H  H455  1  0.03190000  0.72280000  0.77090000  1.0 0.0603085009
H  H456  1  0.06460000  0.72710000  0.73930000  1.0 0.1104006913
H  H457  1  0.07910000  0.78580000  0.82260000  1.0 0.1397528466
H  H458  1  0.04240000  0.75080000  0.81560000  1.0 0.0910880486
H  H459  1  0.04500000  0.78790000  0.80880000  1.0 0.1196406006
H  H460  1  0.22380000  0.97470000  0.10240000  1.0 0.1300339125
H  H461  1  0.19610000  0.99570000  0.14150000  1.0 0.0813775528
H  H462  1  0.13040000  0.96340000  0.10180000  1.0 0.1397528466
H  H463  1  0.16400000  0.99620000  0.07770000  1.0 0.1300339125
H  H464  1  0.15040000  0.99940000  0.13240000  1.0 0.1196406006
H  H465  1  0.17750000  0.97750000  0.21280000  1.0 0.1300339125
H  H466  1  0.19040000  0.95110000  0.19600000  1.0 0.1300339125
H  H467  1  0.14970000  0.93880000  0.19510000  1.0 0.1196406006
H  H468  1  0.07610000  0.90140000  0.96300000  1.0 0.1196406006
H  H469  1  0.02370000  0.83510000  0.97910000  1.0 0.1104006913
H  H470  1  0.03420000  0.82920000  0.92360000  1.0 0.1002065789
H  H471  1  0.01860000  0.85460000  0.93170000  1.0 0.1196406006
H  H472  1  0.10790000  0.88460000  0.89920000  1.0 0.1196406006
H  H473  1  0.06940000  0.86760000  0.87620000  1.0 0.1196406006
H  H474  1  0.08060000  0.84430000  0.90870000  1.0 0.1300339125
H  H475  1  0.32530000  0.76110000  0.38200000  1.0 0.1002065789
H  H476  1  0.33520000  0.80030000  0.39600000  1.0 0.1002065789
H  H477  1  0.37940000  0.77590000  0.36510000  1.0 0.1002065789
H  H478  1  0.38900000  0.80930000  0.39790000  1.0 0.1002065789
H  H479  1  0.28980000  0.78320000  0.74360000  1.0 0.1002065789
H  H480  1  0.32420000  0.78980000  0.77020000  1.0 0.1002065789
H  H481  1  0.31690000  0.74350000  0.71990000  1.0 0.1104006913
H  H482  1  0.28050000  0.73930000  0.70080000  1.0 0.1002065789
H  H483  1  0.28120000  0.68760000  0.77010000  1.0 0.1397528466
H  H484  1  0.27770000  0.68110000  0.70980000  1.0 0.1196406006
H  H485  1  0.22830000  0.69450000  0.71100000  1.0 0.1002065789
H  H486  1  0.21830000  0.65750000  0.73130000  1.0 0.1104006913
H  H487  1  0.16240000  0.64230000  0.76540000  1.0 0.1300339125
H  H488  1  0.17050000  0.67150000  0.72270000  1.0 0.1196406006
H  H489  1  0.13830000  0.68560000  0.78990000  1.0 0.1300339125
H  H490  1  0.15800000  0.67860000  0.83440000  1.0 0.1300339125
H  H491  1  0.19700000  0.73370000  0.87670000  1.0 0.1300339125
H  H492  1  0.15850000  0.72770000  0.86820000  1.0 0.1002065789
H  H493  1  0.18610000  0.78360000  0.88020000  1.0 0.1196406006
H  H494  1  0.19080000  0.78340000  0.82020000  1.0 0.1300339125
H  H495  1  0.24900000  0.82280000  0.85970000  1.0 0.1104006913
H  H496  1  0.24550000  0.79140000  0.89370000  1.0 0.1104006913
H  H497  1  0.12150000  0.72610000  0.50680000  1.0 0.0910880486
H  H498  1  0.08260000  0.71730000  0.49480000  1.0 0.1002065789
H  H499  1  0.12910000  0.77650000  0.54830000  1.0 0.1300339125
H  H500  1  0.12610000  0.77600000  0.48790000  1.0 0.0910880486
H  H501  1  0.06950000  0.75910000  0.49350000  1.0 0.1002065789
H  H502  1  0.09350000  0.79560000  0.52010000  1.0 0.0910880486
H  H503  1  0.03030000  0.78780000  0.55990000  1.0 0.1104006913
H  H504  1  0.00980000  0.75030000  0.53230000  1.0 0.1300339125
H  H505  1  0.01760000  0.76070000  0.64100000  1.0 0.1002065789
H  H506  1  0.98140000  0.74670000  0.61190000  1.0 0.1104006913
H  H507  1  0.96050000  0.70010000  0.67320000  1.0 0.1104006913
H  H508  1  0.99910000  0.71250000  0.69440000  1.0 0.0490072947
H  H509  1  0.95780000  0.64730000  0.63920000  1.0 0.1300339125
H  H510  1  0.95930000  0.64800000  0.69920000  1.0 0.1104006913
H  H511  1  0.01560000  0.65620000  0.70000000  1.0 0.1196406006
H  H512  1  0.99160000  0.62320000  0.66630000  1.0 0.1104006913
H  H513  1  0.03470000  0.62920000  0.59530000  1.0 0.1104006913
H  H514  1  0.06040000  0.64560000  0.64110000  1.0 0.1002065789
H  H515  1  0.07290000  0.65990000  0.54310000  1.0 0.0910880486
H  H516  1  0.10000000  0.67010000  0.58880000  1.0 0.0910880486
H  H517  1  0.16860000  0.02490000  0.01710000  1.0 0.1104006913
H  H518  1  0.15380000  0.05010000  0.02380000  1.0 0.1002065789
H  H519  1  0.11150000  0.00030000  0.98680000  1.0 0.1002065789
H  H520  1  0.12490000  0.02890000  0.94130000  1.0 0.1104006913
H  H521  1  0.21340000  0.08570000  0.05630000  1.0 0.1196406006
H  H522  1  0.22360000  0.11410000  0.01310000  1.0 0.1300339125
H  H523  1  0.26850000  0.09910000  0.05380000  1.0 0.1196406006
H  H524  1  0.27480000  0.11790000  0.99980000  1.0 0.1300339125
H  H525  1  0.30710000  0.09550000  0.96420000  1.0 0.1104006913
H  H526  1  0.27710000  0.08030000  0.92040000  1.0 0.1104006913
H  H527  1  0.27820000  0.02940000  0.99110000  1.0 0.1397528466
H  H528  1  0.30650000  0.04180000  0.94680000  1.0 0.1104006913
H  H529  1  0.25620000  0.01920000  0.88550000  1.0 0.1104006913
H  H530  1  0.26190000  0.99070000  0.91310000  1.0 0.1104006913
H  H531  1  0.14680000  0.97920000  0.86630000  1.0 0.1196406006
H  H532  1  0.13500000  0.94920000  0.90800000  1.0 0.1104006913
H  H533  1  0.18590000  0.95120000  0.89090000  1.0 0.1104006913
H  H534  1  0.20080000  0.98670000  0.86130000  1.0 0.1002065789
H  H535  1  0.30930000  0.80810000  0.84430000  1.0 0.1196406006
H  H536  1  0.30610000  0.82900000  0.79640000  1.0 0.1104006913
H  H537  1  0.33030000  0.89720000  0.25230000  1.0 0.1196406006
H  H538  1  0.29290000  0.86980000  0.22800000  1.0 0.1002065789
H  H539  1  0.46210000  0.73700000  0.28970000  1.0 0.1465044141
H  H540  1  0.49740000  0.80130000  0.26730000  1.0 0.0910880486
H  H541  1  0.51980000  0.79660000  0.34760000  1.0 0.1300339125
H  H542  1  0.50240000  0.81730000  0.37190000  1.0 0.1465044141
H  H543  1  0.53170000  0.83530000  0.32930000  1.0 0.1196406006
H  H544  1  0.46260000  0.82550000  0.25050000  1.0 0.1397528466
H  H545  1  0.50260000  0.84840000  0.26740000  1.0 0.1196406006
H  H546  1  0.47210000  0.83940000  0.30730000  1.0 0.1300339125
H  H547  1  0.32900000  0.84200000  0.19790000  1.0 0.1104006913
H  H548  1  0.32430000  0.86880000  0.16320000  1.0 0.1104006913
H  H549  1  0.38460000  0.87800000  0.17910000  1.0 0.1002065789
H  H550  1  0.37940000  0.91140000  0.17490000  1.0 0.1002065789
H  H551  1  0.45890000  0.90720000  0.29730000  1.0 0.1002065789
H  H552  1  0.43630000  0.90230000  0.34690000  1.0 0.1196406006
H  H553  1  0.27350000  0.80010000  0.24900000  1.0 0.1104006913
H  H554  1  0.26290000  0.81350000  0.29840000  1.0 0.1196406006
H  H555  1  0.28390000  0.78990000  0.35100000  1.0 0.1002065789
H  H556  1  0.27360000  0.76310000  0.30570000  1.0 0.1104006913
H  H557  1  0.41250000  0.93410000  0.30900000  1.0 0.1300339125
H  H558  1  0.43600000  0.94000000  0.26010000  1.0 0.1104006913
H  H559  1  0.43010000  0.82790000  0.33670000  1.0 0.0813775528
H  H560  1  0.40310000  0.80680000  0.29340000  1.0 0.1465044141
H  H561  1  0.44960000  0.61060000  0.47283000  1.0 0.0910880486
H  H562  1  0.39960000  0.59640000  0.40563000  1.0 0.1104006913
H  H563  1  0.43580000  0.60060000  0.38653000  1.0 0.1196406006
H  H564  1  0.42890000  0.63270000  0.38233000  1.0 0.1300339125
H  H565  1  0.45870000  0.67680000  0.43333000  1.0 0.1465044141
H  H566  1  0.48800000  0.66590000  0.42863000  1.0 0.1196406006
H  H567  1  0.47840000  0.67490000  0.48283000  1.0 0.1104006913
H  H568  1  0.68690000  0.72940000  0.65993000  1.0 0.1196406006
H  H569  1  0.69750000  0.74630000  0.57333000  1.0 0.1719970262
H  H570  1  0.70490000  0.70780000  0.51863000  1.0 0.1465044141
H  H571  1  0.66630000  0.69230000  0.54093000  1.0 0.1397528466
H  H572  1  0.69190000  0.68000000  0.56373000  1.0 0.1300339125
H  H573  1  0.75270000  0.77520000  0.58453000  1.0 0.1300339125
H  H574  1  0.75200000  0.74350000  0.55433000  1.0 0.1397528466
H  H575  1  0.75410000  0.74450000  0.61473000  1.0 0.1300339125
H  H576  1  0.54000000  0.67720000  0.76983000  1.0 0.1104006913
H  H577  1  0.55550000  0.62050000  0.77533000  1.0 0.0705980292
H  H578  1  0.50090000  0.63280000  0.77953000  1.0 0.1002065789
H  H579  1  0.50420000  0.62060000  0.83523000  1.0 0.1104006913
H  H580  1  0.49790000  0.59560000  0.78793000  1.0 0.1196406006
H  H581  1  0.56640000  0.66630000  0.86083000  1.0 0.1397528466
H  H582  1  0.58130000  0.64020000  0.85513000  1.0 0.0910880486
H  H583  1  0.54160000  0.62560000  0.87163000  1.0 0.1002065789
H  H584  1  0.54860000  0.75550000  0.96993000  1.0 0.1300339125
H  H585  1  0.52180000  0.78240000  0.94103000  1.0 0.0813775528
H  H586  1  0.55430000  0.83870000  0.98463000  1.0 0.1300339125
H  H587  1  0.52360000  0.82880000  0.94473000  1.0 0.1196406006
H  H588  1  0.56340000  0.85140000  0.92723000  1.0 0.1397528466
H  H589  1  0.57010000  0.81330000  0.86383000  1.0 0.1300339125
H  H590  1  0.53160000  0.80780000  0.86543000  1.0 0.1104006913
H  H591  1  0.53700000  0.77470000  0.86443000  1.0 0.1397528466
H  H592  1  0.69510000  0.89480000  0.04043000  1.0 0.1300339125
H  H593  1  0.73070000  0.94520000  0.05863000  1.0 0.0705980292
H  H594  1  0.69430000  0.96740000  0.04413000  1.0 0.1104006913
H  H595  1  0.69090000  0.96810000  0.10423000  1.0 0.0603085009
H  H596  1  0.66250000  0.93540000  0.07263000  1.0 0.1104006913
H  H597  1  0.70670000  0.92090000  0.15593000  1.0 0.1397528466
H  H598  1  0.70840000  0.95760000  0.14893000  1.0 0.0910880486
H  H599  1  0.74290000  0.95500000  0.14213000  1.0 0.1196406006
H  H600  1  0.75090000  0.77620000  0.43573000  1.0 0.1300339125
H  H601  1  0.79960000  0.80390000  0.47483000  1.0 0.0813775528
H  H602  1  0.83300000  0.86960000  0.43513000  1.0 0.1397528466
H  H603  1  0.83220000  0.83600000  0.41103000  1.0 0.1300339125
H  H604  1  0.84900000  0.84960000  0.46573000  1.0 0.1196406006
H  H605  1  0.80000000  0.82250000  0.54613000  1.0 0.1300339125
H  H606  1  0.76070000  0.80960000  0.52933000  1.0 0.1300339125
H  H607  1  0.78910000  0.85030000  0.52843000  1.0 0.1196406006
H  H608  1  0.82530000  0.92390000  0.29633000  1.0 0.1196406006
H  H609  1  0.81140000  0.97630000  0.31243000  1.0 0.1104006913
H  H610  1  0.79500000  0.96580000  0.25693000  1.0 0.1002065789
H  H611  1  0.83600000  0.98140000  0.26503000  1.0 0.1196406006
H  H612  1  0.77670000  0.89210000  0.23253000  1.0 0.1196406006
H  H613  1  0.79820000  0.93060000  0.20953000  1.0 0.1196406006
H  H614  1  0.76370000  0.91940000  0.24203000  1.0 0.1300339125
H  H615  1  0.43580000  0.67470000  0.71533000  1.0 0.1002065789
H  H616  1  0.46510000  0.66480000  0.72933000  1.0 0.1002065789
H  H617  1  0.39650000  0.62060000  0.69843000  1.0 0.1002065789
H  H618  1  0.42030000  0.61100000  0.73123000  1.0 0.1002065789
H  H619  1  0.49340000  0.71020000  0.07693000  1.0 0.1002065789
H  H620  1  0.46560000  0.67580000  0.10353000  1.0 0.1002065789
H  H621  1  0.42660000  0.68310000  0.05323000  1.0 0.1104006913
H  H622  1  0.45880000  0.71950000  0.03413000  1.0 0.1002065789
H  H623  1  0.40640000  0.71880000  0.10343000  1.0 0.1397528466
H  H624  1  0.40340000  0.72230000  0.04313000  1.0 0.1196406006
H  H625  1  0.46620000  0.77170000  0.04433000  1.0 0.1002065789
H  H626  1  0.43920000  0.78170000  0.06463000  1.0 0.1104006913
H  H627  1  0.47990000  0.83760000  0.09873000  1.0 0.1300339125
H  H628  1  0.50100000  0.82950000  0.05603000  1.0 0.1196406006
H  H629  1  0.54730000  0.86170000  0.12323000  1.0 0.1300339125
H  H630  1  0.52060000  0.84200000  0.16773000  1.0 0.1300339125
H  H631  1  0.53670000  0.80300000  0.21003000  1.0 0.1300339125
H  H632  1  0.56920000  0.84150000  0.20153000  1.0 0.1002065789
H  H633  1  0.59750000  0.81390000  0.21353000  1.0 0.1196406006
H  H634  1  0.59260000  0.80920000  0.15353000  1.0 0.1300339125
H  H635  1  0.57380000  0.75100000  0.19303000  1.0 0.1104006913
H  H636  1  0.54590000  0.75450000  0.22703000  1.0 0.1104006913
H  H637  1  0.60460000  0.87850000  0.84013000  1.0 0.0910880486
H  H638  1  0.63470000  0.91740000  0.82813000  1.0 0.1002065789
H  H639  1  0.64740000  0.87090000  0.88163000  1.0 0.1300339125
H  H640  1  0.64990000  0.87390000  0.82123000  1.0 0.0910880486
H  H641  1  0.68960000  0.93050000  0.82683000  1.0 0.1002065789
H  H642  1  0.70210000  0.90650000  0.85343000  1.0 0.0910880486
H  H643  1  0.75750000  0.96970000  0.89323000  1.0 0.1104006913
H  H644  1  0.74050000  0.99020000  0.86563000  1.0 0.1300339125
H  H645  1  0.74310000  0.98240000  0.97433000  1.0 0.1002065789
H  H646  1  0.76530000  0.01860000  0.94523000  1.0 0.1104006913
H  H647  1  0.73960000  0.03950000  0.00653000  1.0 0.1104006913
H  H648  1  0.71340000  0.00090000  0.02773000  1.0 0.0490072947
H  H649  1  0.68950000  0.04220000  0.97253000  1.0 0.1300339125
H  H650  1  0.68870000  0.04070000  0.03253000  1.0 0.1104006913
H  H651  1  0.64060000  0.98440000  0.03333000  1.0 0.1196406006
H  H652  1  0.63160000  0.00840000  0.99963000  1.0 0.1104006913
H  H653  1  0.59450000  0.96530000  0.92863000  1.0 0.1104006913
H  H654  1  0.58520000  0.93960000  0.97443000  1.0 0.1002065789
H  H655  1  0.58700000  0.92710000  0.87643000  1.0 0.0910880486
H  H656  1  0.57010000  0.90000000  0.92213000  1.0 0.0910880486
H  H657  1  0.85630000  0.83140000  0.35043000  1.0 0.1104006913
H  H658  1  0.89630000  0.84620000  0.35713000  1.0 0.1002065789
H  H659  1  0.88880000  0.88850000  0.32013000  1.0 0.1002065789
H  H660  1  0.90400000  0.87510000  0.27463000  1.0 0.1104006913
H  H661  1  0.87230000  0.78660000  0.38963000  1.0 0.1104006913
H  H662  1  0.89050000  0.77640000  0.34643000  1.0 0.1300339125
H  H663  1  0.83060000  0.73150000  0.38713000  1.0 0.1196406006
H  H664  1  0.84310000  0.72520000  0.33313000  1.0 0.1300339125
H  H665  1  0.78840000  0.69290000  0.29753000  1.0 0.1104006913
H  H666  1  0.80320000  0.72290000  0.25373000  1.0 0.1104006913
H  H667  1  0.75120000  0.72180000  0.32443000  1.0 0.1397528466
H  H668  1  0.73530000  0.69350000  0.28013000  1.0 0.1104006913
H  H669  1  0.76300000  0.74380000  0.21883000  1.0 0.1104006913
H  H670  1  0.72880000  0.73810000  0.24643000  1.0 0.1104006913
H  H671  1  0.83240000  0.85320000  0.19963000  1.0 0.1196406006
H  H672  1  0.81420000  0.86500000  0.24133000  1.0 0.1104006913
H  H673  1  0.76530000  0.81410000  0.22423000  1.0 0.1104006913
H  H674  1  0.78590000  0.79920000  0.19463000  1.0 0.1002065789
H  H675  1  0.49880000  0.69070000  0.17763000  1.0 0.1196406006
H  H676  1  0.52290000  0.69390000  0.12973000  1.0 0.1104006913
H  H677  1  0.56690000  0.66970000  0.58563000  1.0 0.1196406006
H  H678  1  0.57690000  0.70710000  0.56133000  1.0 0.1002065789
H  H679  1  0.27490000  0.53790000  0.62303000  1.0 0.1465044141
H  H680  1  0.30390000  0.50260000  0.60063000  1.0 0.0910880486
H  H681  1  0.27680000  0.48020000  0.68093000  1.0 0.1300339125
H  H682  1  0.31490000  0.49760000  0.70523000  1.0 0.1465044141
H  H683  1  0.30360000  0.46830000  0.66263000  1.0 0.1196406006
H  H684  1  0.36290000  0.53740000  0.58383000  1.0 0.1397528466
H  H685  1  0.34580000  0.49740000  0.60073000  1.0 0.1196406006
H  H686  1  0.36730000  0.52790000  0.64063000  1.0 0.1300339125
H  H687  1  0.51300000  0.67100000  0.53123000  1.0 0.1104006913
H  H688  1  0.54450000  0.67570000  0.49653000  1.0 0.1104006913
H  H689  1  0.49340000  0.61540000  0.51243000  1.0 0.1002065789
H  H690  1  0.53200000  0.62060000  0.50823000  1.0 0.1002065789
H  H691  1  0.44830000  0.54110000  0.63063000  1.0 0.1002065789
H  H692  1  0.46600000  0.56370000  0.68023000  1.0 0.1196406006
H  H693  1  0.52660000  0.72650000  0.58233000  1.0 0.1104006913
H  H694  1  0.55060000  0.73710000  0.63173000  1.0 0.1196406006
H  H695  1  0.50600000  0.71610000  0.68433000  1.0 0.1002065789
H  H696  1  0.48950000  0.72640000  0.63903000  1.0 0.1104006913
H  H697  1  0.52160000  0.58750000  0.64233000  1.0 0.1300339125
H  H698  1  0.50400000  0.56400000  0.59343000  1.0 0.1104006913
H  H699  1  0.39780000  0.56990000  0.67003000  1.0 0.0813775528
H  H700  1  0.40370000  0.59690000  0.62673000  1.0 0.1465044141
H  H701  1  0.16100000  0.55040000  0.80617000  1.0 0.0910880486
H  H702  1  0.19680000  0.60040000  0.73897000  1.0 0.1104006913
H  H703  1  0.16480000  0.56420000  0.71987000  1.0 0.1196406006
H  H704  1  0.20380000  0.57110000  0.71567000  1.0 0.1300339125
H  H705  1  0.21810000  0.54130000  0.76667000  1.0 0.1465044141
H  H706  1  0.17790000  0.51200000  0.76197000  1.0 0.1196406006
H  H707  1  0.19650000  0.52160000  0.81617000  1.0 0.1104006913
H  H708  1  0.04250000  0.31310000  0.99327000  1.0 0.1196406006
H  H709  1  0.04880000  0.30250000  0.90667000  1.0 0.1719970262
H  H710  1  0.00290000  0.29510000  0.85197000  1.0 0.1397528466
H  H711  1  0.02600000  0.33370000  0.87427000  1.0 0.1397528466
H  H712  1  0.98810000  0.30810000  0.89707000  1.0 0.1300339125
H  H713  1  0.02250000  0.24730000  0.91787000  1.0 0.1300339125
H  H714  1  0.99150000  0.24800000  0.88767000  1.0 0.1397528466
H  H715  1  0.99040000  0.24590000  0.94807000  1.0 0.1300339125
H  H716  1  0.13720000  0.46000000  0.10317000  1.0 0.1104006913
H  H717  1  0.06500000  0.44450000  0.10867000  1.0 0.0705980292
H  H718  1  0.13190000  0.49910000  0.11287000  1.0 0.1002065789
H  H719  1  0.11640000  0.49580000  0.16857000  1.0 0.1104006913
H  H720  1  0.09770000  0.50210000  0.12127000  1.0 0.1196406006
H  H721  1  0.09990000  0.43360000  0.19417000  1.0 0.1397528466
H  H722  1  0.05890000  0.41870000  0.18847000  1.0 0.0910880486
H  H723  1  0.08400000  0.45840000  0.20497000  1.0 0.1002065789
H  H724  1  0.20690000  0.45140000  0.30327000  1.0 0.1300339125
H  H725  1  0.26060000  0.47820000  0.27437000  1.0 0.0813775528
H  H726  1  0.28440000  0.44570000  0.31797000  1.0 0.1300339125
H  H727  1  0.30520000  0.47640000  0.27807000  1.0 0.1196406006
H  H728  1  0.28800000  0.43660000  0.26057000  1.0 0.1397528466
H  H729  1  0.24320000  0.42990000  0.19717000  1.0 0.1300339125
H  H730  1  0.27620000  0.46840000  0.19877000  1.0 0.1104006913
H  H731  1  0.23770000  0.46300000  0.19777000  1.0 0.1397528466
H  H732  1  0.19970000  0.30490000  0.37377000  1.0 0.1300339125
H  H733  1  0.21450000  0.26930000  0.39197000  1.0 0.0705980292
H  H734  1  0.27310000  0.30570000  0.37747000  1.0 0.1104006913
H  H735  1  0.27720000  0.30910000  0.43757000  1.0 0.0603085009
H  H736  1  0.27290000  0.33750000  0.40597000  1.0 0.1104006913
H  H737  1  0.21420000  0.29330000  0.48927000  1.0 0.1465044141
H  H738  1  0.24920000  0.29160000  0.48227000  1.0 0.0910880486
H  H739  1  0.21210000  0.25710000  0.47547000  1.0 0.1196406006
H  H740  1  0.02530000  0.24910000  0.76907000  1.0 0.1300339125
H  H741  1  0.00430000  0.20040000  0.80817000  1.0 0.0813775528
H  H742  1  0.03660000  0.16700000  0.76847000  1.0 0.1397528466
H  H743  1  0.00380000  0.16780000  0.74437000  1.0 0.1300339125
H  H744  1  0.00060000  0.15100000  0.79907000  1.0 0.1196406006
H  H745  1  0.02250000  0.20000000  0.87947000  1.0 0.1300339125
H  H746  1  0.04890000  0.23930000  0.86267000  1.0 0.1300339125
H  H747  1  0.06120000  0.21090000  0.86177000  1.0 0.1196406006
H  H748  1  0.09860000  0.17470000  0.62967000  1.0 0.1196406006
H  H749  1  0.16490000  0.18860000  0.64577000  1.0 0.1104006913
H  H750  1  0.17080000  0.20500000  0.59027000  1.0 0.1002065789
H  H751  1  0.14540000  0.16400000  0.59837000  1.0 0.1196406006
H  H752  1  0.11540000  0.22330000  0.56587000  1.0 0.1196406006
H  H753  1  0.13240000  0.20180000  0.54287000  1.0 0.1196406006
H  H754  1  0.15570000  0.23630000  0.57537000  1.0 0.1300339125
H  H755  1  0.23890000  0.56420000  0.04867000  1.0 0.1002065789
H  H756  1  0.19970000  0.53490000  0.06267000  1.0 0.1002065789
H  H757  1  0.22410000  0.60350000  0.03177000  1.0 0.1002065789
H  H758  1  0.19070000  0.57970000  0.06457000  1.0 0.1002065789
H  H759  1  0.21680000  0.50660000  0.41027000  1.0 0.1002065789
H  H760  1  0.21020000  0.53440000  0.43687000  1.0 0.1002065789
H  H761  1  0.25650000  0.57340000  0.38657000  1.0 0.1104006913
H  H762  1  0.26070000  0.54120000  0.36747000  1.0 0.1002065789
H  H763  1  0.31240000  0.59360000  0.43677000  1.0 0.1397528466
H  H764  1  0.31890000  0.59660000  0.37647000  1.0 0.1196406006
H  H765  1  0.30550000  0.53380000  0.37767000  1.0 0.1002065789
H  H766  1  0.34250000  0.56080000  0.39797000  1.0 0.1104006913
H  H767  1  0.35770000  0.52010000  0.43207000  1.0 0.1300339125
H  H768  1  0.32850000  0.49900000  0.38937000  1.0 0.1196406006
H  H769  1  0.31440000  0.45270000  0.45657000  1.0 0.1300339125
H  H770  1  0.32140000  0.47940000  0.50107000  1.0 0.1300339125
H  H771  1  0.26630000  0.46330000  0.54337000  1.0 0.1300339125
H  H772  1  0.27230000  0.43080000  0.53487000  1.0 0.1002065789
H  H773  1  0.21640000  0.40250000  0.54687000  1.0 0.1104006913
H  H774  1  0.21660000  0.40740000  0.48687000  1.0 0.1300339125
H  H775  1  0.17720000  0.42620000  0.52637000  1.0 0.1104006913
H  H776  1  0.20860000  0.45410000  0.56037000  1.0 0.1104006913
H  H777  1  0.27390000  0.39540000  0.17347000  1.0 0.0910880486
H  H778  1  0.28270000  0.36530000  0.16147000  1.0 0.1002065789
H  H779  1  0.22350000  0.35260000  0.21497000  1.0 0.1300339125
H  H780  1  0.22400000  0.35010000  0.15457000  1.0 0.0910880486
H  H781  1  0.24090000  0.31040000  0.16017000  1.0 0.1002065789
H  H782  1  0.20440000  0.29790000  0.18677000  1.0 0.0910880486
H  H783  1  0.21220000  0.24250000  0.22657000  1.0 0.1104006913
H  H784  1  0.24970000  0.25950000  0.19897000  1.0 0.1300339125
H  H785  1  0.23930000  0.25690000  0.30767000  1.0 0.1002065789
H  H786  1  0.25330000  0.23470000  0.27857000  1.0 0.1104006913
H  H787  1  0.29990000  0.26040000  0.33987000  1.0 0.1104006913
H  H788  1  0.28750000  0.28660000  0.36107000  1.0 0.0490072947
H  H789  1  0.35270000  0.31050000  0.30587000  1.0 0.1300339125
H  H790  1  0.35200000  0.31130000  0.36587000  1.0 0.1104006913
H  H791  1  0.34380000  0.35940000  0.36667000  1.0 0.1196406006
H  H792  1  0.37680000  0.36840000  0.33297000  1.0 0.1104006913
H  H793  1  0.37080000  0.40550000  0.26197000  1.0 0.1104006913
H  H794  1  0.35440000  0.41480000  0.30777000  1.0 0.1002065789
H  H795  1  0.34010000  0.41300000  0.20977000  1.0 0.0910880486
H  H796  1  0.32990000  0.42990000  0.25547000  1.0 0.0910880486
H  H797  1  0.97510000  0.14370000  0.68377000  1.0 0.1104006913
H  H798  1  0.94990000  0.10370000  0.69047000  1.0 0.1002065789
H  H799  1  0.99970000  0.11120000  0.65347000  1.0 0.1002065789
H  H800  1  0.97110000  0.09600000  0.60797000  1.0 0.1104006913
H  H801  1  0.91430000  0.12770000  0.72297000  1.0 0.1104006913
H  H802  1  0.88590000  0.10950000  0.67977000  1.0 0.1300339125
H  H803  1  0.90090000  0.16940000  0.72047000  1.0 0.1196406006
H  H804  1  0.88210000  0.15690000  0.66647000  1.0 0.1300339125
H  H805  1  0.90450000  0.21160000  0.63087000  1.0 0.1104006913
H  H806  1  0.91970000  0.19680000  0.58707000  1.0 0.1104006913
H  H807  1  0.97060000  0.24880000  0.65777000  1.0 0.1397528466
H  H808  1  0.95820000  0.26470000  0.61347000  1.0 0.1104006913
H  H809  1  0.98080000  0.23700000  0.55217000  1.0 0.1104006913
H  H810  1  0.00930000  0.27120000  0.57977000  1.0 0.1104006913
H  H811  1  0.02080000  0.16760000  0.53297000  1.0 0.1196406006
H  H812  1  0.05080000  0.18580000  0.57467000  1.0 0.1104006913
H  H813  1  0.04880000  0.23470000  0.55757000  1.0 0.1104006913
H  H814  1  0.01330000  0.21410000  0.52797000  1.0 0.1002065789
H  H815  1  0.19190000  0.50120000  0.51097000  1.0 0.1196406006
H  H816  1  0.17100000  0.47710000  0.46307000  1.0 0.1104006913
H  H817  1  0.10280000  0.43310000  0.91897000  1.0 0.1196406006
H  H818  1  0.13020000  0.42310000  0.89467000  1.0 0.1002065789
H  H819  1  0.26300000  0.72510000  0.95637000  1.0 0.1465044141
H  H820  1  0.19870000  0.69610000  0.93397000  1.0 0.0910880486
H  H821  1  0.20340000  0.72320000  0.01427000  1.0 0.1300339125
H  H822  1  0.18270000  0.68510000  0.03857000  1.0 0.1465044141
H  H823  1  0.16470000  0.69640000  0.99597000  1.0 0.1196406006
H  H824  1  0.17450000  0.63710000  0.91717000  1.0 0.1397528466
H  H825  1  0.15160000  0.65420000  0.93407000  1.0 0.1196406006
H  H826  1  0.16060000  0.63270000  0.97397000  1.0 0.1300339125
H  H827  1  0.15800000  0.48700000  0.86457000  1.0 0.1104006913
H  H828  1  0.13120000  0.45550000  0.82987000  1.0 0.1104006913
H  H829  1  0.12200000  0.50660000  0.84577000  1.0 0.1002065789
H  H830  1  0.08860000  0.46800000  0.84157000  1.0 0.1002065789
H  H831  1  0.09280000  0.55170000  0.96397000  1.0 0.1002065789
H  H832  1  0.09770000  0.53400000  0.01357000  1.0 0.1196406006
H  H833  1  0.19990000  0.47340000  0.91567000  1.0 0.1104006913
H  H834  1  0.18650000  0.44940000  0.96507000  1.0 0.1196406006
H  H835  1  0.21010000  0.49400000  0.01767000  1.0 0.1002065789
H  H836  1  0.23690000  0.51050000  0.97237000  1.0 0.1104006913
H  H837  1  0.06590000  0.47840000  0.97567000  1.0 0.1300339125
H  H838  1  0.06000000  0.49600000  0.92677000  1.0 0.1104006913
H  H839  1  0.17210000  0.60220000  0.00337000  1.0 0.0813775528
H  H840  1  0.19320000  0.59630000  0.96007000  1.0 0.1465044141
C  C1  1  0.64850000  0.29860000  0.64710000  1.0 0.3981210248
C  C2  1  0.66397000  0.27527000  0.63640000  1.0 0.3492185977
C  C3  1  0.63550000  0.21510000  0.66040000  1.0 0.0129084455
C  C4  1  0.63040000  0.19660000  0.71170000  1.0 0.5246255056
C  C5  1  0.62510000  0.18440000  0.62370000  1.0 0.1002065789
C  C6  1  0.61250000  0.18780000  0.56940000  1.0 -0.3992568482
C  C7  1  0.66440000  0.19530000  0.61640000  1.0 -0.4311617756
C  C8  1  0.64110000  0.28330000  0.82130000  1.0 0.4856926656
C  C9  1  0.60200000  0.26910000  0.81830000  1.0 0.3393491165
C  C10  1  0.74510000  0.12140000  0.76630000  1.0 0.4856926656
C  C11  1  0.72530000  0.08123000  0.76090000  1.0 0.2816604034
C  C12  1  0.71200000  0.03410000  0.79840000  1.0 -0.015045081
C  C13  1  0.67690000  0.01150000  0.82390000  1.0 0.5423622187
C  C14  1  0.72980000  0.02540000  0.75480000  1.0 0.0910880486
C  C15  1  0.69970000  0.00910000  0.71600000  1.0 -0.420060963
C  C16  1  0.75010000  0.00570000  0.75190000  1.0 -0.4311617756
C  C17  1  0.80010000  0.08760000  0.61600000  1.0 0.3083382503
C  C18  1  0.81293000  0.12653000  0.61110000  1.0 0.4840440409
C  C19  1  0.74460000  0.10020000  0.93680000  1.0 0.4552337484
C  C20  1  0.71835000  0.11199000  0.94620000  1.0 0.3492185977
C  C21  1  0.66620000  0.11290000  0.92310000  1.0 -0.0479647257
C  C22  1  0.65850000  0.11260000  0.86660000  1.0 0.510462293
C  C23  1  0.63670000  0.08760000  0.95900000  1.0 0.0910880486
C  C24  1  0.61990000  0.11050000  0.96610000  1.0 -0.3914052838
C  C25  1  0.64280000  0.08210000  0.01730000  1.0 -0.3992568482
C  C26  1  0.79240000  0.17848000  0.10310000  1.0 0.3492185977
C  C27  1  0.81246000  0.15945000  0.09580000  1.0 0.4680870331
C  C28  1  0.78120000  0.22150000  0.14230000  1.0 -0.0479647257
C  C29  1  0.78970000  0.23280000  0.19710000  1.0 0.4986745001
C  C30  1  0.79860000  0.25120000  0.10280000  1.0 0.1196406006
C  C31  1  0.83250000  0.28530000  0.11610000  1.0 -0.4391200271
C  C32  1  0.79860000  0.25220000  0.04360000  1.0 -0.3992568482
C  C33  1  0.81370000  0.16202000  0.26820000  1.0 0.4680870331
C  C34  1  0.85250000  0.18623000  0.27500000  1.0 0.3192491588
C  C35  1  0.89960000  0.21990000  0.22910000  1.0 -0.0619964854
C  C36  1  0.90250000  0.24320000  0.18520000  1.0 0.4271015382
C  C37  1  0.93510000  0.22560000  0.24740000  1.0 0.0705980292
C  C38  1  0.95320000  0.26600000  0.24160000  1.0 -0.3709062034
C  C39  1  0.94280000  0.22520000  0.30360000  1.0 -0.3992568482
C  C40  1  0.85973000  0.12501000  0.43870000  1.0 0.3393491165
C  C41  1  0.81990000  0.10530000  0.44310000  1.0 0.4856926656
C  C42  1  0.80170000  0.03600000  0.59540000  1.0 -0.0780552052
C  C43  1  0.81180000  0.02950000  0.54300000  1.0 0.510462293
C  C44  1  0.82310000  0.02840000  0.63380000  1.0 0.1104006913
C  C45  1  0.84670000  0.01620000  0.60920000  1.0 -0.4311617756
C  C46  1  0.82670000  0.04140000  0.68970000  1.0 -0.420060963
C  C47  1  0.92350000  0.14860000  0.54100000  1.0 0.510462293
C  C48  1  0.91610000  0.14410000  0.48400000  1.0 0.0490072947
C  C49  1  0.92940000  0.12280000  0.45410000  1.0 0.0490072947
C  C50  1  0.96660000  0.15380000  0.44640000  1.0 -0.3992568482
C  C51  1  0.91670000  0.13250000  0.40500000  1.0 -0.4311617756
C  C52  1  0.66150000  0.21430000  0.87080000  1.0 -0.0998563795
C  C53  1  0.62150000  0.20220000  0.86530000  1.0 -0.1507262694
C  C54  1  0.70120000  0.22100000  0.27550000  1.0 -0.0384630624
C  C55  1  0.70800000  0.26590000  0.22880000  1.0 -0.0619964854
C  C56  1  0.72660000  0.30690000  0.23810000  1.0 -0.2090025016
C  C57  1  0.76970000  0.31760000  0.24110000  1.0 -0.0384630624
C  C58  1  0.82540000  0.33240000  0.25830000  1.0 -0.1507262694
C  C59  1  0.83840000  0.30960000  0.30130000  1.0 -0.1768892861
C  C60  1  0.81750000  0.26080000  0.35430000  1.0 -0.0098580054
C  C61  1  0.80340000  0.22340000  0.35290000  1.0 -0.2252798646
C  C62  1  0.76000000  0.20260000  0.36020000  1.0 -0.0998563795
C  C63  1  0.89800000  0.27100000  0.01920000  1.0 -0.0928265502
C  C64  1  0.88680000  0.23480000  0.01950000  1.0 -0.1898135468
C  C65  1  0.91560000  0.22970000  0.02340000  1.0 -0.0780552052
C  C66  1  0.97650000  0.23710000  0.06240000  1.0 -0.1898135468
C  C67  1  0.99650000  0.25380000  0.11220000  1.0 -0.0998563795
C  C68  1  0.01820000  0.30140000  0.16800000  1.0 -0.0384630624
C  C69  1  0.02670000  0.34100000  0.16840000  1.0 -0.2173297772
C  C70  1  0.99630000  0.35100000  0.16680000  1.0 0.0181320993
C  C71  1  0.95050000  0.34860000  0.11300000  1.0 -0.1325349894
C  C72  1  0.92050000  0.32860000  0.07660000  1.0 -0.0928265502
C  C73  1  0.83520000  0.95790000  0.49860000  1.0 -0.167440692
C  C74  1  0.86820000  0.98330000  0.46600000  1.0 -0.0780552052
C  C75  1  0.77860000  0.90880000  0.52080000  1.0 0.0603085009
C  C76  1  0.74090000  0.90360000  0.51910000  1.0 -0.1577225169
C  C77  1  0.71551000  0.92451000  0.45330000  1.0 -0.0998563795
C  C78  1  0.71680000  0.96190000  0.45580000  1.0 -0.2559120699
C  C79  1  0.74600000  0.99220000  0.41850000  1.0 0.0129084455
C  C80  1  0.84710000  0.02640000  0.39960000  1.0 -0.1507262694
C  C81  1  0.80800000  0.02420000  0.39480000  1.0 -0.1507262694
C  C82  1  0.70330000  0.19420000  0.31230000  1.0 -0.1210865314
C  C83  1  0.68410000  0.12670000  0.73850000  1.0 -0.112227366
C  C84  1  0.53960000  0.23269000  0.71970000  1.0 0.4986745001
C  C85  1  0.54196000  0.24416000  0.77680000  1.0 -0.0346419967
C  C86  1  0.52070000  0.20350000  0.79360000  1.0 0.0603085009
C  C87  1  0.48810000  0.18670000  0.84090000  1.0 -0.4588600776
C  C88  1  0.52090000  0.16930000  0.77820000  1.0 -0.4311617756
C  C89  1  0.66590000  0.13360000  0.69550000  1.0 -0.2173297772
C  C90  1  0.62700000  0.11000000  0.69430000  1.0 -0.0998563795
C  C91  1  0.56515000  0.10175000  0.81000000  1.0 -0.1507262694
C  C92  1  0.71812000  0.18872000  0.78240000  1.0 -0.0998563795
C  C93  1  0.70970000  0.21270000  0.81600000  1.0 -0.1210865314
C  C94  1  0.58200000  0.07800000  0.78220000  1.0 -0.1898135468
C  C95  1  0.59280000  0.17764000  0.82270000  1.0 -0.0998563795
C  C96  1  0.65010000  0.35150000  0.98043000  1.0 0.3981210248
C  C97  1  0.61130000  0.33603000  0.96973000  1.0 0.3492185977
C  C98  1  0.57960000  0.36450000  0.99373000  1.0 0.0129084455
C  C99  1  0.56620000  0.36960000  0.04503000  1.0 0.5246255056
C  C100  1  0.55930000  0.37490000  0.95703000  1.0 0.1002065789
C  C101  1  0.57530000  0.38750000  0.90273000  1.0 -0.3992568482
C  C102  1  0.53090000  0.33560000  0.94973000  1.0 -0.4311617756
C  C103  1  0.64220000  0.35890000  0.15463000  1.0 0.4856926656
C  C104  1  0.66710000  0.39800000  0.15163000  1.0 0.3393491165
C  C105  1  0.37630000  0.25490000  0.09963000  1.0 0.4856926656
C  C106  1  0.35593000  0.27470000  0.09423000  1.0 0.2816604034
C  C107  1  0.32210000  0.28800000  0.13173000  1.0 -0.015045081
C  C108  1  0.33460000  0.32310000  0.15723000  1.0 0.5423622187
C  C109  1  0.29560000  0.27020000  0.08813000  1.0 0.0910880486
C  C110  1  0.30940000  0.30030000  0.04933000  1.0 -0.420060963
C  C111  1  0.25560000  0.24990000  0.08523000  1.0 -0.4311617756
C  C112  1  0.28750000  0.19990000  0.94933000  1.0 0.3083382503
C  C113  1  0.31360000  0.18707000  0.94443000  1.0 0.4840440409
C  C114  1  0.35560000  0.25540000  0.27013000  1.0 0.4552337484
C  C115  1  0.39364000  0.28165000  0.27953000  1.0 0.3492185977
C  C116  1  0.44670000  0.33380000  0.25643000  1.0 -0.0479647257
C  C117  1  0.45410000  0.34150000  0.19993000  1.0 0.510462293
C  C118  1  0.45090000  0.36330000  0.29233000  1.0 0.0910880486
C  C119  1  0.49060000  0.38010000  0.29943000  1.0 -0.3914052838
C  C120  1  0.43930000  0.35720000  0.35063000  1.0 -0.3992568482
C  C121  1  0.38608000  0.20760000  0.43643000  1.0 0.3492185977
C  C122  1  0.34699000  0.18754000  0.42913000  1.0 0.4680870331
C  C123  1  0.44030000  0.21880000  0.47563000  1.0 -0.0479647257
C  C124  1  0.44310000  0.21030000  0.53043000  1.0 0.4986745001
C  C125  1  0.45260000  0.20140000  0.43613000  1.0 0.1196406006
C  C126  1  0.45280000  0.16750000  0.44943000  1.0 -0.4391200271
C  C127  1  0.45360000  0.20140000  0.37693000  1.0 -0.3992568482
C  C128  1  0.34832000  0.18630000  0.60153000  1.0 0.4680870331
C  C129  1  0.33373000  0.14750000  0.60833000  1.0 0.3192491588
C  C130  1  0.32030000  0.10040000  0.56243000  1.0 -0.0619964854
C  C131  1  0.34070000  0.09750000  0.51853000  1.0 0.4271015382
C  C132  1  0.29050000  0.06490000  0.58073000  1.0 0.0705980292
C  C133  1  0.31280000  0.04680000  0.57493000  1.0 -0.3709062034
C  C134  1  0.28240000  0.05720000  0.63693000  1.0 -0.3992568482
C  C135  1  0.26528000  0.14027000  0.77203000  1.0 0.3393491165
C  C136  1  0.28540000  0.18010000  0.77643000  1.0 0.4856926656
C  C137  1  0.23430000  0.19830000  0.92873000  1.0 -0.0780552052
C  C138  1  0.21770000  0.18820000  0.87633000  1.0 0.510462293
C  C139  1  0.20530000  0.17690000  0.96713000  1.0 0.1104006913
C  C140  1  0.16950000  0.15330000  0.94253000  1.0 -0.4311617756
C  C141  1  0.21470000  0.17330000  0.02303000  1.0 -0.420060963
C  C142  1  0.22510000  0.07650000  0.87433000  1.0 0.510462293
C  C143  1  0.22800000  0.08390000  0.81733000  1.0 0.0490072947
C  C144  1  0.19340000  0.07060000  0.78743000  1.0 0.0490072947
C  C145  1  0.18720000  0.03340000  0.77973000  1.0 -0.3992568482
C  C146  1  0.21580000  0.08330000  0.73833000  1.0 -0.4311617756
C  C147  1  0.55280000  0.33850000  0.20413000  1.0 -0.0998563795
C  C148  1  0.58070000  0.37850000  0.19863000  1.0 -0.1507262694
C  C149  1  0.51980000  0.29880000  0.60883000  1.0 -0.0384630624
C  C150  1  0.55790000  0.29200000  0.56213000  1.0 -0.0619964854
C  C151  1  0.58030000  0.27340000  0.57143000  1.0 -0.2090025016
C  C152  1  0.54790000  0.23030000  0.57443000  1.0 -0.0384630624
C  C153  1  0.50700000  0.17460000  0.59163000  1.0 -0.1507262694
C  C154  1  0.47120000  0.16160000  0.63463000  1.0 -0.1768892861
C  C155  1  0.44330000  0.18250000  0.68763000  1.0 -0.0098580054
C  C156  1  0.42000000  0.19660000  0.68623000  1.0 -0.2252798646
C  C157  1  0.44260000  0.24000000  0.69353000  1.0 -0.0998563795
C  C158  1  0.37300000  0.10200000  0.35253000  1.0 -0.0928265502
C  C159  1  0.34800000  0.11320000  0.35283000  1.0 -0.1898135468
C  C160  1  0.31410000  0.08440000  0.35673000  1.0 -0.0780552052
C  C161  1  0.26060000  0.02350000  0.39573000  1.0 -0.1898135468
C  C162  1  0.25730000  0.00350000  0.44553000  1.0 -0.0998563795
C  C163  1  0.28320000  0.98180000  0.50133000  1.0 -0.0384630624
C  C164  1  0.31430000  0.97330000  0.50173000  1.0 -0.2173297772
C  C165  1  0.35470000  0.00370000  0.50013000  1.0 0.0181320993
C  C166  1  0.39810000  0.04950000  0.44633000  1.0 -0.1403899058
C  C167  1  0.40810000  0.07950000  0.40993000  1.0 -0.0928265502
C  C168  1  0.12270000  0.16480000  0.83193000  1.0 -0.167440692
C  C169  1  0.11510000  0.13180000  0.79933000  1.0 -0.0780552052
C  C170  1  0.13020000  0.22140000  0.85413000  1.0 0.0603085009
C  C171  1  0.16270000  0.25910000  0.85243000  1.0 -0.1577225169
C  C172  1  0.20900000  0.28449000  0.78663000  1.0 -0.0998563795
C  C173  1  0.24510000  0.28320000  0.78913000  1.0 -0.2559120699
C  C174  1  0.24620000  0.25400000  0.75183000  1.0 0.0129084455
C  C175  1  0.17930000  0.15290000  0.73293000  1.0 -0.1507262694
C  C176  1  0.21620000  0.19200000  0.72813000  1.0 -0.1507262694
C  C177  1  0.49090000  0.29670000  0.64563000  1.0 -0.1210865314
C  C178  1  0.44260000  0.31590000  0.07183000  1.0 -0.112227366
C  C179  1  0.69309000  0.46040000  0.05303000  1.0 0.4986745001
C  C180  1  0.70220000  0.45804000  0.11013000  1.0 -0.0346419967
C  C181  1  0.68280000  0.47930000  0.12693000  1.0 0.0603085009
C  C182  1  0.69860000  0.51190000  0.17423000  1.0 -0.4588600776
C  C183  1  0.64840000  0.47910000  0.11153000  1.0 -0.4311617756
C  C184  1  0.46770000  0.33410000  0.02883000  1.0 -0.2173297772
C  C185  1  0.48300000  0.37300000  0.02763000  1.0 -0.0998563795
C  C186  1  0.53660000  0.43485000  0.14333000  1.0 -0.1507262694
C  C187  1  0.47060000  0.28188000  0.11573000  1.0 -0.0998563795
C  C188  1  0.50300000  0.29030000  0.14933000  1.0 -0.1210865314
C  C189  1  0.49600000  0.41800000  0.11553000  1.0 -0.1898135468
C  C190  1  0.58484000  0.40720000  0.15603000  1.0 -0.0998563795
C  C191  1  0.70140000  0.34990000  0.31377000  1.0 0.3981210248
C  C192  1  0.72473000  0.38870000  0.30307000  1.0 0.3492185977
C  C193  1  0.78490000  0.42040000  0.32707000  1.0 0.0129084455
C  C194  1  0.80340000  0.43380000  0.37837000  1.0 0.5246255056
C  C195  1  0.81560000  0.44070000  0.29037000  1.0 0.1002065789
C  C196  1  0.81220000  0.42470000  0.23607000  1.0 -0.3992568482
C  C197  1  0.80470000  0.46910000  0.28307000  1.0 -0.4311617756
C  C198  1  0.71670000  0.35780000  0.48797000  1.0 0.4856926656
C  C199  1  0.73090000  0.33290000  0.48497000  1.0 0.3393491165
C  C200  1  0.87860000  0.62370000  0.43297000  1.0 0.4856926656
C  C201  1  0.91877000  0.64407000  0.42757000  1.0 0.2816604034
C  C202  1  0.96590000  0.67790000  0.46507000  1.0 -0.015045081
C  C203  1  0.98850000  0.66540000  0.49057000  1.0 0.5423622187
C  C204  1  0.97460000  0.70440000  0.42147000  1.0 0.0910880486
C  C205  1  0.99090000  0.69060000  0.38267000  1.0 -0.420060963
C  C206  1  0.99430000  0.74440000  0.41857000  1.0 -0.4311617756
C  C207  1  0.91240000  0.71250000  0.28267000  1.0 0.3083382503
C  C208  1  0.87347000  0.68640000  0.27777000  1.0 0.4840440409
C  C209  1  0.89980000  0.64440000  0.60347000  1.0 0.4552337484
C  C210  1  0.88801000  0.60636000  0.61287000  1.0 0.3492185977
C  C211  1  0.88710000  0.55330000  0.58977000  1.0 -0.0479647257
C  C212  1  0.88740000  0.54590000  0.53327000  1.0 0.510462293
C  C213  1  0.91240000  0.54910000  0.62567000  1.0 0.0910880486
C  C214  1  0.88950000  0.50940000  0.63277000  1.0 -0.3914052838
C  C215  1  0.91790000  0.56070000  0.68397000  1.0 -0.3992568482
C  C216  1  0.82152000  0.61392000  0.76977000  1.0 0.3492185977
C  C217  1  0.84055000  0.65301000  0.76247000  1.0 0.4680870331
C  C218  1  0.77850000  0.55970000  0.80897000  1.0 -0.0479647257
C  C219  1  0.76720000  0.55690000  0.86377000  1.0 0.4986745001
C  C220  1  0.74880000  0.54740000  0.76947000  1.0 0.1196406006
C  C221  1  0.71470000  0.54720000  0.78277000  1.0 -0.4391200271
C  C222  1  0.74780000  0.54640000  0.71027000  1.0 -0.3992568482
C  C223  1  0.83798000  0.65168000  0.93487000  1.0 0.4680870331
C  C224  1  0.81377000  0.66627000  0.94167000  1.0 0.3192491588
C  C225  1  0.78010000  0.67970000  0.89577000  1.0 -0.0619964854
C  C226  1  0.75680000  0.65930000  0.85187000  1.0 0.4271015382
C  C227  1  0.77440000  0.70950000  0.91407000  1.0 0.0705980292
C  C228  1  0.73400000  0.68720000  0.90827000  1.0 -0.3709062034
C  C229  1  0.77480000  0.71760000  0.97027000  1.0 -0.3992568482
C  C230  1  0.87499000  0.73472000  0.10537000  1.0 0.3393491165
C  C231  1  0.89470000  0.71460000  0.10977000  1.0 0.4856926656
C  C232  1  0.96400000  0.76570000  0.26207000  1.0 -0.0780552052
C  C233  1  0.97050000  0.78230000  0.20967000  1.0 0.510462293
C  C234  1  0.97160000  0.79470000  0.30047000  1.0 0.1104006913
C  C235  1  0.98380000  0.83050000  0.27587000  1.0 -0.4311617756
C  C236  1  0.95860000  0.78530000  0.35637000  1.0 -0.420060963
C  C237  1  0.85140000  0.77490000  0.20767000  1.0 0.510462293
C  C238  1  0.85590000  0.77200000  0.15067000  1.0 0.0490072947
C  C239  1  0.87720000  0.80660000  0.12077000  1.0 0.0490072947
C  C240  1  0.84620000  0.81280000  0.11307000  1.0 -0.3992568482
C  C241  1  0.86750000  0.78420000  0.07167000  1.0 -0.4311617756
C  C242  1  0.78570000  0.44720000  0.53747000  1.0 -0.0998563795
C  C243  1  0.79780000  0.41930000  0.53197000  1.0 -0.1507262694
C  C244  1  0.77900000  0.48020000  0.94217000  1.0 -0.0346419967
C  C245  1  0.73410000  0.44210000  0.89547000  1.0 -0.0619964854
C  C246  1  0.69310000  0.41970000  0.90477000  1.0 -0.2090025016
C  C247  1  0.68240000  0.45210000  0.90777000  1.0 -0.0384630624
C  C248  1  0.66760000  0.49300000  0.92497000  1.0 -0.1507262694
C  C249  1  0.69040000  0.52880000  0.96797000  1.0 -0.1768892861
C  C250  1  0.73920000  0.55670000  0.02097000  1.0 -0.0098580054
C  C251  1  0.77660000  0.58000000  0.01957000  1.0 -0.2252798646
C  C252  1  0.79740000  0.55740000  0.02687000  1.0 -0.0998563795
C  C253  1  0.72900000  0.62700000  0.68587000  1.0 -0.0928265502
C  C254  1  0.76520000  0.65200000  0.68617000  1.0 -0.1898135468
C  C255  1  0.77030000  0.68590000  0.69007000  1.0 -0.0780552052
C  C256  1  0.76290000  0.73940000  0.72907000  1.0 -0.1898135468
C  C257  1  0.74620000  0.74270000  0.77887000  1.0 -0.0998563795
C  C258  1  0.69860000  0.71680000  0.83467000  1.0 -0.0384630624
C  C259  1  0.65900000  0.68570000  0.83507000  1.0 -0.2173297772
C  C260  1  0.64900000  0.64530000  0.83347000  1.0 0.0181320993
C  C261  1  0.65140000  0.60190000  0.77967000  1.0 -0.1325349894
C  C262  1  0.67140000  0.59190000  0.74327000  1.0 -0.0928265502
C  C263  1  0.04210000  0.87730000  0.16527000  1.0 -0.167440692
C  C264  1  0.01670000  0.88490000  0.13267000  1.0 -0.0780552052
C  C265  1  0.09120000  0.86980000  0.18747000  1.0 0.0603085009
C  C266  1  0.09640000  0.83730000  0.18577000  1.0 -0.1577225169
C  C267  1  0.07549000  0.79100000  0.11997000  1.0 -0.0998563795
C  C268  1  0.03810000  0.75490000  0.12247000  1.0 -0.2559120699
C  C269  1  0.00780000  0.75380000  0.08517000  1.0 0.0129084455
C  C270  1  0.97360000  0.82070000  0.06627000  1.0 -0.1507262694
C  C271  1  0.97580000  0.78380000  0.06147000  1.0 -0.1507262694
C  C272  1  0.80580000  0.50910000  0.97897000  1.0 -0.1210865314
C  C273  1  0.87330000  0.55740000  0.40517000  1.0 -0.112227366
C  C274  1  0.76731000  0.30691000  0.38637000  1.0 0.4986745001
C  C275  1  0.75584000  0.29780000  0.44347000  1.0 -0.0346419967
C  C276  1  0.79650000  0.31720000  0.46027000  1.0 0.0603085009
C  C277  1  0.81330000  0.30140000  0.50757000  1.0 -0.4588600776
C  C278  1  0.83070000  0.35160000  0.44487000  1.0 -0.4311617756
C  C279  1  0.86640000  0.53230000  0.36217000  1.0 -0.2173297772
C  C280  1  0.89000000  0.51700000  0.36097000  1.0 -0.0998563795
C  C281  1  0.89825000  0.46340000  0.47667000  1.0 -0.1507262694
C  C282  1  0.81128000  0.52940000  0.44907000  1.0 -0.0998563795
C  C283  1  0.78730000  0.49700000  0.48267000  1.0 -0.1210865314
C  C284  1  0.92200000  0.50400000  0.44887000  1.0 -0.1898135468
C  C285  1  0.82236000  0.41516000  0.48937000  1.0 -0.0998563795
C  C286  1  0.35150000  0.70140000  0.14710000  1.0 0.3981210248
C  C287  1  0.33603000  0.72473000  0.13640000  1.0 0.3492185977
C  C288  1  0.36450000  0.78490000  0.16040000  1.0 0.0129084455
C  C289  1  0.36960000  0.80340000  0.21170000  1.0 0.5246255056
C  C290  1  0.37490000  0.81560000  0.12370000  1.0 0.1002065789
C  C291  1  0.38750000  0.81220000  0.06940000  1.0 -0.3992568482
C  C292  1  0.33560000  0.80470000  0.11640000  1.0 -0.4311617756
C  C293  1  0.35890000  0.71670000  0.32130000  1.0 0.4856926656
C  C294  1  0.39800000  0.73090000  0.31830000  1.0 0.3393491165
C  C295  1  0.25490000  0.87860000  0.26630000  1.0 0.4856926656
C  C296  1  0.27470000  0.91877000  0.26090000  1.0 0.2816604034
C  C297  1  0.28800000  0.96590000  0.29840000  1.0 -0.015045081
C  C298  1  0.32310000  0.98850000  0.32390000  1.0 0.5423622187
C  C299  1  0.27020000  0.97460000  0.25480000  1.0 0.0910880486
C  C300  1  0.30030000  0.99090000  0.21600000  1.0 -0.420060963
C  C301  1  0.24990000  0.99430000  0.25190000  1.0 -0.4311617756
C  C302  1  0.19990000  0.91240000  0.11600000  1.0 0.3083382503
C  C303  1  0.18707000  0.87347000  0.11110000  1.0 0.4840440409
C  C304  1  0.25540000  0.89980000  0.43680000  1.0 0.4552337484
C  C305  1  0.28165000  0.88801000  0.44620000  1.0 0.3492185977
C  C306  1  0.33380000  0.88710000  0.42310000  1.0 -0.0479647257
C  C307  1  0.34150000  0.88740000  0.36660000  1.0 0.510462293
C  C308  1  0.36330000  0.91240000  0.45900000  1.0 0.0910880486
C  C309  1  0.38010000  0.88950000  0.46610000  1.0 -0.3914052838
C  C310  1  0.35720000  0.91790000  0.51730000  1.0 -0.3992568482
C  C311  1  0.20760000  0.82152000  0.60310000  1.0 0.3492185977
C  C312  1  0.18754000  0.84055000  0.59580000  1.0 0.4680870331
C  C313  1  0.21880000  0.77850000  0.64230000  1.0 -0.0479647257
C  C314  1  0.21030000  0.76720000  0.69710000  1.0 0.4986745001
C  C315  1  0.20140000  0.74880000  0.60280000  1.0 0.1196406006
C  C316  1  0.16750000  0.71470000  0.61610000  1.0 -0.4391200271
C  C317  1  0.20140000  0.74780000  0.54360000  1.0 -0.3992568482
C  C318  1  0.18630000  0.83798000  0.76820000  1.0 0.4680870331
C  C319  1  0.14750000  0.81377000  0.77500000  1.0 0.3192491588
C  C320  1  0.10040000  0.78010000  0.72910000  1.0 -0.0619964854
C  C321  1  0.09750000  0.75680000  0.68520000  1.0 0.4271015382
C  C322  1  0.06490000  0.77440000  0.74740000  1.0 0.0705980292
C  C323  1  0.04680000  0.73400000  0.74160000  1.0 -0.3709062034
C  C324  1  0.05720000  0.77480000  0.80360000  1.0 -0.3992568482
C  C325  1  0.14027000  0.87499000  0.93870000  1.0 0.3393491165
C  C326  1  0.18010000  0.89470000  0.94310000  1.0 0.4856926656
C  C327  1  0.19830000  0.96400000  0.09540000  1.0 -0.0780552052
C  C328  1  0.18820000  0.97050000  0.04300000  1.0 0.510462293
C  C329  1  0.17690000  0.97160000  0.13380000  1.0 0.1104006913
C  C330  1  0.15330000  0.98380000  0.10920000  1.0 -0.4311617756
C  C331  1  0.17330000  0.95860000  0.18970000  1.0 -0.420060963
C  C332  1  0.07650000  0.85140000  0.04100000  1.0 0.510462293
C  C333  1  0.08390000  0.85590000  0.98400000  1.0 0.0490072947
C  C334  1  0.07060000  0.87720000  0.95410000  1.0 0.0490072947
C  C335  1  0.03340000  0.84620000  0.94640000  1.0 -0.3992568482
C  C336  1  0.08330000  0.86750000  0.90500000  1.0 -0.4311617756
C  C337  1  0.33850000  0.78570000  0.37080000  1.0 -0.0998563795
C  C338  1  0.37850000  0.79780000  0.36530000  1.0 -0.1507262694
C  C339  1  0.29880000  0.77900000  0.77550000  1.0 -0.0384630624
C  C340  1  0.29200000  0.73410000  0.72880000  1.0 -0.0619964854
C  C341  1  0.27340000  0.69310000  0.73810000  1.0 -0.2090025016
C  C342  1  0.23030000  0.68240000  0.74110000  1.0 -0.0384630624
C  C343  1  0.17460000  0.66760000  0.75830000  1.0 -0.1507262694
C  C344  1  0.16160000  0.69040000  0.80130000  1.0 -0.1768892861
C  C345  1  0.18250000  0.73920000  0.85430000  1.0 -0.0098580054
C  C346  1  0.19660000  0.77660000  0.85290000  1.0 -0.2252798646
C  C347  1  0.24000000  0.79740000  0.86020000  1.0 -0.0998563795
C  C348  1  0.10200000  0.72900000  0.51920000  1.0 -0.0928265502
C  C349  1  0.11320000  0.76520000  0.51950000  1.0 -0.1898135468
C  C350  1  0.08440000  0.77030000  0.52340000  1.0 -0.0780552052
C  C351  1  0.02350000  0.76290000  0.56240000  1.0 -0.1898135468
C  C352  1  0.00350000  0.74620000  0.61220000  1.0 -0.0998563795
C  C353  1  0.98180000  0.69860000  0.66800000  1.0 -0.0384630624
C  C354  1  0.97330000  0.65900000  0.66840000  1.0 -0.2173297772
C  C355  1  0.00370000  0.64900000  0.66680000  1.0 0.0181320993
C  C356  1  0.04950000  0.65140000  0.61300000  1.0 -0.1403899058
C  C357  1  0.07950000  0.67140000  0.57660000  1.0 -0.0928265502
C  C358  1  0.16480000  0.04210000  0.99860000  1.0 -0.167440692
C  C359  1  0.13180000  0.01670000  0.96600000  1.0 -0.0780552052
C  C360  1  0.22140000  0.09120000  0.02080000  1.0 0.0603085009
C  C361  1  0.25910000  0.09640000  0.01910000  1.0 -0.1577225169
C  C362  1  0.28449000  0.07549000  0.95330000  1.0 -0.0998563795
C  C363  1  0.28320000  0.03810000  0.95580000  1.0 -0.2559120699
C  C364  1  0.25400000  0.00780000  0.91850000  1.0 0.0129084455
C  C365  1  0.15290000  0.97360000  0.89960000  1.0 -0.1507262694
C  C366  1  0.19200000  0.97580000  0.89480000  1.0 -0.1507262694
C  C367  1  0.29670000  0.80580000  0.81230000  1.0 -0.1210865314
C  C368  1  0.31590000  0.87330000  0.23850000  1.0 -0.112227366
C  C369  1  0.46040000  0.76731000  0.21970000  1.0 0.4986745001
C  C370  1  0.45804000  0.75584000  0.27680000  1.0 -0.0346419967
C  C371  1  0.47930000  0.79650000  0.29360000  1.0 0.0603085009
C  C372  1  0.51190000  0.81330000  0.34090000  1.0 -0.4588600776
C  C373  1  0.47910000  0.83070000  0.27820000  1.0 -0.4311617756
C  C374  1  0.33410000  0.86640000  0.19550000  1.0 -0.2173297772
C  C375  1  0.37300000  0.89000000  0.19430000  1.0 -0.0998563795
C  C376  1  0.43485000  0.89825000  0.31000000  1.0 -0.1507262694
C  C377  1  0.28188000  0.81128000  0.28240000  1.0 -0.0998563795
C  C378  1  0.29030000  0.78730000  0.31600000  1.0 -0.1210865314
C  C379  1  0.41800000  0.92200000  0.28220000  1.0 -0.1898135468
C  C380  1  0.40720000  0.82236000  0.32270000  1.0 -0.0998563795
C  C381  1  0.34990000  0.64850000  0.48043000  1.0 0.3981210248
C  C382  1  0.38870000  0.66397000  0.46973000  1.0 0.3492185977
C  C383  1  0.42040000  0.63550000  0.49373000  1.0 0.0129084455
C  C384  1  0.43380000  0.63040000  0.54503000  1.0 0.5246255056
C  C385  1  0.44070000  0.62510000  0.45703000  1.0 0.1002065789
C  C386  1  0.42470000  0.61250000  0.40273000  1.0 -0.3992568482
C  C387  1  0.46910000  0.66440000  0.44973000  1.0 -0.4311617756
C  C388  1  0.35780000  0.64110000  0.65463000  1.0 0.4856926656
C  C389  1  0.33290000  0.60200000  0.65163000  1.0 0.3393491165
C  C390  1  0.62370000  0.74510000  0.59963000  1.0 0.4856926656
C  C391  1  0.64407000  0.72530000  0.59423000  1.0 0.2816604034
C  C392  1  0.67790000  0.71200000  0.63173000  1.0 -0.015045081
C  C393  1  0.66540000  0.67690000  0.65723000  1.0 0.5423622187
C  C394  1  0.70440000  0.72980000  0.58813000  1.0 0.0910880486
C  C395  1  0.69060000  0.69970000  0.54933000  1.0 -0.420060963
C  C396  1  0.74440000  0.75010000  0.58523000  1.0 -0.4311617756
C  C397  1  0.71250000  0.80010000  0.44933000  1.0 0.3083382503
C  C398  1  0.68640000  0.81293000  0.44443000  1.0 0.4840440409
C  C399  1  0.64440000  0.74460000  0.77013000  1.0 0.4552337484
C  C400  1  0.60636000  0.71835000  0.77953000  1.0 0.3492185977
C  C401  1  0.55330000  0.66620000  0.75643000  1.0 -0.0479647257
C  C402  1  0.54590000  0.65850000  0.69993000  1.0 0.510462293
C  C403  1  0.54910000  0.63670000  0.79233000  1.0 0.0910880486
C  C404  1  0.50940000  0.61990000  0.79943000  1.0 -0.3914052838
C  C405  1  0.56070000  0.64280000  0.85063000  1.0 -0.3992568482
C  C406  1  0.61392000  0.79240000  0.93643000  1.0 0.3492185977
C  C407  1  0.65301000  0.81246000  0.92913000  1.0 0.4680870331
C  C408  1  0.55970000  0.78120000  0.97563000  1.0 -0.0479647257
C  C409  1  0.55690000  0.78970000  0.03043000  1.0 0.4986745001
C  C410  1  0.54740000  0.79860000  0.93613000  1.0 0.1196406006
C  C411  1  0.54720000  0.83250000  0.94943000  1.0 -0.4391200271
C  C412  1  0.54640000  0.79860000  0.87693000  1.0 -0.3992568482
C  C413  1  0.65168000  0.81370000  0.10153000  1.0 0.4680870331
C  C414  1  0.66627000  0.85250000  0.10833000  1.0 0.3192491588
C  C415  1  0.67970000  0.89960000  0.06243000  1.0 -0.0619964854
C  C416  1  0.65930000  0.90250000  0.01853000  1.0 0.4271015382
C  C417  1  0.70950000  0.93510000  0.08073000  1.0 0.0705980292
C  C418  1  0.68720000  0.95320000  0.07493000  1.0 -0.3709062034
C  C419  1  0.71760000  0.94280000  0.13693000  1.0 -0.3992568482
C  C420  1  0.73472000  0.85973000  0.27203000  1.0 0.3393491165
C  C421  1  0.71460000  0.81990000  0.27643000  1.0 0.4856926656
C  C422  1  0.76570000  0.80170000  0.42873000  1.0 -0.0780552052
C  C423  1  0.78230000  0.81180000  0.37633000  1.0 0.510462293
C  C424  1  0.79470000  0.82310000  0.46713000  1.0 0.1104006913
C  C425  1  0.83050000  0.84670000  0.44253000  1.0 -0.4311617756
C  C426  1  0.78530000  0.82670000  0.52303000  1.0 -0.420060963
C  C427  1  0.77490000  0.92350000  0.37433000  1.0 0.510462293
C  C428  1  0.77200000  0.91610000  0.31733000  1.0 0.0490072947
C  C429  1  0.80660000  0.92940000  0.28743000  1.0 0.0490072947
C  C430  1  0.81280000  0.96660000  0.27973000  1.0 -0.3992568482
C  C431  1  0.78420000  0.91670000  0.23833000  1.0 -0.4311617756
C  C432  1  0.44720000  0.66150000  0.70413000  1.0 -0.0998563795
C  C433  1  0.41930000  0.62150000  0.69863000  1.0 -0.1507262694
C  C434  1  0.48020000  0.70120000  0.10883000  1.0 -0.0384630624
C  C435  1  0.44210000  0.70800000  0.06213000  1.0 -0.0619964854
C  C436  1  0.41970000  0.72660000  0.07143000  1.0 -0.2090025016
C  C437  1  0.45210000  0.76970000  0.07443000  1.0 -0.0384630624
C  C438  1  0.49300000  0.82540000  0.09163000  1.0 -0.1507262694
C  C439  1  0.52880000  0.83840000  0.13463000  1.0 -0.1768892861
C  C440  1  0.55670000  0.81750000  0.18763000  1.0 -0.0098580054
C  C441  1  0.58000000  0.80340000  0.18623000  1.0 -0.2252798646
C  C442  1  0.55740000  0.76000000  0.19353000  1.0 -0.0998563795
C  C443  1  0.62700000  0.89800000  0.85253000  1.0 -0.0928265502
C  C444  1  0.65200000  0.88680000  0.85283000  1.0 -0.1898135468
C  C445  1  0.68590000  0.91560000  0.85673000  1.0 -0.0780552052
C  C446  1  0.73940000  0.97650000  0.89573000  1.0 -0.1898135468
C  C447  1  0.74270000  0.99650000  0.94553000  1.0 -0.0998563795
C  C448  1  0.71680000  0.01820000  0.00133000  1.0 -0.0384630624
C  C449  1  0.68570000  0.02670000  0.00173000  1.0 -0.2173297772
C  C450  1  0.64530000  0.99630000  0.00013000  1.0 0.0181320993
C  C451  1  0.60190000  0.95050000  0.94633000  1.0 -0.1325349894
C  C452  1  0.59190000  0.92050000  0.90993000  1.0 -0.0928265502
C  C453  1  0.87730000  0.83520000  0.33193000  1.0 -0.167440692
C  C454  1  0.88490000  0.86820000  0.29933000  1.0 -0.0780552052
C  C455  1  0.86980000  0.77860000  0.35413000  1.0 0.0603085009
C  C456  1  0.83730000  0.74090000  0.35243000  1.0 -0.1577225169
C  C457  1  0.79100000  0.71551000  0.28663000  1.0 -0.0998563795
C  C458  1  0.75490000  0.71680000  0.28913000  1.0 -0.2559120699
C  C459  1  0.75380000  0.74600000  0.25183000  1.0 0.0129084455
C  C460  1  0.82070000  0.84710000  0.23293000  1.0 -0.1507262694
C  C461  1  0.78380000  0.80800000  0.22813000  1.0 -0.1507262694
C  C462  1  0.50910000  0.70330000  0.14563000  1.0 -0.1210865314
C  C463  1  0.55740000  0.68410000  0.57183000  1.0 -0.112227366
C  C464  1  0.30691000  0.53960000  0.55303000  1.0 0.4986745001
C  C465  1  0.29780000  0.54196000  0.61013000  1.0 -0.0346419967
C  C466  1  0.31720000  0.52070000  0.62693000  1.0 0.0603085009
C  C467  1  0.30140000  0.48810000  0.67423000  1.0 -0.4588600776
C  C468  1  0.35160000  0.52090000  0.61153000  1.0 -0.4311617756
C  C469  1  0.53230000  0.66590000  0.52883000  1.0 -0.2173297772
C  C470  1  0.51700000  0.62700000  0.52763000  1.0 -0.0998563795
C  C471  1  0.46340000  0.56515000  0.64333000  1.0 -0.1507262694
C  C472  1  0.52940000  0.71812000  0.61573000  1.0 -0.0998563795
C  C473  1  0.49700000  0.70970000  0.64933000  1.0 -0.1210865314
C  C474  1  0.50400000  0.58200000  0.61553000  1.0 -0.1898135468
C  C475  1  0.41516000  0.59280000  0.65603000  1.0 -0.0998563795
C  C476  1  0.29860000  0.65010000  0.81377000  1.0 0.3981210248
C  C477  1  0.27527000  0.61130000  0.80307000  1.0 0.3492185977
C  C478  1  0.21510000  0.57960000  0.82707000  1.0 0.0129084455
C  C479  1  0.19660000  0.56620000  0.87837000  1.0 0.5246255056
C  C480  1  0.18440000  0.55930000  0.79037000  1.0 0.1002065789
C  C481  1  0.18780000  0.57530000  0.73607000  1.0 -0.3992568482
C  C482  1  0.19530000  0.53090000  0.78307000  1.0 -0.4311617756
C  C483  1  0.28330000  0.64220000  0.98797000  1.0 0.4856926656
C  C484  1  0.26910000  0.66710000  0.98497000  1.0 0.3393491165
C  C485  1  0.12140000  0.37630000  0.93297000  1.0 0.4856926656
C  C486  1  0.08123000  0.35593000  0.92757000  1.0 0.2816604034
C  C487  1  0.03410000  0.32210000  0.96507000  1.0 -0.015045081
C  C488  1  0.01150000  0.33460000  0.99057000  1.0 0.5423622187
C  C489  1  0.02540000  0.29560000  0.92147000  1.0 0.0910880486
C  C490  1  0.00910000  0.30940000  0.88267000  1.0 -0.420060963
C  C491  1  0.00570000  0.25560000  0.91857000  1.0 -0.4311617756
C  C492  1  0.08760000  0.28750000  0.78267000  1.0 0.3083382503
C  C493  1  0.12653000  0.31360000  0.77777000  1.0 0.4840440409
C  C494  1  0.10020000  0.35560000  0.10347000  1.0 0.4552337484
C  C495  1  0.11199000  0.39364000  0.11287000  1.0 0.3492185977
C  C496  1  0.11290000  0.44670000  0.08977000  1.0 -0.0479647257
C  C497  1  0.11260000  0.45410000  0.03327000  1.0 0.510462293
C  C498  1  0.08760000  0.45090000  0.12567000  1.0 0.0910880486
C  C499  1  0.11050000  0.49060000  0.13277000  1.0 -0.3914052838
C  C500  1  0.08210000  0.43930000  0.18397000  1.0 -0.3992568482
C  C501  1  0.17848000  0.38608000  0.26977000  1.0 0.3492185977
C  C502  1  0.15945000  0.34699000  0.26247000  1.0 0.4680870331
C  C503  1  0.22150000  0.44030000  0.30897000  1.0 -0.0479647257
C  C504  1  0.23280000  0.44310000  0.36377000  1.0 0.4986745001
C  C505  1  0.25120000  0.45260000  0.26947000  1.0 0.1196406006
C  C506  1  0.28530000  0.45280000  0.28277000  1.0 -0.4391200271
C  C507  1  0.25220000  0.45360000  0.21027000  1.0 -0.3992568482
C  C508  1  0.16202000  0.34832000  0.43487000  1.0 0.4680870331
C  C509  1  0.18623000  0.33373000  0.44167000  1.0 0.3192491588
C  C510  1  0.21990000  0.32030000  0.39577000  1.0 -0.0619964854
C  C511  1  0.24320000  0.34070000  0.35187000  1.0 0.4271015382
C  C512  1  0.22560000  0.29050000  0.41407000  1.0 0.0705980292
C  C513  1  0.26600000  0.31280000  0.40827000  1.0 -0.3709062034
C  C514  1  0.22520000  0.28240000  0.47027000  1.0 -0.3992568482
C  C515  1  0.12501000  0.26528000  0.60537000  1.0 0.3393491165
C  C516  1  0.10530000  0.28540000  0.60977000  1.0 0.4856926656
C  C517  1  0.03600000  0.23430000  0.76207000  1.0 -0.0780552052
C  C518  1  0.02950000  0.21770000  0.70967000  1.0 0.510462293
C  C519  1  0.02840000  0.20530000  0.80047000  1.0 0.1104006913
C  C520  1  0.01620000  0.16950000  0.77587000  1.0 -0.4311617756
C  C521  1  0.04140000  0.21470000  0.85637000  1.0 -0.420060963
C  C522  1  0.14860000  0.22510000  0.70767000  1.0 0.510462293
C  C523  1  0.14410000  0.22800000  0.65067000  1.0 0.0490072947
C  C524  1  0.12280000  0.19340000  0.62077000  1.0 0.0490072947
C  C525  1  0.15380000  0.18720000  0.61307000  1.0 -0.3992568482
C  C526  1  0.13250000  0.21580000  0.57167000  1.0 -0.4311617756
C  C527  1  0.21430000  0.55280000  0.03747000  1.0 -0.0998563795
C  C528  1  0.20220000  0.58070000  0.03197000  1.0 -0.1507262694
C  C529  1  0.22100000  0.51980000  0.44217000  1.0 -0.0384630624
C  C530  1  0.26590000  0.55790000  0.39547000  1.0 -0.0619964854
C  C531  1  0.30690000  0.58030000  0.40477000  1.0 -0.2090025016
C  C532  1  0.31760000  0.54790000  0.40777000  1.0 -0.0384630624
C  C533  1  0.33240000  0.50700000  0.42497000  1.0 -0.1507262694
C  C534  1  0.30960000  0.47120000  0.46797000  1.0 -0.1768892861
C  C535  1  0.26080000  0.44330000  0.52097000  1.0 -0.0098580054
C  C536  1  0.22340000  0.42000000  0.51957000  1.0 -0.2252798646
C  C537  1  0.20260000  0.44260000  0.52687000  1.0 -0.0998563795
C  C538  1  0.27100000  0.37300000  0.18587000  1.0 -0.0928265502
C  C539  1  0.23480000  0.34800000  0.18617000  1.0 -0.1898135468
C  C540  1  0.22970000  0.31410000  0.19007000  1.0 -0.0780552052
C  C541  1  0.23710000  0.26060000  0.22907000  1.0 -0.1898135468
C  C542  1  0.25380000  0.25730000  0.27887000  1.0 -0.0998563795
C  C543  1  0.30140000  0.28320000  0.33467000  1.0 -0.0384630624
C  C544  1  0.34100000  0.31430000  0.33507000  1.0 -0.2173297772
C  C545  1  0.35100000  0.35470000  0.33347000  1.0 0.0181320993
C  C546  1  0.34860000  0.39810000  0.27967000  1.0 -0.1403899058
C  C547  1  0.32860000  0.40810000  0.24327000  1.0 -0.0928265502
C  C548  1  0.95790000  0.12270000  0.66527000  1.0 -0.167440692
C  C549  1  0.98330000  0.11510000  0.63267000  1.0 -0.0780552052
C  C550  1  0.90880000  0.13020000  0.68747000  1.0 0.0603085009
C  C551  1  0.90360000  0.16270000  0.68577000  1.0 -0.1577225169
C  C552  1  0.92451000  0.20900000  0.61997000  1.0 -0.0998563795
C  C553  1  0.96190000  0.24510000  0.62247000  1.0 -0.2559120699
C  C554  1  0.99220000  0.24620000  0.58517000  1.0 0.0129084455
C  C555  1  0.02640000  0.17930000  0.56627000  1.0 -0.1507262694
C  C556  1  0.02420000  0.21620000  0.56147000  1.0 -0.1507262694
C  C557  1  0.19420000  0.49090000  0.47897000  1.0 -0.1210865314
C  C558  1  0.12670000  0.44260000  0.90517000  1.0 -0.112227366
C  C559  1  0.23269000  0.69309000  0.88637000  1.0 0.4986745001
C  C560  1  0.24416000  0.70220000  0.94347000  1.0 -0.0346419967
C  C561  1  0.20350000  0.68280000  0.96027000  1.0 0.0603085009
C  C562  1  0.18670000  0.69860000  0.00757000  1.0 -0.4588600776
C  C563  1  0.16930000  0.64840000  0.94487000  1.0 -0.4311617756
C  C564  1  0.13360000  0.46770000  0.86217000  1.0 -0.2173297772
C  C565  1  0.11000000  0.48300000  0.86097000  1.0 -0.0998563795
C  C566  1  0.10175000  0.53660000  0.97667000  1.0 -0.1507262694
C  C567  1  0.18872000  0.47060000  0.94907000  1.0 -0.0998563795
C  C568  1  0.21270000  0.50300000  0.98267000  1.0 -0.1210865314
C  C569  1  0.07800000  0.49600000  0.94887000  1.0 -0.1898135468
C  C570  1  0.17764000  0.58484000  0.98937000  1.0 -0.0998563795
N  N1  1  0.64410000  0.25160000  0.66830000  1.0 -0.3479654088
N  N2  1  0.57920000  0.24509000  0.77570000  1.0 -0.3914052838
N  N3  1  0.70180000  0.06120000  0.79320000  1.0 -0.3588385104
N  N4  1  0.69360000  0.10330000  0.91330000  1.0 -0.3709062034
N  N5  1  0.79870000  0.20020000  0.13890000  1.0 -0.3479654088
N  N6  1  0.86260000  0.20800000  0.23820000  1.0 -0.3709062034
N  N7  1  0.61730000  0.10190000  0.74870000  1.0 -0.0998563795
N  N8  1  0.68750000  0.15340000  0.77490000  1.0 -0.1507262694
N  N9  1  0.67390000  0.21040000  0.81980000  1.0 -0.1403899058
N  N10  1  0.71070000  0.25140000  0.27250000  1.0 -0.1403899058
N  N11  1  0.79090000  0.31690000  0.26910000  1.0 -0.1325349894
N  N12  1  0.81800000  0.27190000  0.31150000  1.0 -0.1507262694
N  N13  1  0.74200000  0.21130000  0.32090000  1.0 -0.1898135468
N  N14  1  0.97460000  0.34190000  0.13740000  1.0 -0.167440692
N  N15  1  0.91020000  0.28970000  0.07060000  1.0 -0.1507262694
N  N16  1  0.94020000  0.24230000  0.07030000  1.0 -0.1325349894
N  N17  1  0.00470000  0.29020000  0.12070000  1.0 -0.1577225169
N  N18  1  0.87600000  0.12152000  0.48020000  1.0 -0.4112026905
N  N19  1  0.82190000  0.07380000  0.59400000  1.0 -0.3709062034
N  N20  1  0.79800000  0.92650000  0.49910000  1.0 -0.1210865314
N  N21  1  0.84880000  0.00020000  0.44220000  1.0 -0.1768892861
N  N22  1  0.77620000  0.00890000  0.42680000  1.0 -0.1507262694
N  N23  1  0.74260000  0.93680000  0.49230000  1.0 -0.1325349894
N  N24  1  0.58730000  0.14350000  0.79990000  1.0 -0.167440692
N  N25  1  0.60750000  0.35590000  0.00163000  1.0 -0.3479654088
N  N26  1  0.66589000  0.42080000  0.10903000  1.0 -0.3914052838
N  N27  1  0.35940000  0.29820000  0.12653000  1.0 -0.3588385104
N  N28  1  0.40970000  0.30640000  0.24663000  1.0 -0.3709062034
N  N29  1  0.40150000  0.20130000  0.47223000  1.0 -0.3479654088
N  N30  1  0.34540000  0.13740000  0.57153000  1.0 -0.3709062034
N  N31  1  0.48460000  0.38270000  0.08203000  1.0 -0.0998563795
N  N32  1  0.46590000  0.31250000  0.10823000  1.0 -0.1507262694
N  N33  1  0.53650000  0.32610000  0.15313000  1.0 -0.1403899058
N  N34  1  0.54070000  0.28930000  0.60583000  1.0 -0.1403899058
N  N35  1  0.52600000  0.20910000  0.60243000  1.0 -0.1325349894
N  N36  1  0.45390000  0.18200000  0.64483000  1.0 -0.1507262694
N  N37  1  0.46930000  0.25800000  0.65423000  1.0 -0.1898135468
N  N38  1  0.36730000  0.02540000  0.47073000  1.0 -0.167440692
N  N39  1  0.37950000  0.08980000  0.40393000  1.0 -0.1507262694
N  N40  1  0.30210000  0.05980000  0.40363000  1.0 -0.1325349894
N  N41  1  0.28550000  0.99530000  0.45403000  1.0 -0.1577225169
N  N42  1  0.24552000  0.12400000  0.81353000  1.0 -0.4112026905
N  N43  1  0.25190000  0.17810000  0.92733000  1.0 -0.3709062034
N  N44  1  0.12850000  0.20200000  0.83243000  1.0 -0.1210865314
N  N45  1  0.15140000  0.15120000  0.77553000  1.0 -0.1768892861
N  N46  1  0.23270000  0.22380000  0.76013000  1.0 -0.1507262694
N  N47  1  0.19420000  0.25740000  0.82563000  1.0 -0.1325349894
N  N48  1  0.55620000  0.41270000  0.13323000  1.0 -0.167440692
N  N49  1  0.74840000  0.39250000  0.33497000  1.0 -0.3479654088
N  N50  1  0.75491000  0.33411000  0.44237000  1.0 -0.3914052838
N  N51  1  0.93880000  0.64060000  0.45987000  1.0 -0.3588385104
N  N52  1  0.89670000  0.59030000  0.57997000  1.0 -0.3709062034
N  N53  1  0.79980000  0.59850000  0.80557000  1.0 -0.3479654088
N  N54  1  0.79200000  0.65460000  0.90487000  1.0 -0.3709062034
N  N55  1  0.89810000  0.51540000  0.41537000  1.0 -0.0998563795
N  N56  1  0.84660000  0.53410000  0.44157000  1.0 -0.1507262694
N  N57  1  0.78960000  0.46350000  0.48647000  1.0 -0.1403899058
N  N58  1  0.74860000  0.45930000  0.93917000  1.0 -0.1403899058
N  N59  1  0.68310000  0.47400000  0.93577000  1.0 -0.1325349894
N  N60  1  0.72810000  0.54610000  0.97817000  1.0 -0.1507262694
N  N61  1  0.78870000  0.53070000  0.98757000  1.0 -0.1898135468
N  N62  1  0.65810000  0.63270000  0.80407000  1.0 -0.167440692
N  N63  1  0.71030000  0.62050000  0.73727000  1.0 -0.1507262694
N  N64  1  0.75770000  0.69790000  0.73697000  1.0 -0.1325349894
N  N65  1  0.70980000  0.71450000  0.78737000  1.0 -0.1577225169
N  N66  1  0.87848000  0.75448000  0.14687000  1.0 -0.4112026905
N  N67  1  0.92620000  0.74810000  0.26067000  1.0 -0.3709062034
N  N68  1  0.07350000  0.87150000  0.16577000  1.0 -0.1210865314
N  N69  1  0.99980000  0.84860000  0.10887000  1.0 -0.1768892861
N  N70  1  0.99110000  0.76730000  0.09347000  1.0 -0.1507262694
N  N71  1  0.06320000  0.80580000  0.15897000  1.0 -0.1325349894
N  N72  1  0.85650000  0.44380000  0.46657000  1.0 -0.167440692
N  N73  1  0.35590000  0.74840000  0.16830000  1.0 -0.3479654088
N  N74  1  0.42080000  0.75491000  0.27570000  1.0 -0.3914052838
N  N75  1  0.29820000  0.93880000  0.29320000  1.0 -0.3588385104
N  N76  1  0.30640000  0.89670000  0.41330000  1.0 -0.3709062034
N  N77  1  0.20130000  0.79980000  0.63890000  1.0 -0.3479654088
N  N78  1  0.13740000  0.79200000  0.73820000  1.0 -0.3709062034
N  N79  1  0.38270000  0.89810000  0.24870000  1.0 -0.112227366
N  N80  1  0.31250000  0.84660000  0.27490000  1.0 -0.1507262694
N  N81  1  0.32610000  0.78960000  0.31980000  1.0 -0.1403899058
N  N82  1  0.28930000  0.74860000  0.77250000  1.0 -0.1403899058
N  N83  1  0.20910000  0.68310000  0.76910000  1.0 -0.1325349894
N  N84  1  0.18200000  0.72810000  0.81150000  1.0 -0.1507262694
N  N85  1  0.25800000  0.78870000  0.82090000  1.0 -0.1898135468
N  N86  1  0.02540000  0.65810000  0.63740000  1.0 -0.167440692
N  N87  1  0.08980000  0.71030000  0.57060000  1.0 -0.1577225169
N  N88  1  0.05980000  0.75770000  0.57030000  1.0 -0.1325349894
N  N89  1  0.99530000  0.70980000  0.62070000  1.0 -0.1577225169
N  N90  1  0.12400000  0.87848000  0.98020000  1.0 -0.4112026905
N  N91  1  0.17810000  0.92620000  0.09400000  1.0 -0.3709062034
N  N92  1  0.20200000  0.07350000  0.99910000  1.0 -0.1210865314
N  N93  1  0.15120000  0.99980000  0.94220000  1.0 -0.1768892861
N  N94  1  0.22380000  0.99110000  0.92680000  1.0 -0.1507262694
N  N95  1  0.25740000  0.06320000  0.99230000  1.0 -0.1325349894
N  N96  1  0.41270000  0.85650000  0.29990000  1.0 -0.167440692
N  N97  1  0.39250000  0.64410000  0.50163000  1.0 -0.3479654088
N  N98  1  0.33411000  0.57920000  0.60903000  1.0 -0.3914052838
N  N99  1  0.64060000  0.70180000  0.62653000  1.0 -0.3588385104
N  N100  1  0.59030000  0.69360000  0.74663000  1.0 -0.3709062034
N  N101  1  0.59850000  0.79870000  0.97223000  1.0 -0.3479654088
N  N102  1  0.65460000  0.86260000  0.07153000  1.0 -0.3709062034
N  N103  1  0.51540000  0.61730000  0.58203000  1.0 -0.0998563795
N  N104  1  0.53410000  0.68750000  0.60823000  1.0 -0.1507262694
N  N105  1  0.46350000  0.67390000  0.65313000  1.0 -0.1403899058
N  N106  1  0.45930000  0.71070000  0.10583000  1.0 -0.1403899058
N  N107  1  0.47400000  0.79090000  0.10243000  1.0 -0.1325349894
N  N108  1  0.54610000  0.81800000  0.14483000  1.0 -0.1507262694
N  N109  1  0.53070000  0.74200000  0.15423000  1.0 -0.1898135468
N  N110  1  0.63270000  0.97460000  0.97073000  1.0 -0.167440692
N  N111  1  0.62050000  0.91020000  0.90393000  1.0 -0.1577225169
N  N112  1  0.69790000  0.94020000  0.90363000  1.0 -0.1325349894
N  N113  1  0.71450000  0.00470000  0.95403000  1.0 -0.1577225169
N  N114  1  0.75448000  0.87600000  0.31353000  1.0 -0.4112026905
N  N115  1  0.74810000  0.82190000  0.42733000  1.0 -0.3709062034
N  N116  1  0.87150000  0.79800000  0.33243000  1.0 -0.1210865314
N  N117  1  0.84860000  0.84880000  0.27553000  1.0 -0.1768892861
N  N118  1  0.76730000  0.77620000  0.26013000  1.0 -0.1507262694
N  N119  1  0.80580000  0.74260000  0.32563000  1.0 -0.1325349894
N  N120  1  0.44380000  0.58730000  0.63323000  1.0 -0.167440692
N  N121  1  0.25160000  0.60750000  0.83497000  1.0 -0.3479654088
N  N122  1  0.24509000  0.66589000  0.94237000  1.0 -0.3914052838
N  N123  1  0.06120000  0.35940000  0.95987000  1.0 -0.3588385104
N  N124  1  0.10330000  0.40970000  0.07997000  1.0 -0.3709062034
N  N125  1  0.20020000  0.40150000  0.30557000  1.0 -0.3479654088
N  N126  1  0.20800000  0.34540000  0.40487000  1.0 -0.3709062034
N  N127  1  0.10190000  0.48460000  0.91537000  1.0 -0.112227366
N  N128  1  0.15340000  0.46590000  0.94157000  1.0 -0.1507262694
N  N129  1  0.21040000  0.53650000  0.98647000  1.0 -0.1403899058
N  N130  1  0.25140000  0.54070000  0.43917000  1.0 -0.1403899058
N  N131  1  0.31690000  0.52600000  0.43577000  1.0 -0.1325349894
N  N132  1  0.27190000  0.45390000  0.47817000  1.0 -0.1507262694
N  N133  1  0.21130000  0.46930000  0.48757000  1.0 -0.1898135468
N  N134  1  0.34190000  0.36730000  0.30407000  1.0 -0.167440692
N  N135  1  0.28970000  0.37950000  0.23727000  1.0 -0.1507262694
N  N136  1  0.24230000  0.30210000  0.23697000  1.0 -0.1325349894
N  N137  1  0.29020000  0.28550000  0.28737000  1.0 -0.1577225169
N  N138  1  0.12152000  0.24552000  0.64687000  1.0 -0.4112026905
N  N139  1  0.07380000  0.25190000  0.76067000  1.0 -0.3709062034
N  N140  1  0.92650000  0.12850000  0.66577000  1.0 -0.1210865314
N  N141  1  0.00020000  0.15140000  0.60887000  1.0 -0.1768892861
N  N142  1  0.00890000  0.23270000  0.59347000  1.0 -0.1507262694
N  N143  1  0.93680000  0.19420000  0.65897000  1.0 -0.1325349894
N  N144  1  0.14350000  0.55620000  0.96657000  1.0 -0.167440692
O  O1  1  0.68790000  0.27650000  0.60720000  1.0 -0.4699494385
O  O2  1  0.66173000  0.32683000  0.62160000  1.0 -0.420060963
O  O3  1  0.62569000  0.29989000  0.67410000  1.0 -0.3914052838
O  O4  1  0.61950000  0.21170000  0.74320000  1.0 -0.4588600776
O  O5  1  0.63910000  0.17850000  0.71490000  1.0 -0.3914052838
O  O6  1  0.55880000  0.22640000  0.68500000  1.0 -0.5749442323
O  O7  1  0.65300000  0.27360000  0.78370000  1.0 -0.4900739373
O  O8  1  0.65980000  0.30040000  0.85950000  1.0 -0.5083677266
O  O9  1  0.59080000  0.27650000  0.85850000  1.0 -0.4391200271
O  O10  1  0.73340000  0.06860000  0.72240000  1.0 -0.420060963
O  O11  1  0.76710000  0.13500000  0.72890000  1.0 -0.5309657915
O  O12  1  0.73240000  0.12720000  0.80710000  1.0 -0.5083677266
O  O13  1  0.67040000  0.02450000  0.87900000  1.0 -0.5388204657
O  O14  1  0.77600000  0.06570000  0.64690000  1.0 -0.4588600776
O  O15  1  0.79950000  0.14120000  0.63970000  1.0 -0.5388204657
O  O16  1  0.83720000  0.14090000  0.57680000  1.0 -0.5309657915
O  O17  1  0.74200000  0.08190000  0.89670000  1.0 -0.4772778098
O  O18  1  0.76950000  0.10880000  0.96950000  1.0 -0.4973924899
O  O19  1  0.72260000  0.13010000  0.98690000  1.0 -0.4900739373
O  O20  1  0.66090000  0.09530000  0.83010000  1.0 -0.4538508995
O  O21  1  0.63840000  0.12940000  0.85740000  1.0 -0.562257026
O  O22  1  0.76817000  0.17047000  0.06920000  1.0 -0.4973924899
O  O23  1  0.80410000  0.13760000  0.05790000  1.0 -0.5083677266
O  O24  1  0.83649000  0.16869000  0.13120000  1.0 -0.5083677266
O  O25  1  0.81110000  0.23540000  0.22000000  1.0 -0.2843124612
O  O26  1  0.77170000  0.24730000  0.21520000  1.0 -0.4900739373
O  O27  1  0.79450000  0.16222000  0.23430000  1.0 -0.4391200271
O  O28  1  0.80180000  0.13996000  0.30260000  1.0 -0.4588600776
O  O29  1  0.86890000  0.18282000  0.31200000  1.0 -0.4772778098
O  O30  1  0.88510000  0.24840000  0.16030000  1.0 -0.3588385104
O  O31  1  0.93900000  0.26730000  0.16650000  1.0 -0.4311617756
O  O32  1  0.87105000  0.14130000  0.39740000  1.0 -0.4699494385
O  O33  1  0.80650000  0.11020000  0.40160000  1.0 -0.5309657915
O  O34  1  0.80520000  0.08770000  0.48370000  1.0 -0.4900739373
O  O35  1  0.89640000  0.12810000  0.57580000  1.0 -0.5902988061
O  O36  1  0.83450000  0.04590000  0.51380000  1.0 -0.4112026905
O  O37  1  0.79540000  0.99270000  0.53290000  1.0 -0.5309657915
O  O38  1  0.50820000  0.22860000  0.70400000  1.0 -0.5388204657
O  O39  1  0.67520000  0.97310000  0.85220000  1.0 -0.5503935162
O  O40  1  0.95010000  0.16560000  0.54970000  1.0 -0.3992568482
O  O41  1  0.58860000  0.31210000  0.94053000  1.0 -0.4699494385
O  O42  1  0.66510000  0.33827000  0.95493000  1.0 -0.420060963
O  O43  1  0.67420000  0.37431000  0.00743000  1.0 -0.3914052838
O  O44  1  0.59220000  0.38050000  0.07653000  1.0 -0.4588600776
O  O45  1  0.53940000  0.36090000  0.04823000  1.0 -0.3914052838
O  O46  1  0.66760000  0.44120000  0.01833000  1.0 -0.5749442323
O  O47  1  0.62060000  0.34700000  0.11703000  1.0 -0.4900739373
O  O48  1  0.64060000  0.34020000  0.19283000  1.0 -0.5083677266
O  O49  1  0.68570000  0.40920000  0.19183000  1.0 -0.4391200271
O  O50  1  0.33520000  0.26660000  0.05573000  1.0 -0.420060963
O  O51  1  0.36790000  0.23290000  0.06223000  1.0 -0.5309657915
O  O52  1  0.39480000  0.26760000  0.14043000  1.0 -0.5083677266
O  O53  1  0.35410000  0.32960000  0.21233000  1.0 -0.5388204657
O  O54  1  0.28970000  0.22400000  0.98023000  1.0 -0.4588600776
O  O55  1  0.34170000  0.20050000  0.97303000  1.0 -0.5388204657
O  O56  1  0.30370000  0.16280000  0.91013000  1.0 -0.5309657915
O  O57  1  0.33990000  0.25800000  0.23003000  1.0 -0.4772778098
O  O58  1  0.33930000  0.23050000  0.30283000  1.0 -0.4973924899
O  O59  1  0.40750000  0.27740000  0.32023000  1.0 -0.4900739373
O  O60  1  0.43440000  0.33910000  0.16343000  1.0 -0.4538508995
O  O61  1  0.49100000  0.36160000  0.19073000  1.0 -0.562257026
O  O62  1  0.40230000  0.23183000  0.40253000  1.0 -0.4973924899
O  O63  1  0.33350000  0.19590000  0.39123000  1.0 -0.5083677266
O  O64  1  0.33220000  0.16351000  0.46453000  1.0 -0.5083677266
O  O65  1  0.42430000  0.18890000  0.55333000  1.0 -0.2843124612
O  O66  1  0.47560000  0.22830000  0.54853000  1.0 -0.4900739373
O  O67  1  0.36772000  0.20550000  0.56763000  1.0 -0.4391200271
O  O68  1  0.33816000  0.19820000  0.63593000  1.0 -0.4588600776
O  O69  1  0.31392000  0.13110000  0.64533000  1.0 -0.4772778098
O  O70  1  0.36330000  0.11490000  0.49363000  1.0 -0.3588385104
O  O71  1  0.32830000  0.06100000  0.49983000  1.0 -0.4311617756
O  O72  1  0.27025000  0.12895000  0.73073000  1.0 -0.4699494385
O  O73  1  0.30370000  0.19350000  0.73493000  1.0 -0.5309657915
O  O74  1  0.28250000  0.19480000  0.81703000  1.0 -0.4900739373
O  O75  1  0.23170000  0.10360000  0.90913000  1.0 -0.5902988061
O  O76  1  0.21140000  0.16550000  0.84713000  1.0 -0.4112026905
O  O77  1  0.19730000  0.20460000  0.86623000  1.0 -0.5309657915
O  O78  1  0.72040000  0.49180000  0.03733000  1.0 -0.5388204657
O  O79  1  0.29790000  0.32480000  0.18553000  1.0 -0.5503935162
O  O80  1  0.21550000  0.04990000  0.88303000  1.0 -0.3992568482
O  O81  1  0.72350000  0.41140000  0.27387000  1.0 -0.4699494385
O  O82  1  0.67317000  0.33490000  0.28827000  1.0 -0.420060963
O  O83  1  0.70011000  0.32580000  0.34077000  1.0 -0.3914052838
O  O84  1  0.78830000  0.40780000  0.40987000  1.0 -0.4588600776
O  O85  1  0.82150000  0.46060000  0.38157000  1.0 -0.3914052838
O  O86  1  0.77360000  0.33240000  0.35167000  1.0 -0.5749442323
O  O87  1  0.72640000  0.37940000  0.45037000  1.0 -0.4900739373
O  O88  1  0.69960000  0.35940000  0.52617000  1.0 -0.5083677266
O  O89  1  0.72350000  0.31430000  0.52517000  1.0 -0.4391200271
O  O90  1  0.93140000  0.66480000  0.38907000  1.0 -0.420060963
O  O91  1  0.86500000  0.63210000  0.39557000  1.0 -0.5309657915
O  O92  1  0.87280000  0.60520000  0.47377000  1.0 -0.5083677266
O  O93  1  0.97550000  0.64590000  0.54567000  1.0 -0.5388204657
O  O94  1  0.93430000  0.71030000  0.31357000  1.0 -0.4588600776
O  O95  1  0.85880000  0.65830000  0.30637000  1.0 -0.5388204657
O  O96  1  0.85910000  0.69630000  0.24347000  1.0 -0.5309657915
O  O97  1  0.91810000  0.66010000  0.56337000  1.0 -0.4772778098
O  O98  1  0.89120000  0.66070000  0.63617000  1.0 -0.4973924899
O  O99  1  0.86990000  0.59250000  0.65357000  1.0 -0.4900739373
O  O100  1  0.90470000  0.56560000  0.49677000  1.0 -0.4538508995
O  O101  1  0.87060000  0.50900000  0.52407000  1.0 -0.562257026
O  O102  1  0.82953000  0.59770000  0.73587000  1.0 -0.4973924899
O  O103  1  0.86240000  0.66650000  0.72457000  1.0 -0.5083677266
O  O104  1  0.83131000  0.66780000  0.79787000  1.0 -0.5083677266
O  O105  1  0.76460000  0.57570000  0.88667000  1.0 -0.2843124612
O  O106  1  0.75270000  0.52440000  0.88187000  1.0 -0.4900739373
O  O107  1  0.83778000  0.63228000  0.90097000  1.0 -0.4391200271
O  O108  1  0.86004000  0.66184000  0.96927000  1.0 -0.4588600776
O  O109  1  0.81718000  0.68608000  0.97867000  1.0 -0.4772778098
O  O110  1  0.75160000  0.63670000  0.82697000  1.0 -0.3588385104
O  O111  1  0.73270000  0.67170000  0.83317000  1.0 -0.4311617756
O  O112  1  0.85870000  0.72975000  0.06407000  1.0 -0.4699494385
O  O113  1  0.88980000  0.69630000  0.06827000  1.0 -0.5309657915
O  O114  1  0.91230000  0.71750000  0.15037000  1.0 -0.4900739373
O  O115  1  0.87190000  0.76830000  0.24247000  1.0 -0.5902988061
O  O116  1  0.95410000  0.78860000  0.18047000  1.0 -0.4112026905
O  O117  1  0.00730000  0.80270000  0.19957000  1.0 -0.5309657915
O  O118  1  0.77140000  0.27960000  0.37067000  1.0 -0.5309657915
O  O119  1  0.02690000  0.70210000  0.51887000  1.0 -0.5503935162
O  O120  1  0.83440000  0.78450000  0.21637000  1.0 -0.3992568482
O  O121  1  0.31210000  0.72350000  0.10720000  1.0 -0.4699494385
O  O122  1  0.33827000  0.67317000  0.12160000  1.0 -0.420060963
O  O123  1  0.37431000  0.70011000  0.17410000  1.0 -0.3914052838
O  O124  1  0.38050000  0.78830000  0.24320000  1.0 -0.4588600776
O  O125  1  0.36090000  0.82150000  0.21490000  1.0 -0.3914052838
O  O126  1  0.44120000  0.77360000  0.18500000  1.0 -0.5749442323
O  O127  1  0.34700000  0.72640000  0.28370000  1.0 -0.4900739373
O  O128  1  0.34020000  0.69960000  0.35950000  1.0 -0.5083677266
O  O129  1  0.40920000  0.72350000  0.35850000  1.0 -0.4391200271
O  O130  1  0.26660000  0.93140000  0.22240000  1.0 -0.420060963
O  O131  1  0.23290000  0.86500000  0.22890000  1.0 -0.5309657915
O  O132  1  0.26760000  0.87280000  0.30710000  1.0 -0.5083677266
O  O133  1  0.32960000  0.97550000  0.37900000  1.0 -0.5388204657
O  O134  1  0.22400000  0.93430000  0.14690000  1.0 -0.4588600776
O  O135  1  0.20050000  0.85880000  0.13970000  1.0 -0.5388204657
O  O136  1  0.16280000  0.85910000  0.07680000  1.0 -0.5309657915
O  O137  1  0.25800000  0.91810000  0.39670000  1.0 -0.4772778098
O  O138  1  0.23050000  0.89120000  0.46950000  1.0 -0.4973924899
O  O139  1  0.27740000  0.86990000  0.48690000  1.0 -0.4900739373
O  O140  1  0.33910000  0.90470000  0.33010000  1.0 -0.4538508995
O  O141  1  0.36160000  0.87060000  0.35740000  1.0 -0.562257026
O  O142  1  0.23183000  0.82953000  0.56920000  1.0 -0.4973924899
O  O143  1  0.19590000  0.86240000  0.55790000  1.0 -0.5083677266
O  O144  1  0.16351000  0.83131000  0.63120000  1.0 -0.5083677266
O  O145  1  0.18890000  0.76460000  0.72000000  1.0 -0.2843124612
O  O146  1  0.22830000  0.75270000  0.71520000  1.0 -0.4900739373
O  O147  1  0.20550000  0.83778000  0.73430000  1.0 -0.4391200271
O  O148  1  0.19820000  0.86004000  0.80260000  1.0 -0.4588600776
O  O149  1  0.13110000  0.81718000  0.81200000  1.0 -0.4772778098
O  O150  1  0.11490000  0.75160000  0.66030000  1.0 -0.3588385104
O  O151  1  0.06100000  0.73270000  0.66650000  1.0 -0.4311617756
O  O152  1  0.12895000  0.85870000  0.89740000  1.0 -0.4699494385
O  O153  1  0.19350000  0.88980000  0.90160000  1.0 -0.5309657915
O  O154  1  0.19480000  0.91230000  0.98370000  1.0 -0.4900739373
O  O155  1  0.10360000  0.87190000  0.07580000  1.0 -0.5902988061
O  O156  1  0.16550000  0.95410000  0.01380000  1.0 -0.4112026905
O  O157  1  0.20460000  0.00730000  0.03290000  1.0 -0.5309657915
O  O158  1  0.49180000  0.77140000  0.20400000  1.0 -0.5388204657
O  O159  1  0.32480000  0.02690000  0.35220000  1.0 -0.5503935162
O  O160  1  0.04990000  0.83440000  0.04970000  1.0 -0.4112026905
O  O161  1  0.41140000  0.68790000  0.44053000  1.0 -0.4699494385
O  O162  1  0.33490000  0.66173000  0.45493000  1.0 -0.420060963
O  O163  1  0.32580000  0.62569000  0.50743000  1.0 -0.3914052838
O  O164  1  0.40780000  0.61950000  0.57653000  1.0 -0.4588600776
O  O165  1  0.46060000  0.63910000  0.54823000  1.0 -0.3914052838
O  O166  1  0.33240000  0.55880000  0.51833000  1.0 -0.5749442323
O  O167  1  0.37940000  0.65300000  0.61703000  1.0 -0.4900739373
O  O168  1  0.35940000  0.65980000  0.69283000  1.0 -0.5083677266
O  O169  1  0.31430000  0.59080000  0.69183000  1.0 -0.4391200271
O  O170  1  0.66480000  0.73340000  0.55573000  1.0 -0.420060963
O  O171  1  0.63210000  0.76710000  0.56223000  1.0 -0.5309657915
O  O172  1  0.60520000  0.73240000  0.64043000  1.0 -0.5083677266
O  O173  1  0.64590000  0.67040000  0.71233000  1.0 -0.5388204657
O  O174  1  0.71030000  0.77600000  0.48023000  1.0 -0.4588600776
O  O175  1  0.65830000  0.79950000  0.47303000  1.0 -0.5388204657
O  O176  1  0.69630000  0.83720000  0.41013000  1.0 -0.5309657915
O  O177  1  0.66010000  0.74200000  0.73003000  1.0 -0.4772778098
O  O178  1  0.66070000  0.76950000  0.80283000  1.0 -0.4973924899
O  O179  1  0.59250000  0.72260000  0.82023000  1.0 -0.4900739373
O  O180  1  0.56560000  0.66090000  0.66343000  1.0 -0.4538508995
O  O181  1  0.50900000  0.63840000  0.69073000  1.0 -0.562257026
O  O182  1  0.59770000  0.76817000  0.90253000  1.0 -0.4973924899
O  O183  1  0.66650000  0.80410000  0.89123000  1.0 -0.5083677266
O  O184  1  0.66780000  0.83649000  0.96453000  1.0 -0.5083677266
O  O185  1  0.57570000  0.81110000  0.05333000  1.0 -0.2843124612
O  O186  1  0.52440000  0.77170000  0.04853000  1.0 -0.4900739373
O  O187  1  0.63228000  0.79450000  0.06763000  1.0 -0.4391200271
O  O188  1  0.66184000  0.80180000  0.13593000  1.0 -0.4588600776
O  O189  1  0.68608000  0.86890000  0.14533000  1.0 -0.4772778098
O  O190  1  0.63670000  0.88510000  0.99363000  1.0 -0.3588385104
O  O191  1  0.67170000  0.93900000  0.99983000  1.0 -0.4311617756
O  O192  1  0.72975000  0.87105000  0.23073000  1.0 -0.4699494385
O  O193  1  0.69630000  0.80650000  0.23493000  1.0 -0.5309657915
O  O194  1  0.71750000  0.80520000  0.31703000  1.0 -0.4900739373
O  O195  1  0.76830000  0.89640000  0.40913000  1.0 -0.5902988061
O  O196  1  0.78860000  0.83450000  0.34713000  1.0 -0.4112026905
O  O197  1  0.80270000  0.79540000  0.36623000  1.0 -0.5309657915
O  O198  1  0.27960000  0.50820000  0.53733000  1.0 -0.5388204657
O  O199  1  0.70210000  0.67520000  0.68553000  1.0 -0.5503935162
O  O200  1  0.78450000  0.95010000  0.38303000  1.0 -0.4112026905
O  O201  1  0.27650000  0.58860000  0.77387000  1.0 -0.4699494385
O  O202  1  0.32683000  0.66510000  0.78827000  1.0 -0.420060963
O  O203  1  0.29989000  0.67420000  0.84077000  1.0 -0.3914052838
O  O204  1  0.21170000  0.59220000  0.90987000  1.0 -0.4588600776
O  O205  1  0.17850000  0.53940000  0.88157000  1.0 -0.3914052838
O  O206  1  0.22640000  0.66760000  0.85167000  1.0 -0.575376366
O  O207  1  0.27360000  0.62060000  0.95037000  1.0 -0.4900739373
O  O208  1  0.30040000  0.64060000  0.02617000  1.0 -0.5083677266
O  O209  1  0.27650000  0.68570000  0.02517000  1.0 -0.4391200271
O  O210  1  0.06860000  0.33520000  0.88907000  1.0 -0.420060963
O  O211  1  0.13500000  0.36790000  0.89557000  1.0 -0.5309657915
O  O212  1  0.12720000  0.39480000  0.97377000  1.0 -0.5083677266
O  O213  1  0.02450000  0.35410000  0.04567000  1.0 -0.5388204657
O  O214  1  0.06570000  0.28970000  0.81357000  1.0 -0.4588600776
O  O215  1  0.14120000  0.34170000  0.80637000  1.0 -0.5388204657
O  O216  1  0.14090000  0.30370000  0.74347000  1.0 -0.5309657915
O  O217  1  0.08190000  0.33990000  0.06337000  1.0 -0.4772778098
O  O218  1  0.10880000  0.33930000  0.13617000  1.0 -0.4973924899
O  O219  1  0.13010000  0.40750000  0.15357000  1.0 -0.4900739373
O  O220  1  0.09530000  0.43440000  0.99677000  1.0 -0.4538508995
O  O221  1  0.12940000  0.49100000  0.02407000  1.0 -0.562257026
O  O222  1  0.17047000  0.40230000  0.23587000  1.0 -0.4973924899
O  O223  1  0.13760000  0.33350000  0.22457000  1.0 -0.5083677266
O  O224  1  0.16869000  0.33220000  0.29787000  1.0 -0.5083677266
O  O225  1  0.23540000  0.42430000  0.38667000  1.0 -0.2843124612
O  O226  1  0.24730000  0.47560000  0.38187000  1.0 -0.4900739373
O  O227  1  0.16222000  0.36772000  0.40097000  1.0 -0.4391200271
O  O228  1  0.13996000  0.33816000  0.46927000  1.0 -0.4588600776
O  O229  1  0.18282000  0.31392000  0.47867000  1.0 -0.4772778098
O  O230  1  0.24840000  0.36330000  0.32697000  1.0 -0.3588385104
O  O231  1  0.26730000  0.32830000  0.33317000  1.0 -0.4311617756
O  O232  1  0.14130000  0.27025000  0.56407000  1.0 -0.4699494385
O  O233  1  0.11020000  0.30370000  0.56827000  1.0 -0.5309657915
O  O234  1  0.08770000  0.28250000  0.65037000  1.0 -0.4900739373
O  O235  1  0.12810000  0.23170000  0.74247000  1.0 -0.5902988061
O  O236  1  0.04590000  0.21140000  0.68047000  1.0 -0.4112026905
O  O237  1  0.99270000  0.19730000  0.69957000  1.0 -0.5309657915
O  O238  1  0.22860000  0.72040000  0.87067000  1.0 -0.5388204657
O  O239  1  0.97310000  0.29790000  0.01887000  1.0 -0.5503935162
O  O240  1  0.16560000  0.21550000  0.71637000  1.0 -0.3992568482
