# DDEC6 charges by PACMAN v1.1 (https://github.com/mtap-research/PACMAN-charge/)
data_AFUFEP_ASR_pacman
_symmetry_space_group_name_H-M   'P 1'
_cell_length_a   17.72390000
_cell_length_b   17.72390000
_cell_length_c   14.84640000
_cell_angle_alpha   79.71090000
_cell_angle_beta   100.28900000
_cell_angle_gamma   140.46700000
_symmetry_Int_Tables_number   1
_chemical_formula_structural   SmH18C24NO8
_chemical_formula_sum   'Sm4 H72 C96 N4 O32'
_cell_volume   2914.65300941
_cell_formula_units_Z   4
loop_
 _symmetry_equiv_pos_site_id
 _symmetry_equiv_pos_as_xyz
  1  'x, y, z'
loop_
 _atom_site_type_symbol
 _atom_site_label
 _atom_site_symmetry_multiplicity
 _atom_site_fract_x
 _atom_site_fract_y
 _atom_site_fract_z
 _atom_site_occupancy
 _atom_site_charge
Sm  Sm1  1  0.49649000  0.88399000  0.55169000  1.0 2.0701344454
Sm  Sm2  1  0.88399000  0.49649000  0.94831000  1.0 2.0701344454
Sm  Sm3  1  0.50351000  0.11601000  0.44831000  1.0 2.0701344454
Sm  Sm4  1  0.11601000  0.50351000  0.05169000  1.0 2.0701344454
H  H1  1  0.82114000  0.15330000  0.58521000  1.0 0.1373322311
H  H2  1  0.17732000  0.38774000  0.71770000  1.0 0.1198597621
H  H3  1  0.05222000  0.35438000  0.79732000  1.0 0.1198597621
H  H4  1  0.80661000  0.32883000  0.70441000  1.0 0.1373322311
H  H5  1  0.35606000  0.36304000  0.57501000  1.0 0.1198597621
H  H6  1  0.45382000  0.34284000  0.52145000  1.0 0.1317434826
H  H7  1  0.27980000  0.36320000  0.68326000  1.0 0.1198597621
H  H8  1  0.17303000  0.99205000  0.56181000  1.0 0.1198597621
H  H9  1  0.87242000  0.06874000  0.62718000  1.0 0.1317434826
H  H10  1  0.97559000  0.04417000  0.59417000  1.0 0.1198597621
H  H11  1  0.07575000  0.01215000  0.61883000  1.0 0.1198597621
H  H12  1  0.60822000  0.00534000  0.75230000  1.0 0.1198597621
H  H13  1  0.66107000  0.02943000  0.92623000  1.0 0.1373322311
H  H14  1  0.79484000  0.13364000  0.90329000  1.0 0.1373322311
H  H15  1  0.74473000  0.02413000  0.96796000  1.0 0.1317434826
H  H16  1  0.82134000  0.00820000  0.82562000  1.0 0.1198597621
H  H17  1  0.69268000  0.87564000  0.82338000  1.0 0.1493689114
H  H18  1  0.75509000  0.93753000  0.91640000  1.0 0.1198597621
H  H19  1  0.15330000  0.82114000  0.91479000  1.0 0.1373322311
H  H20  1  0.38774000  0.17732000  0.78230000  1.0 0.1198597621
H  H21  1  0.35438000  0.05222000  0.70268000  1.0 0.1198597621
H  H22  1  0.32883000  0.80661000  0.79559000  1.0 0.1373322311
H  H23  1  0.36304000  0.35606000  0.92499000  1.0 0.1198597621
H  H24  1  0.34284000  0.45382000  0.97855000  1.0 0.1317434826
H  H25  1  0.36320000  0.27980000  0.81674000  1.0 0.1198597621
H  H26  1  0.99205000  0.17303000  0.93819000  1.0 0.1198597621
H  H27  1  0.06874000  0.87242000  0.87282000  1.0 0.1317434826
H  H28  1  0.04417000  0.97559000  0.90583000  1.0 0.1198597621
H  H29  1  0.01215000  0.07575000  0.88117000  1.0 0.1198597621
H  H30  1  0.00533000  0.60823000  0.74770000  1.0 0.1198597621
H  H31  1  0.02943000  0.66107000  0.57377000  1.0 0.1373322311
H  H32  1  0.13364000  0.79484000  0.59671000  1.0 0.1373322311
H  H33  1  0.02413000  0.74473000  0.53204000  1.0 0.1317434826
H  H34  1  0.00820000  0.82134000  0.67438000  1.0 0.1198597621
H  H35  1  0.87564000  0.69268000  0.67662000  1.0 0.1493689114
H  H36  1  0.93753000  0.75509000  0.58360000  1.0 0.1198597621
H  H37  1  0.17886000  0.84670000  0.41479000  1.0 0.1373322311
H  H38  1  0.82268000  0.61226000  0.28230000  1.0 0.1198597621
H  H39  1  0.94778000  0.64562000  0.20268000  1.0 0.1198597621
H  H40  1  0.19339000  0.67117000  0.29559000  1.0 0.1373322311
H  H41  1  0.64394000  0.63696000  0.42499000  1.0 0.1198597621
H  H42  1  0.54618000  0.65716000  0.47855000  1.0 0.1317434826
H  H43  1  0.72020000  0.63680000  0.31674000  1.0 0.1198597621
H  H44  1  0.82697000  0.00795000  0.43819000  1.0 0.1198597621
H  H45  1  0.12758000  0.93126000  0.37282000  1.0 0.1317434826
H  H46  1  0.02441000  0.95583000  0.40583000  1.0 0.1198597621
H  H47  1  0.92425000  0.98785000  0.38117000  1.0 0.1198597621
H  H48  1  0.39177000  0.99467000  0.24770000  1.0 0.1198597621
H  H49  1  0.33893000  0.97057000  0.07377000  1.0 0.1373322311
H  H50  1  0.20516000  0.86636000  0.09671000  1.0 0.1373322311
H  H51  1  0.25527000  0.97587000  0.03204000  1.0 0.1317434826
H  H52  1  0.17866000  0.99180000  0.17438000  1.0 0.1198597621
H  H53  1  0.30732000  0.12436000  0.17662000  1.0 0.1493689114
H  H54  1  0.24491000  0.06247000  0.08360000  1.0 0.1198597621
H  H55  1  0.84670000  0.17886000  0.08521000  1.0 0.1373322311
H  H56  1  0.61226000  0.82268000  0.21770000  1.0 0.1198597621
H  H57  1  0.64562000  0.94778000  0.29732000  1.0 0.1198597621
H  H58  1  0.67117000  0.19339000  0.20441000  1.0 0.1373322311
H  H59  1  0.63696000  0.64394000  0.07501000  1.0 0.1198597621
H  H60  1  0.65716000  0.54618000  0.02145000  1.0 0.1317434826
H  H61  1  0.63680000  0.72020000  0.18326000  1.0 0.1198597621
H  H62  1  0.00795000  0.82697000  0.06181000  1.0 0.1198597621
H  H63  1  0.93126000  0.12758000  0.12718000  1.0 0.1317434826
H  H64  1  0.95583000  0.02441000  0.09417000  1.0 0.1198597621
H  H65  1  0.98785000  0.92425000  0.11883000  1.0 0.1198597621
H  H66  1  0.99466000  0.39177000  0.25230000  1.0 0.1198597621
H  H67  1  0.97057000  0.33893000  0.42623000  1.0 0.1373322311
H  H68  1  0.86636000  0.20516000  0.40329000  1.0 0.1373322311
H  H69  1  0.97587000  0.25527000  0.46796000  1.0 0.1317434826
H  H70  1  0.99180000  0.17866000  0.32562000  1.0 0.1198597621
H  H71  1  0.12436000  0.30732000  0.32338000  1.0 0.1493689114
H  H72  1  0.06247000  0.24491000  0.41640000  1.0 0.1198597621
C  C1  1  0.85251000  0.20611000  0.62764000  1.0 -0.1309809989
C  C2  1  0.95193000  0.25481000  0.68601000  1.0 0.0764381191
C  C3  1  0.97185000  0.42171000  0.83781000  1.0 0.6447136247
C  C4  1  0.70107000  0.19269000  0.56764000  1.0 0.6227874005
C  C5  1  0.38195000  0.14893000  0.49709000  1.0 0.5765155995
C  C6  1  0.01707000  0.23489000  0.67312000  1.0 0.0624569723
C  C7  1  0.13618000  0.31922000  0.69111000  1.0 -0.1309809989
C  C8  1  0.98954000  0.32498000  0.75567000  1.0 -0.1413841403
C  C9  1  0.93428000  0.35044000  0.76263000  1.0 -0.0270011934
C  C10  1  0.20251000  0.18919000  0.60036000  1.0 0.0764381191
C  C11  1  0.84135000  0.30879000  0.70074000  1.0 -0.1199369921
C  C12  1  0.13844000  0.20322000  0.63020000  1.0 0.0624569723
C  C13  1  0.31765000  0.28741000  0.57206000  1.0 -0.156443902
C  C14  1  0.32056000  0.16380000  0.53430000  1.0 -0.0172504789
C  C15  1  0.37671000  0.27569000  0.53960000  1.0 -0.0935845157
C  C16  1  0.19809000  0.30459000  0.67023000  1.0 -0.1413841403
C  C17  1  0.21026000  0.06730000  0.56386000  1.0 -0.0935845157
C  C18  1  0.95462000  0.12894000  0.63730000  1.0 -0.1134467373
C  C19  1  0.01705000  0.11477000  0.61701000  1.0 -0.1309809989
C  C20  1  0.15117000  0.07959000  0.59774000  1.0 -0.156443902
C  C21  1  0.80054000  0.23642000  0.63288000  1.0 -0.0270011934
C  C22  1  0.62449000  0.96553000  0.76139000  1.0 0.4123196447
C  C23  1  0.72671000  0.04927000  0.91509000  1.0 -0.3155977807
C  C24  1  0.74550000  0.94910000  0.85159000  1.0 -0.2676580852
C  C25  1  0.20611000  0.85251000  0.87236000  1.0 -0.1309809989
C  C26  1  0.25481000  0.95193000  0.81399000  1.0 0.0764381191
C  C27  1  0.42171000  0.97185000  0.66219000  1.0 0.6447136247
C  C28  1  0.19269000  0.70107000  0.93236000  1.0 0.6227874005
C  C29  1  0.14893000  0.38195000  0.00291000  1.0 0.5765155995
C  C30  1  0.23489000  0.01707000  0.82688000  1.0 0.0624569723
C  C31  1  0.31922000  0.13618000  0.80889000  1.0 -0.1309809989
C  C32  1  0.32498000  0.98954000  0.74433000  1.0 -0.1413841403
C  C33  1  0.35044000  0.93428000  0.73737000  1.0 -0.0270011934
C  C34  1  0.18919000  0.20251000  0.89964000  1.0 0.0764381191
C  C35  1  0.30879000  0.84135000  0.79926000  1.0 -0.1199369921
C  C36  1  0.20322000  0.13844000  0.86980000  1.0 0.0624569723
C  C37  1  0.28741000  0.31765000  0.92794000  1.0 -0.156443902
C  C38  1  0.16380000  0.32056000  0.96570000  1.0 -0.0172504789
C  C39  1  0.27569000  0.37671000  0.96040000  1.0 -0.0935845157
C  C40  1  0.30459000  0.19809000  0.82977000  1.0 -0.1413841403
C  C41  1  0.06730000  0.21026000  0.93614000  1.0 -0.0935845157
C  C42  1  0.12894000  0.95462000  0.86270000  1.0 -0.1134467373
C  C43  1  0.11477000  0.01705000  0.88299000  1.0 -0.1309809989
C  C44  1  0.07959000  0.15117000  0.90226000  1.0 -0.156443902
C  C45  1  0.23642000  0.80054000  0.86712000  1.0 -0.0270011934
C  C46  1  0.96553000  0.62449000  0.73861000  1.0 0.4123196447
C  C47  1  0.04927000  0.72671000  0.58491000  1.0 -0.3155977807
C  C48  1  0.94910000  0.74550000  0.64841000  1.0 -0.2676580852
C  C49  1  0.14749000  0.79389000  0.37236000  1.0 -0.1309809989
C  C50  1  0.04807000  0.74519000  0.31399000  1.0 0.0764381191
C  C51  1  0.02815000  0.57829000  0.16219000  1.0 0.6447136247
C  C52  1  0.29893000  0.80731000  0.43236000  1.0 0.6227874005
C  C53  1  0.61805000  0.85107000  0.50291000  1.0 0.5765155995
C  C54  1  0.98293000  0.76511000  0.32688000  1.0 0.0624569723
C  C55  1  0.86382000  0.68078000  0.30889000  1.0 -0.1309809989
C  C56  1  0.01046000  0.67502000  0.24433000  1.0 -0.1413841403
C  C57  1  0.06572000  0.64956000  0.23737000  1.0 -0.0270011934
C  C58  1  0.79749000  0.81081000  0.39964000  1.0 0.0764381191
C  C59  1  0.15865000  0.69121000  0.29926000  1.0 -0.1199369921
C  C60  1  0.86156000  0.79678000  0.36980000  1.0 0.0624569723
C  C61  1  0.68235000  0.71259000  0.42794000  1.0 -0.156443902
C  C62  1  0.67944000  0.83620000  0.46570000  1.0 -0.0172504789
C  C63  1  0.62329000  0.72431000  0.46040000  1.0 -0.0935845157
C  C64  1  0.80191000  0.69541000  0.32977000  1.0 -0.1413841403
C  C65  1  0.78974000  0.93270000  0.43614000  1.0 -0.0935845157
C  C66  1  0.04538000  0.87106000  0.36270000  1.0 -0.1134467373
C  C67  1  0.98295000  0.88523000  0.38299000  1.0 -0.1309809989
C  C68  1  0.84883000  0.92041000  0.40226000  1.0 -0.156443902
C  C69  1  0.19946000  0.76358000  0.36712000  1.0 -0.0270011934
C  C70  1  0.37551000  0.03447000  0.23861000  1.0 0.4123196447
C  C71  1  0.27329000  0.95073000  0.08491000  1.0 -0.3155977807
C  C72  1  0.25450000  0.05090000  0.14841000  1.0 -0.2676580852
C  C73  1  0.79389000  0.14749000  0.12764000  1.0 -0.1309809989
C  C74  1  0.74519000  0.04807000  0.18601000  1.0 0.0764381191
C  C75  1  0.57829000  0.02815000  0.33781000  1.0 0.6447136247
C  C76  1  0.80731000  0.29893000  0.06764000  1.0 0.6227874005
C  C77  1  0.85107000  0.61805000  0.99709000  1.0 0.5765155995
C  C78  1  0.76511000  0.98293000  0.17312000  1.0 0.0624569723
C  C79  1  0.68078000  0.86382000  0.19111000  1.0 -0.1309809989
C  C80  1  0.67502000  0.01046000  0.25567000  1.0 -0.1413841403
C  C81  1  0.64956000  0.06572000  0.26263000  1.0 -0.0270011934
C  C82  1  0.81081000  0.79749000  0.10036000  1.0 0.0764381191
C  C83  1  0.69121000  0.15865000  0.20074000  1.0 -0.1199369921
C  C84  1  0.79678000  0.86156000  0.13020000  1.0 0.0624569723
C  C85  1  0.71259000  0.68235000  0.07206000  1.0 -0.156443902
C  C86  1  0.83620000  0.67944000  0.03430000  1.0 -0.0172504789
C  C87  1  0.72431000  0.62329000  0.03960000  1.0 -0.0935845157
C  C88  1  0.69541000  0.80191000  0.17023000  1.0 -0.1413841403
C  C89  1  0.93270000  0.78974000  0.06386000  1.0 -0.0935845157
C  C90  1  0.87106000  0.04538000  0.13730000  1.0 -0.1134467373
C  C91  1  0.88523000  0.98295000  0.11701000  1.0 -0.1309809989
C  C92  1  0.92041000  0.84883000  0.09774000  1.0 -0.156443902
C  C93  1  0.76358000  0.19946000  0.13288000  1.0 -0.0270011934
C  C94  1  0.03447000  0.37551000  0.26139000  1.0 0.4123196447
C  C95  1  0.95073000  0.27329000  0.41509000  1.0 -0.3155977807
C  C96  1  0.05090000  0.25450000  0.35159000  1.0 -0.2676580852
N  N1  1  0.69534000  0.98900000  0.83523000  1.0 -0.0739272075
N  N2  1  0.98900000  0.69534000  0.66477000  1.0 -0.0739272075
N  N3  1  0.30466000  0.01100000  0.16477000  1.0 -0.0739272075
N  N4  1  0.01100000  0.30466000  0.33523000  1.0 -0.0739272075
O  O1  1  0.63100000  0.09258000  0.53189000  1.0 -0.7507042742
O  O2  1  0.69069000  0.25583000  0.54442000  1.0 -0.582119242
O  O3  1  0.06112000  0.46466000  0.89109000  1.0 -0.638554827
O  O4  1  0.49227000  0.23805000  0.48857000  1.0 -0.5972957766
O  O5  1  0.91530000  0.43852000  0.84194000  1.0 -0.6671997464
O  O6  1  0.32213000  0.04789000  0.47468000  1.0 -0.5972957766
O  O7  1  0.60722000  0.91968000  0.69705000  1.0 -0.45235847
O  O8  1  0.58010000  0.89424000  0.70528000  1.0 -0.4736709079
O  O9  1  0.09258000  0.63100000  0.96811000  1.0 -0.7507042742
O  O10  1  0.25583000  0.69069000  0.95558000  1.0 -0.582119242
O  O11  1  0.46466000  0.06112000  0.60891000  1.0 -0.638554827
O  O12  1  0.23805000  0.49227000  0.01143000  1.0 -0.5972957766
O  O13  1  0.43852000  0.91530000  0.65806000  1.0 -0.6671997464
O  O14  1  0.04789000  0.32213000  0.02532000  1.0 -0.5972957766
O  O15  1  0.91968000  0.60722000  0.80295000  1.0 -0.45235847
O  O16  1  0.89424000  0.58010000  0.79472000  1.0 -0.4736709079
O  O17  1  0.36900000  0.90742000  0.46811000  1.0 -0.7507042742
O  O18  1  0.30931000  0.74417000  0.45558000  1.0 -0.582119242
O  O19  1  0.93888000  0.53534000  0.10891000  1.0 -0.638554827
O  O20  1  0.50773000  0.76195000  0.51143000  1.0 -0.5972957766
O  O21  1  0.08470000  0.56148000  0.15806000  1.0 -0.6671997464
O  O22  1  0.67787000  0.95211000  0.52532000  1.0 -0.5972957766
O  O23  1  0.39278000  0.08032000  0.30295000  1.0 -0.45235847
O  O24  1  0.41990000  0.10576000  0.29472000  1.0 -0.4736709079
O  O25  1  0.90742000  0.36900000  0.03189000  1.0 -0.7507042742
O  O26  1  0.74417000  0.30931000  0.04442000  1.0 -0.582119242
O  O27  1  0.53534000  0.93888000  0.39109000  1.0 -0.638554827
O  O28  1  0.76195000  0.50773000  0.98857000  1.0 -0.5972957766
O  O29  1  0.56148000  0.08470000  0.34194000  1.0 -0.6671997464
O  O30  1  0.95211000  0.67787000  0.97468000  1.0 -0.5972957766
O  O31  1  0.08032000  0.39278000  0.19705000  1.0 -0.45235847
O  O32  1  0.10576000  0.41990000  0.20528000  1.0 -0.4736709079
