# DDEC6 charges by PACMAN v1.1 (https://github.com/mtap-research/PACMAN-charge/)
data_AFUKIX_ASR_pacman
_symmetry_space_group_name_H-M   'P 1'
_cell_length_a   15.32690000
_cell_length_b   25.44110000
_cell_length_c   31.09600000
_cell_angle_alpha   73.24400000
_cell_angle_beta   80.17800000
_cell_angle_gamma   82.09300000
_symmetry_Int_Tables_number   1
_chemical_formula_structural   Mn6H94C131(N3O19)2
_chemical_formula_sum   'Mn12 H188 C262 N12 O76'
_cell_volume   11390.04394758
_cell_formula_units_Z   2
loop_
 _symmetry_equiv_pos_site_id
 _symmetry_equiv_pos_as_xyz
  1  'x, y, z'
loop_
 _atom_site_type_symbol
 _atom_site_label
 _atom_site_symmetry_multiplicity
 _atom_site_fract_x
 _atom_site_fract_y
 _atom_site_fract_z
 _atom_site_occupancy
 _atom_site_charge
Mn  Mn1  1  0.79404000  0.26129000  0.47823000  1.0 1.0744533149
Mn  Mn2  1  0.20596000  0.73871000  0.52177000  1.0 1.0744533149
Mn  Mn3  1  0.81238000  0.11757000  0.47341000  1.0 0.9205571023
Mn  Mn4  1  0.18762000  0.88243000  0.52659000  1.0 0.9205571023
Mn  Mn5  1  0.78005000  0.40188000  0.48588000  1.0 0.9563044813
Mn  Mn6  1  0.21995000  0.59812000  0.51412000  1.0 0.9563044813
Mn  Mn7  1  0.25430000  0.77067000  0.97982000  1.0 1.0795719233
Mn  Mn8  1  0.74570000  0.22933000  0.02018000  1.0 1.0795719233
Mn  Mn9  1  0.04365000  0.83212000  0.02315000  1.0 0.8941471186
Mn  Mn10  1  0.95635000  0.16788000  0.97685000  1.0 0.8941471186
Mn  Mn11  1  0.44743000  0.70409000  0.92530000  1.0 1.0079301802
Mn  Mn12  1  0.55257000  0.29591000  0.07470000  1.0 1.0079301802
H  H1  1  0.60630000  0.12770000  0.73330000  1.0 0.0996139213
H  H2  1  0.39370000  0.87230000  0.26670000  1.0 0.0996139213
H  H3  1  0.52460000  0.13550000  0.70690000  1.0 0.0996139213
H  H4  1  0.47540000  0.86450000  0.29310000  1.0 0.0996139213
H  H5  1  0.51270000  0.18190000  0.80540000  1.0 0.0996139213
H  H6  1  0.48730000  0.81810000  0.19460000  1.0 0.0996139213
H  H7  1  0.47780000  0.12960000  0.84200000  1.0 0.0996139213
H  H8  1  0.52220000  0.87040000  0.15800000  1.0 0.0996139213
H  H9  1  0.47060000  0.05210000  0.76310000  1.0 0.0942111072
H  H10  1  0.52940000  0.94790000  0.23690000  1.0 0.0942111072
H  H11  1  0.55240000  0.04740000  0.78890000  1.0 0.0942111072
H  H12  1  0.44760000  0.95260000  0.21110000  1.0 0.0942111072
H  H13  1  0.35400000  0.13920000  0.80210000  1.0 0.0996139213
H  H14  1  0.64600000  0.86080000  0.19790000  1.0 0.0996139213
H  H15  1  0.38960000  0.18880000  0.76240000  1.0 0.0996139213
H  H16  1  0.61040000  0.81120000  0.23760000  1.0 0.0996139213
H  H17  1  0.36050000  0.08450000  0.67730000  1.0 0.0942111072
H  H18  1  0.63950000  0.91550000  0.32270000  1.0 0.0942111072
H  H19  1  0.28210000  0.09010000  0.64910000  1.0 0.0996139213
H  H20  1  0.71790000  0.90990000  0.35090000  1.0 0.0996139213
H  H21  1  0.11190000  0.14690000  0.71760000  1.0 0.0996139213
H  H22  1  0.88810000  0.85310000  0.28240000  1.0 0.0996139213
H  H23  1  0.15990000  0.17380000  0.66860000  1.0 0.0996139213
H  H24  1  0.84010000  0.82620000  0.33140000  1.0 0.0996139213
H  H25  1  0.22730000  0.03010000  0.72140000  1.0 0.0996139213
H  H26  1  0.77270000  0.96990000  0.27860000  1.0 0.0996139213
H  H27  1  0.28990000  0.04190000  0.75200000  1.0 0.0996139213
H  H28  1  0.71010000  0.95810000  0.24800000  1.0 0.0996139213
H  H29  1  0.26800000  0.18730000  0.71350000  1.0 0.0996139213
H  H30  1  0.73200000  0.81270000  0.28650000  1.0 0.0996139213
H  H31  1  0.22920000  0.14780000  0.75990000  1.0 0.0942111072
H  H32  1  0.77080000  0.85220000  0.24010000  1.0 0.0942111072
H  H33  1  0.54150000  0.17440000  0.88040000  1.0 0.1208490772
H  H34  1  0.45850000  0.82560000  0.11960000  1.0 0.1208490772
H  H35  1  0.62120000  0.18520000  0.93440000  1.0 0.1302476977
H  H36  1  0.37880000  0.81480000  0.06560000  1.0 0.1302476977
H  H37  1  0.83390000  0.09880000  0.88810000  1.0 0.1208490772
H  H38  1  0.16610000  0.90120000  0.11190000  1.0 0.1208490772
H  H39  1  0.76210000  0.08690000  0.83330000  1.0 0.1390519873
H  H40  1  0.23790000  0.91310000  0.16670000  1.0 0.1390519873
H  H41  1  0.36800000  0.98780000  0.90400000  1.0 0.1302476977
H  H42  1  0.63200000  0.01220000  0.09600000  1.0 0.1302476977
H  H43  1  0.35440000  0.89610000  0.93500000  1.0 0.1208490772
H  H44  1  0.64560000  0.10390000  0.06500000  1.0 0.1208490772
H  H45  1  0.48630000  0.86810000  0.81930000  1.0 0.1132671491
H  H46  1  0.51370000  0.13190000  0.18070000  1.0 0.1132671491
H  H47  1  0.50290000  0.96300000  0.78890000  1.0 0.1208490772
H  H48  1  0.49710000  0.03700000  0.21110000  1.0 0.1208490772
H  H49  1  0.42380000  0.08540000  0.60600000  1.0 0.1208490772
H  H50  1  0.57620000  0.91460000  0.39400000  1.0 0.1208490772
H  H51  1  0.55090000  0.09150000  0.55630000  1.0 0.1208490772
H  H52  1  0.44910000  0.90850000  0.44370000  1.0 0.1208490772
H  H53  1  0.53890000  0.25020000  0.54920000  1.0 0.1208490772
H  H54  1  0.46110000  0.74980000  0.45080000  1.0 0.1208490772
H  H55  1  0.41090000  0.24470000  0.59870000  1.0 0.1302476977
H  H56  1  0.58910000  0.75530000  0.40130000  1.0 0.1302476977
H  H57  1  0.07580000  0.04080000  0.63360000  1.0 0.1302476977
H  H58  1  0.92420000  0.95920000  0.36640000  1.0 0.1302476977
H  H59  1  0.98570000  0.06380000  0.57780000  1.0 0.0996139213
H  H60  1  0.01430000  0.93620000  0.42220000  1.0 0.0996139213
H  H61  1  0.92050000  0.21260000  0.59830000  1.0 0.1208490772
H  H62  1  0.07950000  0.78740000  0.40170000  1.0 0.1208490772
H  H63  1  0.02350000  0.19370000  0.64920000  1.0 0.1208490772
H  H64  1  0.97650000  0.80630000  0.35080000  1.0 0.1208490772
H  H65  1  0.25610000  0.95900000  0.78540000  1.0 0.1208490772
H  H66  1  0.74390000  0.04100000  0.21460000  1.0 0.1208490772
H  H67  1  0.24540000  0.88820000  0.85100000  1.0 0.1208490772
H  H68  1  0.75460000  0.11180000  0.14900000  1.0 0.1208490772
H  H69  1  0.03330000  0.96600000  0.90320000  1.0 0.1132671491
H  H70  1  0.96670000  0.03400000  0.09680000  1.0 0.1132671491
H  H71  1  0.04780000  0.04110000  0.83910000  1.0 0.1302476977
H  H72  1  0.95220000  0.95890000  0.16090000  1.0 0.1302476977
H  H73  1  0.28060000  0.50600000  0.21630000  1.0 0.0996139213
H  H74  1  0.71940000  0.49400000  0.78370000  1.0 0.0996139213
H  H75  1  0.35250000  0.51640000  0.24290000  1.0 0.0996139213
H  H76  1  0.64750000  0.48360000  0.75710000  1.0 0.0996139213
H  H77  1  0.42860000  0.37210000  0.28640000  1.0 0.0996139213
H  H78  1  0.57140000  0.62790000  0.71360000  1.0 0.0996139213
H  H79  1  0.47240000  0.40450000  0.23800000  1.0 0.0996139213
H  H80  1  0.52760000  0.59550000  0.76200000  1.0 0.0996139213
H  H81  1  0.29880000  0.45390000  0.31170000  1.0 0.0996139213
H  H82  1  0.70120000  0.54610000  0.68830000  1.0 0.0996139213
H  H83  1  0.22120000  0.45360000  0.28470000  1.0 0.0996139213
H  H84  1  0.77880000  0.54640000  0.71530000  1.0 0.0996139213
H  H85  1  0.34800000  0.40260000  0.19780000  1.0 0.0942111072
H  H86  1  0.65200000  0.59740000  0.80220000  1.0 0.0942111072
H  H87  1  0.31690000  0.35980000  0.24390000  1.0 0.0942111072
H  H88  1  0.68310000  0.64020000  0.75610000  1.0 0.0942111072
H  H89  1  0.01480000  0.48550000  0.17980000  1.0 0.0942111072
H  H90  1  0.98520000  0.51450000  0.82020000  1.0 0.0942111072
H  H91  1  0.09870000  0.48650000  0.20240000  1.0 0.0996139213
H  H92  1  0.90130000  0.51350000  0.79760000  1.0 0.0996139213
H  H93  1  0.09490000  0.40940000  0.12230000  1.0 0.0996139213
H  H94  1  0.90510000  0.59060000  0.87770000  1.0 0.0996139213
H  H95  1  0.07130000  0.35370000  0.15820000  1.0 0.0996139213
H  H96  1  0.92870000  0.64630000  0.84180000  1.0 0.0996139213
H  H97  1  0.05500000  0.40300000  0.25770000  1.0 0.0996139213
H  H98  1  0.94500000  0.59700000  0.74230000  1.0 0.0996139213
H  H99  1  0.97650000  0.39850000  0.23260000  1.0 0.0996139213
H  H100  1  0.02350000  0.60150000  0.76740000  1.0 0.0996139213
H  H101  1  0.22160000  0.40840000  0.15850000  1.0 0.0996139213
H  H102  1  0.77840000  0.59160000  0.84150000  1.0 0.0996139213
H  H103  1  0.19840000  0.35470000  0.19710000  1.0 0.0996139213
H  H104  1  0.80160000  0.64530000  0.80290000  1.0 0.0996139213
H  H105  1  0.30750000  0.59000000  0.17570000  1.0 0.1208490772
H  H106  1  0.69250000  0.41000000  0.82430000  1.0 0.1208490772
H  H107  1  0.29590000  0.65870000  0.10910000  1.0 0.1302476977
H  H108  1  0.70410000  0.34130000  0.89090000  1.0 0.1302476977
H  H109  1  0.48610000  0.57240000  0.04400000  1.0 0.1208490772
H  H110  1  0.51390000  0.42760000  0.95600000  1.0 0.1208490772
H  H111  1  0.48590000  0.50250000  0.10950000  1.0 0.1302476977
H  H112  1  0.51410000  0.49750000  0.89050000  1.0 0.1302476977
H  H113  1  0.50860000  0.49300000  0.33440000  1.0 0.1390519873
H  H114  1  0.49140000  0.50700000  0.66560000  1.0 0.1390519873
H  H115  1  0.61120000  0.46400000  0.38580000  1.0 0.1132671491
H  H116  1  0.38880000  0.53600000  0.61420000  1.0 0.1132671491
H  H117  1  0.66680000  0.32090000  0.35500000  1.0 0.1208490772
H  H118  1  0.33320000  0.67910000  0.64500000  1.0 0.1208490772
H  H119  1  0.56770000  0.34910000  0.30020000  1.0 0.1208490772
H  H120  1  0.43230000  0.65090000  0.69980000  1.0 0.1208490772
H  H121  1  0.15670000  0.44800000  0.36100000  1.0 0.1208490772
H  H122  1  0.84330000  0.55200000  0.63900000  1.0 0.1208490772
H  H123  1  0.03260000  0.43060000  0.41380000  1.0 0.1208490772
H  H124  1  0.96740000  0.56940000  0.58620000  1.0 0.1208490772
H  H125  1  0.05730000  0.27730000  0.40140000  1.0 0.1132671491
H  H126  1  0.94270000  0.72270000  0.59860000  1.0 0.1132671491
H  H127  1  0.18030000  0.29410000  0.35050000  1.0 0.1390519873
H  H128  1  0.81970000  0.70590000  0.64950000  1.0 0.1390519873
H  H129  1  0.19200000  0.55490000  0.06230000  1.0 0.1390519873
H  H130  1  0.80800000  0.44510000  0.93770000  1.0 0.1390519873
H  H131  1  0.17510000  0.64930000  0.02960000  1.0 0.1208490772
H  H132  1  0.82490000  0.35070000  0.97040000  1.0 0.1208490772
H  H133  1  0.02990000  0.66780000  0.14460000  1.0 0.1208490772
H  H134  1  0.97010000  0.33220000  0.85540000  1.0 0.1208490772
H  H135  1  0.03830000  0.57530000  0.17530000  1.0 0.1208490772
H  H136  1  0.96170000  0.42470000  0.82470000  1.0 0.1208490772
H  H137  1  0.01390000  0.34900000  0.09510000  1.0 0.1208490772
H  H138  1  0.98610000  0.65100000  0.90490000  1.0 0.1208490772
H  H139  1  0.90830000  0.31430000  0.06590000  1.0 0.1302476977
H  H140  1  0.09170000  0.68570000  0.93410000  1.0 0.1302476977
H  H141  1  0.70580000  0.38080000  0.13550000  1.0 0.1208490772
H  H142  1  0.29420000  0.61920000  0.86450000  1.0 0.1208490772
H  H143  1  0.80900000  0.41940000  0.16210000  1.0 0.1302476977
H  H144  1  0.19100000  0.58060000  0.83790000  1.0 0.1302476977
H  H145  1  0.10160000  0.23100000  0.28100000  1.0 0.1390519873
H  H146  1  0.89840000  0.76900000  0.71900000  1.0 0.1390519873
H  H147  1  0.04000000  0.17520000  0.34790000  1.0 0.1208490772
H  H148  1  0.96000000  0.82480000  0.65210000  1.0 0.1208490772
H  H149  1  0.85110000  0.29550000  0.36640000  1.0 0.1208490772
H  H150  1  0.14890000  0.70450000  0.63360000  1.0 0.1208490772
H  H151  1  0.91940000  0.35240000  0.30080000  1.0 0.1208490772
H  H152  1  0.08060000  0.64760000  0.69920000  1.0 0.1208490772
H  H153  1  0.78500000  0.99590000  0.45660000  1.0 0.1132671491
H  H154  1  0.21500000  0.00410000  0.54340000  1.0 0.1132671491
H  H155  1  0.93160000  0.91830000  0.55110000  1.0 0.1390519873
H  H156  1  0.06840000  0.08170000  0.44890000  1.0 0.1390519873
H  H157  1  0.90880000  0.01620000  0.54650000  1.0 0.1302476977
H  H158  1  0.09120000  0.98380000  0.45350000  1.0 0.1302476977
H  H159  1  0.73410000  0.91170000  0.46160000  1.0 0.1208490772
H  H160  1  0.26590000  0.08830000  0.53840000  1.0 0.1208490772
H  H161  1  0.71840000  0.82940000  0.45130000  1.0 0.1208490772
H  H162  1  0.28160000  0.17060000  0.54870000  1.0 0.1132671491
H  H163  1  0.92760000  0.76000000  0.51240000  1.0 0.1208490772
H  H164  1  0.07240000  0.24000000  0.48760000  1.0 0.1208490772
H  H165  1  0.94210000  0.84380000  0.52630000  1.0 0.1390519873
H  H166  1  0.05790000  0.15620000  0.47370000  1.0 0.1390519873
H  H167  1  0.83720000  0.68440000  0.53220000  1.0 0.1132671491
H  H168  1  0.16280000  0.31560000  0.46780000  1.0 0.1132671491
H  H169  1  0.82860000  0.59940000  0.51740000  1.0 0.1390519873
H  H170  1  0.17140000  0.40060000  0.48260000  1.0 0.1390519873
H  H171  1  0.74980000  0.68130000  0.40070000  1.0 0.1390519873
H  H172  1  0.25020000  0.31870000  0.59930000  1.0 0.1390519873
H  H173  1  0.76330000  0.76210000  0.41470000  1.0 0.1208490772
H  H174  1  0.23670000  0.23790000  0.58530000  1.0 0.1208490772
H  H175  1  0.82650000  0.86750000  0.02870000  1.0 0.1132671491
H  H176  1  0.17350000  0.13250000  0.97130000  1.0 0.1132671491
H  H177  1  0.86520000  0.01210000  0.03710000  1.0 0.1390519873
H  H178  1  0.13480000  0.98790000  0.96290000  1.0 0.1390519873
H  H179  1  0.00410000  0.95360000  0.04460000  1.0 0.1208490772
H  H180  1  0.99590000  0.04640000  0.95540000  1.0 0.1208490772
H  H181  1  0.66950000  0.89280000  0.06340000  1.0 0.1208490772
H  H182  1  0.33050000  0.10720000  0.93660000  1.0 0.1208490772
H  H183  1  0.52770000  0.91590000  0.04710000  1.0 0.1132671491
H  H184  1  0.47230000  0.08410000  0.95290000  1.0 0.1132671491
H  H185  1  0.59530000  0.06320000  0.97250000  1.0 0.0996139213
H  H186  1  0.40470000  0.93680000  0.02750000  1.0 0.0996139213
H  H187  1  0.73860000  0.04020000  0.98690000  1.0 0.1302476977
H  H188  1  0.26140000  0.95980000  0.01310000  1.0 0.1302476977
C  C1  1  0.48440000  0.12380000  0.77720000  1.0 0.0594655779
C  C2  1  0.51560000  0.87620000  0.22280000  1.0 0.0594655779
C  C3  1  0.54620000  0.14500000  0.73100000  1.0 -0.0594234037
C  C4  1  0.45380000  0.85500000  0.26900000  1.0 -0.0594234037
C  C5  1  0.51590000  0.14200000  0.81345000  1.0 -0.0982566997
C  C6  1  0.48410000  0.85800000  0.18655000  1.0 -0.0982566997
C  C7  1  0.49100000  0.06250000  0.78716000  1.0 -0.0982566997
C  C8  1  0.50900000  0.93750000  0.21284000  1.0 -0.0982566997
C  C9  1  0.39090000  0.14900000  0.77290000  1.0 -0.089972448
C  C10  1  0.60910000  0.85100000  0.22710000  1.0 -0.0982566997
C  C11  1  0.24310000  0.11300000  0.70700000  1.0 0.0704458465
C  C12  1  0.75690000  0.88700000  0.29300000  1.0 0.0704458465
C  C13  1  0.30780000  0.10750000  0.66730000  1.0 -0.1097428831
C  C14  1  0.69220000  0.89250000  0.33270000  1.0 -0.1097428831
C  C15  1  0.15290000  0.13950000  0.69220000  1.0 -0.089972448
C  C16  1  0.84710000  0.86050000  0.30780000  1.0 -0.089972448
C  C17  1  0.23560000  0.05500000  0.73850000  1.0 -0.0982566997
C  C18  1  0.76440000  0.94500000  0.26150000  1.0 -0.0982566997
C  C19  1  0.26930000  0.14940000  0.73190000  1.0 -0.089972448
C  C20  1  0.73070000  0.85060000  0.26810000  1.0 -0.089972448
C  C21  1  0.58450000  0.22710000  0.67969000  1.0 0.2507844227
C  C22  1  0.41550000  0.77290000  0.32031000  1.0 0.2396620553
C  C23  1  0.64160000  0.20343000  0.64913000  1.0 -0.2510429365
C  C24  1  0.35840000  0.79657000  0.35087000  1.0 -0.2510429365
C  C25  1  0.68150000  0.23680000  0.60884000  1.0 0.0484032483
C  C26  1  0.31850000  0.76320000  0.39116000  1.0 0.0484032483
C  C27  1  0.66430000  0.29374000  0.59909000  1.0 -0.0408039506
C  C28  1  0.33570000  0.70626000  0.40091000  1.0 -0.0408039506
C  C29  1  0.60720000  0.31741000  0.62970000  1.0 0.0704458465
C  C30  1  0.39280000  0.68259000  0.37030000  1.0 0.0704458465
C  C31  1  0.56730000  0.28410000  0.67000000  1.0 -0.1621210766
C  C32  1  0.43270000  0.71590000  0.33000000  1.0 -0.1621210766
C  C33  1  0.72090000  0.32590000  0.55530000  1.0 0.560022186
C  C34  1  0.27910000  0.67410000  0.44470000  1.0 0.560022186
C  C35  1  0.64520000  0.12920000  0.85120000  1.0 0.2662634757
C  C36  1  0.35480000  0.87080000  0.14880000  1.0 0.2662634757
C  C37  1  0.60010000  0.15940000  0.88190000  1.0 -0.258885065
C  C38  1  0.39990000  0.84060000  0.11810000  1.0 -0.258885065
C  C39  1  0.64840000  0.16530000  0.91410000  1.0 -0.0796722821
C  C40  1  0.35160000  0.83470000  0.08590000  1.0 -0.0796722821
C  C41  1  0.73220000  0.14330000  0.91700000  1.0 -0.0304356704
C  C42  1  0.26780000  0.85670000  0.08300000  1.0 -0.0304356704
C  C43  1  0.77540000  0.11370000  0.88610000  1.0 -0.0982566997
C  C44  1  0.22460000  0.88630000  0.11390000  1.0 -0.0982566997
C  C45  1  0.73320000  0.10640000  0.85350000  1.0 -0.2086975935
C  C46  1  0.26680000  0.89360000  0.14650000  1.0 -0.2086975935
C  C47  1  0.78330000  0.15240000  0.95300000  1.0 0.560022186
C  C48  1  0.21670000  0.84760000  0.04700000  1.0 0.560022186
C  C49  1  0.43590000  0.98530000  0.84320000  1.0 0.2396620553
C  C50  1  0.56410000  0.01470000  0.15680000  1.0 0.2396620553
C  C51  1  0.39240000  0.96340000  0.88680000  1.0 -0.2086975935
C  C52  1  0.60760000  0.03660000  0.11320000  1.0 -0.2086975935
C  C53  1  0.38360000  0.90890000  0.90570000  1.0 -0.0796722821
C  C54  1  0.61640000  0.09110000  0.09430000  1.0 -0.0796722821
C  C55  1  0.41950000  0.87300000  0.87990000  1.0 -0.0408039506
C  C56  1  0.58050000  0.12700000  0.12010000  1.0 -0.0408039506
C  C57  1  0.46300000  0.89260000  0.83650000  1.0 -0.0796722821
C  C58  1  0.53700000  0.10740000  0.16350000  1.0 -0.0796722821
C  C59  1  0.47240000  0.94990000  0.81780000  1.0 -0.2510429365
C  C60  1  0.52760000  0.05010000  0.18220000  1.0 -0.2510429365
C  C61  1  0.41980000  0.81120000  0.89710000  1.0 0.5900029373
C  C62  1  0.58020000  0.18880000  0.10290000  1.0 0.5900029373
C  C63  1  0.40400000  0.16140000  0.61020000  1.0 0.2507844227
C  C64  1  0.59600000  0.83860000  0.38980000  1.0 0.2555253712
C  C65  1  0.44730000  0.11930000  0.59510000  1.0 -0.2422102961
C  C66  1  0.55270000  0.88070000  0.40490000  1.0 -0.2422102961
C  C67  1  0.52330000  0.12260000  0.56470000  1.0 -0.0711059496
C  C68  1  0.47670000  0.87740000  0.43530000  1.0 -0.0711059496
C  C69  1  0.55870000  0.17240000  0.54680000  1.0 -0.0711059496
C  C70  1  0.44130000  0.82760000  0.45320000  1.0 -0.0711059496
C  C71  1  0.51520000  0.21640000  0.56080000  1.0 -0.0796722821
C  C72  1  0.48480000  0.78360000  0.43920000  1.0 -0.0796722821
C  C73  1  0.43940000  0.21340000  0.59090000  1.0 -0.2242867145
C  C74  1  0.56060000  0.78660000  0.40910000  1.0 -0.2242867145
C  C75  1  0.64220000  0.17650000  0.51550000  1.0 0.6020213571
C  C76  1  0.35780000  0.82350000  0.48450000  1.0 0.6020213571
C  C77  1  0.05990000  0.11600000  0.64483000  1.0 0.2507844227
C  C78  1  0.94010000  0.88400000  0.35517000  1.0 0.2507844227
C  C79  1  0.04720000  0.07620000  0.62510000  1.0 -0.2307600471
C  C80  1  0.95280000  0.92380000  0.37490000  1.0 -0.2307600471
C  C81  1  0.99160000  0.08970000  0.59278000  1.0 -0.0982566997
C  C82  1  0.00840000  0.91030000  0.40722000  1.0 -0.0982566997
C  C83  1  0.94300000  0.14160000  0.58151000  1.0 -0.0711059496
C  C84  1  0.05700000  0.85840000  0.41849000  1.0 -0.0711059496
C  C85  1  0.95420000  0.17860000  0.60405000  1.0 -0.0711059496
C  C86  1  0.04580000  0.82140000  0.39595000  1.0 -0.0711059496
C  C87  1  0.01460000  0.16730000  0.63539000  1.0 -0.2510429365
C  C88  1  0.98540000  0.83270000  0.36461000  1.0 -0.2510429365
C  C89  1  0.88970000  0.15598000  0.54385000  1.0 0.5807477641
C  C90  1  0.11030000  0.84402000  0.45615000  1.0 0.5807477641
C  C91  1  0.15770000  0.00940000  0.80790000  1.0 0.2507844227
C  C92  1  0.84230000  0.99060000  0.19210000  1.0 0.2507844227
C  C93  1  0.21330000  0.96210000  0.80980000  1.0 -0.2422102961
C  C94  1  0.78670000  0.03790000  0.19020000  1.0 -0.2422102961
C  C95  1  0.20450000  0.91910000  0.84870000  1.0 -0.0796722821
C  C96  1  0.79550000  0.08090000  0.15130000  1.0 -0.0796722821
C  C97  1  0.13890000  0.91980000  0.88400000  1.0 -0.0408039506
C  C98  1  0.86110000  0.08020000  0.11600000  1.0 -0.0408039506
C  C99  1  0.08030000  0.96490000  0.88010000  1.0 -0.1097428831
C  C100  1  0.91970000  0.03510000  0.11990000  1.0 -0.0982566997
C  C101  1  0.08910000  0.01040000  0.84150000  1.0 -0.2307600471
C  C102  1  0.91090000  0.98960000  0.15850000  1.0 -0.2307600471
C  C103  1  0.13340000  0.87290000  0.92790000  1.0 0.5900029373
C  C104  1  0.86660000  0.12710000  0.07210000  1.0 0.5900029373
C  C105  1  0.34180000  0.43350000  0.25320000  1.0 0.0704458465
C  C106  1  0.65820000  0.56650000  0.74680000  1.0 0.0704458465
C  C107  1  0.33900000  0.49320000  0.22550000  1.0 -0.0982566997
C  C108  1  0.66100000  0.50680000  0.77450000  1.0 -0.0982566997
C  C109  1  0.43250000  0.40820000  0.26500000  1.0 -0.089972448
C  C110  1  0.56750000  0.59180000  0.73500000  1.0 -0.089972448
C  C111  1  0.27700000  0.43430000  0.29380000  1.0 -0.1097428831
C  C112  1  0.72300000  0.56570000  0.70620000  1.0 -0.1097428831
C  C113  1  0.31130000  0.39840000  0.22710000  1.0 -0.0796722821
C  C114  1  0.68870000  0.60160000  0.77290000  1.0 -0.0796722821
C  C115  1  0.09520000  0.41250000  0.18850000  1.0 0.0704458465
C  C116  1  0.90480000  0.58750000  0.81150000  1.0 0.0704458465
C  C117  1  0.07800000  0.47440000  0.17934000  1.0 -0.089972448
C  C118  1  0.92200000  0.52560000  0.82066000  1.0 -0.089972448
C  C119  1  0.06220000  0.39360000  0.15180000  1.0 -0.089972448
C  C120  1  0.93780000  0.60640000  0.84820000  1.0 -0.0796722821
C  C121  1  0.03940000  0.38874000  0.23460000  1.0 -0.089972448
C  C122  1  0.96060000  0.61126000  0.76540000  1.0 -0.089972448
C  C123  1  0.18930000  0.39460000  0.18854000  1.0 -0.0982566997
C  C124  1  0.81070000  0.60540000  0.81146000  1.0 -0.1097428831
C  C125  1  0.39640000  0.53930000  0.14910000  1.0 0.2396620553
C  C126  1  0.60360000  0.46070000  0.85090000  1.0 0.2396620553
C  C127  1  0.34160000  0.58590000  0.14890000  1.0 -0.2307600471
C  C128  1  0.65840000  0.41410000  0.85110000  1.0 -0.2307600471
C  C129  1  0.33570000  0.62770000  0.10900000  1.0 -0.0796722821
C  C130  1  0.66430000  0.37230000  0.89100000  1.0 -0.0796722821
C  C131  1  0.38690000  0.62380000  0.07020000  1.0 -0.0304356704
C  C132  1  0.61310000  0.37620000  0.92980000  1.0 -0.0304356704
C  C133  1  0.44820000  0.57550000  0.07010000  1.0 -0.089972448
C  C134  1  0.55180000  0.42450000  0.92990000  1.0 -0.089972448
C  C135  1  0.44890000  0.53480000  0.10930000  1.0 -0.1998959723
C  C136  1  0.55110000  0.46520000  0.89070000  1.0 -0.1998959723
C  C137  1  0.37400000  0.66880000  0.02630000  1.0 0.5807477641
C  C138  1  0.62600000  0.33120000  0.97370000  1.0 0.5807477641
C  C139  1  0.52510000  0.42400000  0.31370000  1.0 0.2662634757
C  C140  1  0.47490000  0.57600000  0.68630000  1.0 0.2662634757
C  C141  1  0.53910000  0.45810000  0.33850000  1.0 -0.2422102961
C  C142  1  0.46090000  0.54190000  0.66150000  1.0 -0.2422102961
C  C143  1  0.59960000  0.44010000  0.37020000  1.0 -0.0796722821
C  C144  1  0.40040000  0.55990000  0.62980000  1.0 -0.0796722821
C  C145  1  0.64230000  0.38720000  0.37860000  1.0 -0.0796722821
C  C146  1  0.35770000  0.61280000  0.62140000  1.0 -0.0796722821
C  C147  1  0.63330000  0.35480000  0.35150000  1.0 -0.0711059496
C  C148  1  0.36670000  0.64520000  0.64850000  1.0 -0.0711059496
C  C149  1  0.57390000  0.37150000  0.31810000  1.0 -0.258885065
C  C150  1  0.42610000  0.62850000  0.68190000  1.0 -0.258885065
C  C151  1  0.18580000  0.37290000  0.35090000  1.0 0.2507844227
C  C152  1  0.81420000  0.62710000  0.64910000  1.0 0.2555253712
C  C153  1  0.13700000  0.41290000  0.36960000  1.0 -0.2422102961
C  C154  1  0.86300000  0.58710000  0.63040000  1.0 -0.2422102961
C  C155  1  0.06080000  0.40340000  0.40040000  1.0 -0.0796722821
C  C156  1  0.93920000  0.59660000  0.59960000  1.0 -0.0796722821
C  C157  1  0.02690000  0.35270000  0.41090000  1.0 -0.1097428831
C  C158  1  0.97310000  0.64730000  0.58910000  1.0 -0.1097428831
C  C159  1  0.07650000  0.31240000  0.39270000  1.0 -0.0796722821
C  C160  1  0.92350000  0.68760000  0.60730000  1.0 -0.0796722821
C  C161  1  0.15130000  0.32190000  0.36300000  1.0 -0.2086975935
C  C162  1  0.84870000  0.67810000  0.63700000  1.0 -0.2086975935
C  C163  1  0.94500000  0.34380000  0.44110000  1.0 0.5807477641
C  C164  1  0.05500000  0.65620000  0.55890000  1.0 0.5807477641
C  C165  1  0.11350000  0.55550000  0.12140000  1.0 0.2396620553
C  C166  1  0.88650000  0.44450000  0.87860000  1.0 0.2396620553
C  C167  1  0.15680000  0.57780000  0.07820000  1.0 -0.2086975935
C  C168  1  0.84320000  0.42220000  0.92180000  1.0 -0.2086975935
C  C169  1  0.14730000  0.63450000  0.05890000  1.0 -0.089972448
C  C170  1  0.85270000  0.36550000  0.94110000  1.0 -0.089972448
C  C171  1  0.09710000  0.66880000  0.08280000  1.0 -0.0408039506
C  C172  1  0.90290000  0.33120000  0.91720000  1.0 -0.0408039506
C  C173  1  0.05990000  0.64490000  0.12730000  1.0 -0.0711059496
C  C174  1  0.94010000  0.35510000  0.87270000  1.0 -0.0711059496
C  C175  1  0.06600000  0.59000000  0.14600000  1.0 -0.2307600471
C  C176  1  0.93400000  0.41000000  0.85400000  1.0 -0.2307600471
C  C177  1  0.08480000  0.72930000  0.06178000  1.0 0.572274616
C  C178  1  0.91520000  0.27070000  0.93822000  1.0 0.572274616
C  C179  1  0.92070000  0.38720000  0.13240000  1.0 0.2507844227
C  C180  1  0.07930000  0.61280000  0.86760000  1.0 0.2507844227
C  C181  1  0.95310000  0.35610000  0.10350000  1.0 -0.2510429365
C  C182  1  0.04690000  0.64390000  0.89650000  1.0 -0.2510429365
C  C183  1  0.88810000  0.33470000  0.08670000  1.0 -0.0711059496
C  C184  1  0.11190000  0.66530000  0.91330000  1.0 -0.0711059496
C  C185  1  0.79770000  0.34240000  0.09940000  1.0 -0.0594234037
C  C186  1  0.20230000  0.65760000  0.90060000  1.0 -0.0711059496
C  C187  1  0.76650000  0.37390000  0.12700000  1.0 -0.0796722821
C  C188  1  0.23350000  0.62610000  0.87300000  1.0 -0.0796722821
C  C189  1  0.83000000  0.39670000  0.14320000  1.0 -0.2422102961
C  C190  1  0.17000000  0.60330000  0.85680000  1.0 -0.2422102961
C  C191  1  0.73950000  0.31480000  0.08060000  1.0 0.5900029373
C  C192  1  0.26050000  0.68520000  0.91940000  1.0 0.5900029373
C  C193  1  0.01660000  0.29850000  0.28580000  1.0 0.2396620553
C  C194  1  0.98340000  0.70150000  0.71420000  1.0 0.2396620553
C  C195  1  0.05300000  0.24420000  0.29860000  1.0 -0.2086975935
C  C196  1  0.94700000  0.75580000  0.70140000  1.0 -0.2086975935
C  C197  1  0.01450000  0.21120000  0.33810000  1.0 -0.0982566997
C  C198  1  0.98550000  0.78880000  0.66190000  1.0 -0.0982566997
C  C199  1  0.93840000  0.22820000  0.36510000  1.0 -0.0408039506
C  C200  1  0.06160000  0.77180000  0.63490000  1.0 -0.0408039506
C  C201  1  0.90190000  0.28230000  0.35023000  1.0 -0.0796722821
C  C202  1  0.09810000  0.71770000  0.64977000  1.0 -0.0796722821
C  C203  1  0.94330000  0.31600000  0.31070000  1.0 -0.2307600471
C  C204  1  0.05670000  0.68400000  0.68930000  1.0 -0.2307600471
C  C205  1  0.89770000  0.19025000  0.40810000  1.0 0.560022186
C  C206  1  0.10230000  0.80975000  0.59190000  1.0 0.560022186
C  C207  1  0.81960000  0.98919000  0.47977000  1.0 0.0996139213
C  C208  1  0.18040000  0.01081000  0.52023000  1.0 0.0996139213
C  C209  1  0.89810000  0.94510000  0.53170000  1.0 -0.0796722821
C  C210  1  0.10190000  0.05490000  0.46830000  1.0 -0.0796722821
C  C211  1  0.88740000  0.99970000  0.52780000  1.0 -0.0304356704
C  C212  1  0.11260000  0.00030000  0.47220000  1.0 -0.0304356704
C  C213  1  0.83840000  0.88630000  0.49549000  1.0 0.1519869697
C  C214  1  0.16160000  0.11370000  0.50451000  1.0 0.1519869697
C  C215  1  0.77280000  0.88120000  0.47290000  1.0 -0.1830869154
C  C216  1  0.22720000  0.11880000  0.52710000  1.0 -0.1830869154
C  C217  1  0.76390000  0.83160000  0.46690000  1.0 -0.123011941
C  C218  1  0.23610000  0.16840000  0.53310000  1.0 -0.123011941
C  C219  1  0.81620000  0.78580000  0.48180000  1.0 0.0704458465
C  C220  1  0.18380000  0.21420000  0.51820000  1.0 0.0704458465
C  C221  1  0.88710000  0.79030000  0.50330000  1.0 -0.1097428831
C  C222  1  0.11290000  0.20970000  0.49670000  1.0 -0.1097428831
C  C223  1  0.89670000  0.84090000  0.51100000  1.0 -0.1621210766
C  C224  1  0.10330000  0.15910000  0.48900000  1.0 -0.1621210766
C  C225  1  0.80680000  0.73140000  0.47490000  1.0 0.0772416574
C  C226  1  0.19320000  0.26860000  0.52510000  1.0 0.0772416574
C  C227  1  0.82060000  0.68440000  0.50480000  1.0 -0.1407578956
C  C228  1  0.17940000  0.31560000  0.49520000  1.0 -0.1407578956
C  C229  1  0.81130000  0.63260000  0.49730000  1.0 -0.1621210766
C  C230  1  0.18870000  0.36740000  0.50270000  1.0 -0.1621210766
C  C231  1  0.77820000  0.63370000  0.46170000  1.0 0.1519869697
C  C232  1  0.22180000  0.36630000  0.53830000  1.0 0.1519869697
C  C233  1  0.76560000  0.68170000  0.42820000  1.0 -0.1479954931
C  C234  1  0.23440000  0.31830000  0.57180000  1.0 -0.1479954931
C  C235  1  0.77660000  0.72920000  0.43620000  1.0 -0.1407578956
C  C236  1  0.22340000  0.27080000  0.56380000  1.0 -0.1479954931
C  C237  1  0.85260000  0.89680000  0.03200000  1.0 0.0942111072
C  C238  1  0.14740000  0.10320000  0.96800000  1.0 0.0942111072
C  C239  1  0.87410000  0.97540000  0.03650000  1.0 -0.1479954931
C  C240  1  0.12590000  0.02460000  0.96350000  1.0 -0.1479954931
C  C241  1  0.95100000  0.94310000  0.04060000  1.0 -0.0101405884
C  C242  1  0.04900000  0.05690000  0.95940000  1.0 -0.0101405884
C  C243  1  0.72190000  0.96120000  0.02300000  1.0 0.1519869697
C  C244  1  0.27810000  0.03880000  0.97700000  1.0 0.1519869697
C  C245  1  0.65560000  0.92650000  0.04310000  1.0 -0.1897208515
C  C246  1  0.34440000  0.07350000  0.95690000  1.0 -0.1897208515
C  C247  1  0.56990000  0.94090000  0.03390000  1.0 -0.1407578956
C  C248  1  0.43010000  0.05910000  0.96610000  1.0 -0.1407578956
C  C249  1  0.54440000  0.99130000  0.00580000  1.0 0.0594655779
C  C250  1  0.45560000  0.00870000  0.99420000  1.0 0.0594655779
C  C251  1  0.61090000  0.02770000  0.98980000  1.0 -0.1255165729
C  C252  1  0.38910000  0.97230000  0.01020000  1.0 -0.1255165729
C  C253  1  0.69730000  0.01420000  0.99790000  1.0 -0.1711290291
C  C254  1  0.30270000  0.98580000  0.00210000  1.0 -0.1711290291
C  C255  1  0.69800000  0.36690000  0.41570000  1.0 0.5900029373
C  C256  1  0.30200000  0.63310000  0.58430000  1.0 0.5900029373
C  C257  1  0.79010000  0.53003000  0.48241000  1.0 0.0124978663
C  C258  1  0.20990000  0.46997000  0.51759000  1.0 0.0164780816
C  C259  1  0.72620000  0.57732000  0.41884000  1.0 -0.0537920258
C  C260  1  0.27380000  0.42268000  0.58116000  1.0 -0.0537920258
C  C261  1  0.72160000  0.52013000  0.42534000  1.0 0.1302476977
C  C262  1  0.27840000  0.47987000  0.57466000  1.0 0.1390519873
N  N1  1  0.84200000  0.02743000  0.49338000  1.0 -0.2750969919
N  N2  1  0.15800000  0.97257000  0.50662000  1.0 -0.2737381848
N  N3  1  0.85120000  0.93731000  0.50236000  1.0 0.0124978663
N  N4  1  0.14880000  0.06269000  0.49764000  1.0 0.0124978663
N  N5  1  0.93830000  0.89314000  0.03802000  1.0 -0.2861844245
N  N6  1  0.06170000  0.10686000  0.96198000  1.0 -0.2861844245
N  N7  1  0.80960000  0.94469000  0.03110000  1.0 0.0124978663
N  N8  1  0.19040000  0.05531000  0.96890000  1.0 0.0124978663
N  N9  1  0.76110000  0.49090000  0.46463000  1.0 -0.258885065
N  N10  1  0.23890000  0.50910000  0.53537000  1.0 -0.2510429365
N  N11  1  0.76850000  0.58344000  0.45411000  1.0 0.0164780816
N  N12  1  0.23150000  0.41656000  0.54589000  1.0 0.0164780816
O  O1  1  0.35800000  0.12857000  0.74123000  1.0 -0.1897208515
O  O2  1  0.64200000  0.87143000  0.25877000  1.0 -0.1897208515
O  O3  1  0.54580000  0.20139000  0.72132000  1.0 -0.1407578956
O  O4  1  0.45420000  0.79861000  0.27868000  1.0 -0.1407578956
O  O5  1  0.60490000  0.11956000  0.81837000  1.0 -0.1711290291
O  O6  1  0.39510000  0.88044000  0.18163000  1.0 -0.1711290291
O  O7  1  0.43780000  0.04121000  0.82888000  1.0 -0.1897208515
O  O8  1  0.56220000  0.95879000  0.17112000  1.0 -0.1830869154
O  O9  1  0.33130000  0.16074000  0.64098000  1.0 -0.1830869154
O  O10  1  0.66870000  0.83926000  0.35902000  1.0 -0.1830869154
O  O11  1  0.12040000  0.09890000  0.67495000  1.0 -0.1897208515
O  O12  1  0.87960000  0.90110000  0.32505000  1.0 -0.1897208515
O  O13  1  0.16120000  0.05588000  0.77356000  1.0 -0.1711290291
O  O14  1  0.83880000  0.94412000  0.22644000  1.0 -0.1711290291
O  O15  1  0.69030000  0.38180000  0.54740000  1.0 -0.5493744081
O  O16  1  0.30970000  0.61820000  0.45260000  1.0 -0.5493744081
O  O17  1  0.75200000  0.31264000  0.52615000  1.0 -0.4144277069
O  O18  1  0.24800000  0.68736000  0.47385000  1.0 -0.4144277069
O  O19  1  0.86470000  0.13718000  0.94953000  1.0 -0.5435316357
O  O20  1  0.13530000  0.86282000  0.05047000  1.0 -0.5435316357
O  O21  1  0.73770000  0.17269000  0.98137000  1.0 -0.5286284628
O  O22  1  0.26230000  0.82731000  0.01863000  1.0 -0.5286284628
O  O23  1  0.38250000  0.79104000  0.93735000  1.0 -0.5903795553
O  O24  1  0.61750000  0.20896000  0.06265000  1.0 -0.5903795553
O  O25  1  0.45620000  0.78127000  0.87214000  1.0 -0.5435316357
O  O26  1  0.54380000  0.21873000  0.12786000  1.0 -0.5493744081
O  O27  1  0.67240000  0.22346000  0.49835000  1.0 -0.5599699113
O  O28  1  0.32760000  0.77654000  0.50165000  1.0 -0.5599699113
O  O29  1  0.68670000  0.13195000  0.50722000  1.0 -0.5903795553
O  O30  1  0.31330000  0.86805000  0.49278000  1.0 -0.5903795553
O  O31  1  0.85280000  0.20509000  0.53286000  1.0 -0.5712645146
O  O32  1  0.14720000  0.79491000  0.46714000  1.0 -0.5712645146
O  O33  1  0.88200000  0.11979000  0.52554000  1.0 -0.5493744081
O  O34  1  0.11800000  0.88021000  0.47446000  1.0 -0.5493744081
O  O35  1  0.19240000  0.83331000  0.92863000  1.0 -0.5493744081
O  O36  1  0.80760000  0.16669000  0.07137000  1.0 -0.5493744081
O  O37  1  0.07380000  0.87950000  0.95874000  1.0 -0.5493744081
O  O38  1  0.92620000  0.12050000  0.04126000  1.0 -0.5493744081
O  O39  1  0.22100000  0.41610000  0.22104000  1.0 -0.1897208515
O  O40  1  0.77900000  0.58390000  0.77896000  1.0 -0.1897208515
O  O41  1  0.40500000  0.49456000  0.18675000  1.0 -0.1897208515
O  O42  1  0.59500000  0.50544000  0.81325000  1.0 -0.1897208515
O  O43  1  0.46360000  0.44553000  0.28472000  1.0 -0.1897208515
O  O44  1  0.53640000  0.55447000  0.71528000  1.0 -0.1897208515
O  O45  1  0.26230000  0.37902000  0.32091000  1.0 -0.1711290291
O  O46  1  0.73770000  0.62098000  0.67909000  1.0 -0.1711290291
O  O47  1  0.12450000  0.49846000  0.13601000  1.0 -0.1830869154
O  O48  1  0.87550000  0.50154000  0.86399000  1.0 -0.1830869154
O  O49  1  0.97020000  0.41139000  0.15192000  1.0 -0.1897208515
O  O50  1  0.02980000  0.58861000  0.84808000  1.0 -0.1897208515
O  O51  1  0.05990000  0.32882000  0.24554000  1.0 -0.1998959723
O  O52  1  0.94010000  0.67118000  0.75446000  1.0 -0.1998959723
O  O53  1  0.42610000  0.65667000  0.99083000  1.0 -0.6151422652
O  O54  1  0.57390000  0.34333000  0.00917000  1.0 -0.6151422652
O  O55  1  0.32520000  0.70953000  0.02772000  1.0 -0.4939497504
O  O56  1  0.67480000  0.29047000  0.97228000  1.0 -0.4939497504
O  O57  1  0.70850000  0.40076000  0.43573000  1.0 -0.5286284628
O  O58  1  0.29150000  0.59924000  0.56427000  1.0 -0.5286284628
O  O59  1  0.72970000  0.31876000  0.42476000  1.0 -0.5286284628
O  O60  1  0.27030000  0.68124000  0.57524000  1.0 -0.5286284628
O  O61  1  0.90030000  0.38538000  0.45387000  1.0 -0.5712645146
O  O62  1  0.09970000  0.61462000  0.54613000  1.0 -0.5712645146
O  O63  1  0.91750000  0.29667000  0.45300000  1.0 -0.5599699113
O  O64  1  0.08250000  0.70333000  0.54700000  1.0 -0.5599699113
O  O65  1  0.12550000  0.75049000  0.02270000  1.0 -0.5847872886
O  O66  1  0.87450000  0.24951000  0.97730000  1.0 -0.5847872886
O  O67  1  0.03220000  0.75771000  0.08250000  1.0 -0.5219630393
O  O68  1  0.96780000  0.24229000  0.91750000  1.0 -0.5219630393
O  O69  1  0.77110000  0.28815000  0.05324000  1.0 -0.5286284628
O  O70  1  0.22890000  0.71185000  0.94676000  1.0 -0.5286284628
O  O71  1  0.65720000  0.32069000  0.09839000  1.0 -0.5712645146
O  O72  1  0.34280000  0.67931000  0.90161000  1.0 -0.5712645146
O  O73  1  0.93110000  0.13945000  0.41917000  1.0 -0.5903795553
O  O74  1  0.06890000  0.86055000  0.58083000  1.0 -0.5903795553
O  O75  1  0.83160000  0.20656000  0.43173000  1.0 -0.5493744081
O  O76  1  0.16840000  0.79344000  0.56827000  1.0 -0.5493744081
