# DDEC6 charges by PACMAN v1.1 (https://github.com/mtap-research/PACMAN-charge/)
data_AGELOQ_ASR_pacman
_symmetry_space_group_name_H-M   'P 1'
_cell_length_a   18.39110000
_cell_length_b   18.39110000
_cell_length_c   29.01380000
_cell_angle_alpha   90.00000000
_cell_angle_beta   90.00000000
_cell_angle_gamma   90.00000000
_symmetry_Int_Tables_number   1
_chemical_formula_structural   Cu3P4H60C60S4N24Cl2O
_chemical_formula_sum   'Cu12 P16 H240 C240 S16 N96 Cl8 O4'
_cell_volume   9813.41182641
_cell_formula_units_Z   4
loop_
 _symmetry_equiv_pos_site_id
 _symmetry_equiv_pos_as_xyz
  1  'x, y, z'
loop_
 _atom_site_type_symbol
 _atom_site_label
 _atom_site_symmetry_multiplicity
 _atom_site_fract_x
 _atom_site_fract_y
 _atom_site_fract_z
 _atom_site_occupancy
 _atom_site_charge
Cu  Cu1  1  0.50000000  0.50000000  0.22821000  1.0 0.4641550666
Cu  Cu2  1  0.50000000  0.50000000  0.77179000  1.0 0.4655481613
Cu  Cu3  1  0.50000000  0.85973000  0.00000000  1.0 0.5117768533
Cu  Cu4  1  0.50000000  0.14027000  0.00000000  1.0 0.5117768533
Cu  Cu5  1  0.14027000  0.50000000  0.00000000  1.0 0.5117768533
Cu  Cu6  1  0.85973000  0.50000000  0.00000000  1.0 0.5117768533
Cu  Cu7  1  0.00000000  0.00000000  0.27179000  1.0 0.4641550666
Cu  Cu8  1  0.00000000  0.00000000  0.72821000  1.0 0.4655481613
Cu  Cu9  1  0.00000000  0.64027000  0.50000000  1.0 0.5117768533
Cu  Cu10  1  0.00000000  0.35973000  0.50000000  1.0 0.5117768533
Cu  Cu11  1  0.35973000  0.00000000  0.50000000  1.0 0.5117768533
Cu  Cu12  1  0.64027000  0.00000000  0.50000000  1.0 0.5117768533
P  P1  1  0.31901000  0.68477000  0.11623000  1.0 0.9481169468
P  P2  1  0.68099000  0.31523000  0.11623000  1.0 0.9481169468
P  P3  1  0.31523000  0.31901000  0.11623000  1.0 0.9481169468
P  P4  1  0.68477000  0.68099000  0.11623000  1.0 0.9481169468
P  P5  1  0.68099000  0.68477000  0.88377000  1.0 0.9481169468
P  P6  1  0.31901000  0.31523000  0.88377000  1.0 0.9481169468
P  P7  1  0.68477000  0.31901000  0.88377000  1.0 0.9481169468
P  P8  1  0.31523000  0.68099000  0.88377000  1.0 0.9481169468
P  P9  1  0.18099000  0.81523000  0.38377000  1.0 0.9481169468
P  P10  1  0.81901000  0.18477000  0.38377000  1.0 0.9481169468
P  P11  1  0.18477000  0.18099000  0.38377000  1.0 0.9481169468
P  P12  1  0.81523000  0.81901000  0.38377000  1.0 0.9481169468
P  P13  1  0.81901000  0.81523000  0.61623000  1.0 0.9481169468
P  P14  1  0.18099000  0.18477000  0.61623000  1.0 0.9481169468
P  P15  1  0.81523000  0.18099000  0.61623000  1.0 0.9481169468
P  P16  1  0.18477000  0.81901000  0.61623000  1.0 0.9481169468
H  H1  1  0.35360000  0.77990000  0.15640000  1.0 0.2965813203
H  H2  1  0.40550000  0.59860000  0.17310000  1.0 0.1093151341
H  H3  1  0.53390000  0.63660000  0.27930000  1.0 0.0886717484
H  H4  1  0.51220000  0.75980000  0.27550000  1.0 0.1177234648
H  H5  1  0.42750000  0.80320000  0.22110000  1.0 0.1177234648
H  H6  1  0.22380000  0.74790000  0.09530000  1.0 0.2965813203
H  H7  1  0.40340000  0.77540000  0.06030000  1.0 0.1093151341
H  H8  1  0.36260000  0.93490000  0.97380000  1.0 0.1003324686
H  H9  1  0.23840000  0.92800000  0.98780000  1.0 0.1177234648
H  H10  1  0.19650000  0.84600000  0.04470000  1.0 0.1177234648
H  H11  1  0.25790000  0.64710000  0.17670000  1.0 0.2965813203
H  H12  1  0.23170000  0.59200000  0.06150000  1.0 0.1093151341
H  H13  1  0.06450000  0.46370000  0.08740000  1.0 0.1003324686
H  H14  1  0.06950000  0.49070000  0.16530000  1.0 0.1093151341
H  H15  1  0.15480000  0.57610000  0.19170000  1.0 0.1177234648
H  H16  1  0.64640000  0.22010000  0.15640000  1.0 0.2965813203
H  H17  1  0.59450000  0.40140000  0.17310000  1.0 0.1093151341
H  H18  1  0.46610000  0.36340000  0.27930000  1.0 0.0886717484
H  H19  1  0.48780000  0.24020000  0.27550000  1.0 0.1177234648
H  H20  1  0.57250000  0.19680000  0.22110000  1.0 0.1177234648
H  H21  1  0.77620000  0.25210000  0.09530000  1.0 0.2965813203
H  H22  1  0.59660000  0.22460000  0.06030000  1.0 0.1093151341
H  H23  1  0.63740000  0.06510000  0.97380000  1.0 0.1003324686
H  H24  1  0.76160000  0.07200000  0.98780000  1.0 0.1177234648
H  H25  1  0.80350000  0.15400000  0.04470000  1.0 0.1177234648
H  H26  1  0.74210000  0.35290000  0.17670000  1.0 0.2965813203
H  H27  1  0.76830000  0.40800000  0.06150000  1.0 0.1093151341
H  H28  1  0.93550000  0.53630000  0.08740000  1.0 0.1003324686
H  H29  1  0.93050000  0.50930000  0.16530000  1.0 0.1093151341
H  H30  1  0.84520000  0.42390000  0.19170000  1.0 0.1177234648
H  H31  1  0.22010000  0.35360000  0.15640000  1.0 0.2965813203
H  H32  1  0.40140000  0.40550000  0.17310000  1.0 0.1093151341
H  H33  1  0.36340000  0.53390000  0.27930000  1.0 0.0886717484
H  H34  1  0.24020000  0.51220000  0.27550000  1.0 0.1177234648
H  H35  1  0.19680000  0.42750000  0.22110000  1.0 0.1177234648
H  H36  1  0.25210000  0.22380000  0.09530000  1.0 0.2965813203
H  H37  1  0.22460000  0.40340000  0.06030000  1.0 0.1093151341
H  H38  1  0.06510000  0.36260000  0.97380000  1.0 0.1003324686
H  H39  1  0.07200000  0.23840000  0.98780000  1.0 0.1177234648
H  H40  1  0.15400000  0.19650000  0.04470000  1.0 0.1177234648
H  H41  1  0.35290000  0.25790000  0.17670000  1.0 0.2965813203
H  H42  1  0.40800000  0.23170000  0.06150000  1.0 0.1093151341
H  H43  1  0.53630000  0.06450000  0.08740000  1.0 0.1003324686
H  H44  1  0.50930000  0.06950000  0.16530000  1.0 0.1093151341
H  H45  1  0.42390000  0.15480000  0.19170000  1.0 0.1177234648
H  H46  1  0.77990000  0.64640000  0.15640000  1.0 0.2965813203
H  H47  1  0.59860000  0.59450000  0.17310000  1.0 0.1093151341
H  H48  1  0.63660000  0.46610000  0.27930000  1.0 0.0886717484
H  H49  1  0.75980000  0.48780000  0.27550000  1.0 0.1177234648
H  H50  1  0.80320000  0.57250000  0.22110000  1.0 0.1177234648
H  H51  1  0.74790000  0.77620000  0.09530000  1.0 0.2965813203
H  H52  1  0.77540000  0.59660000  0.06030000  1.0 0.1093151341
H  H53  1  0.93490000  0.63740000  0.97380000  1.0 0.1003324686
H  H54  1  0.92800000  0.76160000  0.98780000  1.0 0.1177234648
H  H55  1  0.84600000  0.80350000  0.04470000  1.0 0.1177234648
H  H56  1  0.64710000  0.74210000  0.17670000  1.0 0.2965813203
H  H57  1  0.59200000  0.76830000  0.06150000  1.0 0.1093151341
H  H58  1  0.46370000  0.93550000  0.08740000  1.0 0.1003324686
H  H59  1  0.49070000  0.93050000  0.16530000  1.0 0.1093151341
H  H60  1  0.57610000  0.84520000  0.19170000  1.0 0.1177234648
H  H61  1  0.64640000  0.77990000  0.84360000  1.0 0.2965813203
H  H62  1  0.59450000  0.59860000  0.82690000  1.0 0.1093151341
H  H63  1  0.46610000  0.63660000  0.72070000  1.0 0.0886717484
H  H64  1  0.48780000  0.75980000  0.72450000  1.0 0.1177234648
H  H65  1  0.57250000  0.80320000  0.77890000  1.0 0.1177234648
H  H66  1  0.77620000  0.74790000  0.90470000  1.0 0.2965813203
H  H67  1  0.59660000  0.77540000  0.93970000  1.0 0.1093151341
H  H68  1  0.63740000  0.93490000  0.02620000  1.0 0.1003324686
H  H69  1  0.76160000  0.92800000  0.01220000  1.0 0.1177234648
H  H70  1  0.80350000  0.84600000  0.95530000  1.0 0.1177234648
H  H71  1  0.74210000  0.64710000  0.82330000  1.0 0.2965813203
H  H72  1  0.76830000  0.59200000  0.93850000  1.0 0.1093151341
H  H73  1  0.93550000  0.46370000  0.91260000  1.0 0.1003324686
H  H74  1  0.93050000  0.49070000  0.83470000  1.0 0.1093151341
H  H75  1  0.84520000  0.57610000  0.80830000  1.0 0.1177234648
H  H76  1  0.35360000  0.22010000  0.84360000  1.0 0.2965813203
H  H77  1  0.40550000  0.40140000  0.82690000  1.0 0.1093151341
H  H78  1  0.53390000  0.36340000  0.72070000  1.0 0.0886717484
H  H79  1  0.51220000  0.24020000  0.72450000  1.0 0.1177234648
H  H80  1  0.42750000  0.19680000  0.77890000  1.0 0.1177234648
H  H81  1  0.22380000  0.25210000  0.90470000  1.0 0.2965813203
H  H82  1  0.40340000  0.22460000  0.93970000  1.0 0.1093151341
H  H83  1  0.36260000  0.06510000  0.02620000  1.0 0.1003324686
H  H84  1  0.23840000  0.07200000  0.01220000  1.0 0.1177234648
H  H85  1  0.19650000  0.15400000  0.95530000  1.0 0.1177234648
H  H86  1  0.25790000  0.35290000  0.82330000  1.0 0.2965813203
H  H87  1  0.23170000  0.40800000  0.93850000  1.0 0.1093151341
H  H88  1  0.06450000  0.53630000  0.91260000  1.0 0.1003324686
H  H89  1  0.06950000  0.50930000  0.83470000  1.0 0.1093151341
H  H90  1  0.15480000  0.42390000  0.80830000  1.0 0.1177234648
H  H91  1  0.77990000  0.35360000  0.84360000  1.0 0.2965813203
H  H92  1  0.59860000  0.40550000  0.82690000  1.0 0.1093151341
H  H93  1  0.63660000  0.53390000  0.72070000  1.0 0.0886717484
H  H94  1  0.75980000  0.51220000  0.72450000  1.0 0.1177234648
H  H95  1  0.80320000  0.42750000  0.77890000  1.0 0.1177234648
H  H96  1  0.74790000  0.22380000  0.90470000  1.0 0.2965813203
H  H97  1  0.77540000  0.40340000  0.93970000  1.0 0.1093151341
H  H98  1  0.93490000  0.36260000  0.02620000  1.0 0.1003324686
H  H99  1  0.92800000  0.23840000  0.01220000  1.0 0.1177234648
H  H100  1  0.84600000  0.19650000  0.95530000  1.0 0.1177234648
H  H101  1  0.64710000  0.25790000  0.82330000  1.0 0.2965813203
H  H102  1  0.59200000  0.23170000  0.93850000  1.0 0.1093151341
H  H103  1  0.46370000  0.06450000  0.91260000  1.0 0.1003324686
H  H104  1  0.49070000  0.06950000  0.83470000  1.0 0.1093151341
H  H105  1  0.57610000  0.15480000  0.80830000  1.0 0.1177234648
H  H106  1  0.22010000  0.64640000  0.84360000  1.0 0.2965813203
H  H107  1  0.40140000  0.59450000  0.82690000  1.0 0.1093151341
H  H108  1  0.36340000  0.46610000  0.72070000  1.0 0.0886717484
H  H109  1  0.24020000  0.48780000  0.72450000  1.0 0.1177234648
H  H110  1  0.19680000  0.57250000  0.77890000  1.0 0.1177234648
H  H111  1  0.25210000  0.77620000  0.90470000  1.0 0.2965813203
H  H112  1  0.22460000  0.59660000  0.93970000  1.0 0.1093151341
H  H113  1  0.06510000  0.63740000  0.02620000  1.0 0.1003324686
H  H114  1  0.07200000  0.76160000  0.01220000  1.0 0.1177234648
H  H115  1  0.15400000  0.80350000  0.95530000  1.0 0.1177234648
H  H116  1  0.35290000  0.74210000  0.82330000  1.0 0.2965813203
H  H117  1  0.40800000  0.76830000  0.93850000  1.0 0.1093151341
H  H118  1  0.53630000  0.93550000  0.91260000  1.0 0.1003324686
H  H119  1  0.50930000  0.93050000  0.83470000  1.0 0.1093151341
H  H120  1  0.42390000  0.84520000  0.80830000  1.0 0.1177234648
H  H121  1  0.14640000  0.72010000  0.34360000  1.0 0.2965813203
H  H122  1  0.09450000  0.90140000  0.32690000  1.0 0.1093151341
H  H123  1  0.96610000  0.86340000  0.22070000  1.0 0.0886717484
H  H124  1  0.98780000  0.74020000  0.22450000  1.0 0.1177234648
H  H125  1  0.07250000  0.69680000  0.27890000  1.0 0.1177234648
H  H126  1  0.27620000  0.75210000  0.40470000  1.0 0.2965813203
H  H127  1  0.09660000  0.72460000  0.43970000  1.0 0.1093151341
H  H128  1  0.13740000  0.56510000  0.52620000  1.0 0.1003324686
H  H129  1  0.26160000  0.57200000  0.51220000  1.0 0.1177234648
H  H130  1  0.30350000  0.65400000  0.45530000  1.0 0.1177234648
H  H131  1  0.24210000  0.85290000  0.32330000  1.0 0.2965813203
H  H132  1  0.26830000  0.90800000  0.43850000  1.0 0.1093151341
H  H133  1  0.43550000  0.03630000  0.41260000  1.0 0.1003324686
H  H134  1  0.43050000  0.00930000  0.33470000  1.0 0.1093151341
H  H135  1  0.34520000  0.92390000  0.30830000  1.0 0.1177234648
H  H136  1  0.85360000  0.27990000  0.34360000  1.0 0.2965813203
H  H137  1  0.90550000  0.09860000  0.32690000  1.0 0.1093151341
H  H138  1  0.03390000  0.13660000  0.22070000  1.0 0.0886717484
H  H139  1  0.01220000  0.25980000  0.22450000  1.0 0.1177234648
H  H140  1  0.92750000  0.30320000  0.27890000  1.0 0.1177234648
H  H141  1  0.72380000  0.24790000  0.40470000  1.0 0.2965813203
H  H142  1  0.90340000  0.27540000  0.43970000  1.0 0.1093151341
H  H143  1  0.86260000  0.43490000  0.52620000  1.0 0.1003324686
H  H144  1  0.73840000  0.42800000  0.51220000  1.0 0.1177234648
H  H145  1  0.69650000  0.34600000  0.45530000  1.0 0.1177234648
H  H146  1  0.75790000  0.14710000  0.32330000  1.0 0.2965813203
H  H147  1  0.73170000  0.09200000  0.43850000  1.0 0.1093151341
H  H148  1  0.56450000  0.96370000  0.41260000  1.0 0.1003324686
H  H149  1  0.56950000  0.99070000  0.33470000  1.0 0.1093151341
H  H150  1  0.65480000  0.07610000  0.30830000  1.0 0.1177234648
H  H151  1  0.27990000  0.14640000  0.34360000  1.0 0.2965813203
H  H152  1  0.09860000  0.09450000  0.32690000  1.0 0.1093151341
H  H153  1  0.13660000  0.96610000  0.22070000  1.0 0.0886717484
H  H154  1  0.25980000  0.98780000  0.22450000  1.0 0.1177234648
H  H155  1  0.30320000  0.07250000  0.27890000  1.0 0.1177234648
H  H156  1  0.24790000  0.27620000  0.40470000  1.0 0.2965813203
H  H157  1  0.27540000  0.09660000  0.43970000  1.0 0.1093151341
H  H158  1  0.43490000  0.13740000  0.52620000  1.0 0.1003324686
H  H159  1  0.42800000  0.26160000  0.51220000  1.0 0.1177234648
H  H160  1  0.34600000  0.30350000  0.45530000  1.0 0.1177234648
H  H161  1  0.14710000  0.24210000  0.32330000  1.0 0.2965813203
H  H162  1  0.09200000  0.26830000  0.43850000  1.0 0.1093151341
H  H163  1  0.96370000  0.43550000  0.41260000  1.0 0.1003324686
H  H164  1  0.99070000  0.43050000  0.33470000  1.0 0.1093151341
H  H165  1  0.07610000  0.34520000  0.30830000  1.0 0.1177234648
H  H166  1  0.72010000  0.85360000  0.34360000  1.0 0.2965813203
H  H167  1  0.90140000  0.90550000  0.32690000  1.0 0.1093151341
H  H168  1  0.86340000  0.03390000  0.22070000  1.0 0.0886717484
H  H169  1  0.74020000  0.01220000  0.22450000  1.0 0.1177234648
H  H170  1  0.69680000  0.92750000  0.27890000  1.0 0.1177234648
H  H171  1  0.75210000  0.72380000  0.40470000  1.0 0.2965813203
H  H172  1  0.72460000  0.90340000  0.43970000  1.0 0.1093151341
H  H173  1  0.56510000  0.86260000  0.52620000  1.0 0.1003324686
H  H174  1  0.57200000  0.73840000  0.51220000  1.0 0.1177234648
H  H175  1  0.65400000  0.69650000  0.45530000  1.0 0.1177234648
H  H176  1  0.85290000  0.75790000  0.32330000  1.0 0.2965813203
H  H177  1  0.90800000  0.73170000  0.43850000  1.0 0.1093151341
H  H178  1  0.03630000  0.56450000  0.41260000  1.0 0.1003324686
H  H179  1  0.00930000  0.56950000  0.33470000  1.0 0.1093151341
H  H180  1  0.92390000  0.65480000  0.30830000  1.0 0.1177234648
H  H181  1  0.85360000  0.72010000  0.65640000  1.0 0.2965813203
H  H182  1  0.90550000  0.90140000  0.67310000  1.0 0.1093151341
H  H183  1  0.03390000  0.86340000  0.77930000  1.0 0.0886717484
H  H184  1  0.01220000  0.74020000  0.77550000  1.0 0.1177234648
H  H185  1  0.92750000  0.69680000  0.72110000  1.0 0.1177234648
H  H186  1  0.72380000  0.75210000  0.59530000  1.0 0.2965813203
H  H187  1  0.90340000  0.72460000  0.56030000  1.0 0.1093151341
H  H188  1  0.86260000  0.56510000  0.47380000  1.0 0.1003324686
H  H189  1  0.73840000  0.57200000  0.48780000  1.0 0.1177234648
H  H190  1  0.69650000  0.65400000  0.54470000  1.0 0.1177234648
H  H191  1  0.75790000  0.85290000  0.67670000  1.0 0.2965813203
H  H192  1  0.73170000  0.90800000  0.56150000  1.0 0.1093151341
H  H193  1  0.56450000  0.03630000  0.58740000  1.0 0.1003324686
H  H194  1  0.56950000  0.00930000  0.66530000  1.0 0.1093151341
H  H195  1  0.65480000  0.92390000  0.69170000  1.0 0.1177234648
H  H196  1  0.14640000  0.27990000  0.65640000  1.0 0.2965813203
H  H197  1  0.09450000  0.09860000  0.67310000  1.0 0.1093151341
H  H198  1  0.96610000  0.13660000  0.77930000  1.0 0.0886717484
H  H199  1  0.98780000  0.25980000  0.77550000  1.0 0.1177234648
H  H200  1  0.07250000  0.30320000  0.72110000  1.0 0.1177234648
H  H201  1  0.27620000  0.24790000  0.59530000  1.0 0.2965813203
H  H202  1  0.09660000  0.27540000  0.56030000  1.0 0.1093151341
H  H203  1  0.13740000  0.43490000  0.47380000  1.0 0.1003324686
H  H204  1  0.26160000  0.42800000  0.48780000  1.0 0.1177234648
H  H205  1  0.30350000  0.34600000  0.54470000  1.0 0.1177234648
H  H206  1  0.24210000  0.14710000  0.67670000  1.0 0.2965813203
H  H207  1  0.26830000  0.09200000  0.56150000  1.0 0.1093151341
H  H208  1  0.43550000  0.96370000  0.58740000  1.0 0.1003324686
H  H209  1  0.43050000  0.99070000  0.66530000  1.0 0.1093151341
H  H210  1  0.34520000  0.07610000  0.69170000  1.0 0.1177234648
H  H211  1  0.72010000  0.14640000  0.65640000  1.0 0.2965813203
H  H212  1  0.90140000  0.09450000  0.67310000  1.0 0.1093151341
H  H213  1  0.86340000  0.96610000  0.77930000  1.0 0.0886717484
H  H214  1  0.74020000  0.98780000  0.77550000  1.0 0.1177234648
H  H215  1  0.69680000  0.07250000  0.72110000  1.0 0.1177234648
H  H216  1  0.75210000  0.27620000  0.59530000  1.0 0.2965813203
H  H217  1  0.72460000  0.09660000  0.56030000  1.0 0.1093151341
H  H218  1  0.56510000  0.13740000  0.47380000  1.0 0.1003324686
H  H219  1  0.57200000  0.26160000  0.48780000  1.0 0.1177234648
H  H220  1  0.65400000  0.30350000  0.54470000  1.0 0.1177234648
H  H221  1  0.85290000  0.24210000  0.67670000  1.0 0.2965813203
H  H222  1  0.90800000  0.26830000  0.56150000  1.0 0.1093151341
H  H223  1  0.03630000  0.43550000  0.58740000  1.0 0.1003324686
H  H224  1  0.00930000  0.43050000  0.66530000  1.0 0.1093151341
H  H225  1  0.92390000  0.34520000  0.69170000  1.0 0.1177234648
H  H226  1  0.27990000  0.85360000  0.65640000  1.0 0.2965813203
H  H227  1  0.09860000  0.90550000  0.67310000  1.0 0.1093151341
H  H228  1  0.13660000  0.03390000  0.77930000  1.0 0.0886717484
H  H229  1  0.25980000  0.01220000  0.77550000  1.0 0.1177234648
H  H230  1  0.30320000  0.92750000  0.72110000  1.0 0.1177234648
H  H231  1  0.24790000  0.72380000  0.59530000  1.0 0.2965813203
H  H232  1  0.27540000  0.90340000  0.56030000  1.0 0.1093151341
H  H233  1  0.43490000  0.86260000  0.47380000  1.0 0.1003324686
H  H234  1  0.42800000  0.73840000  0.48780000  1.0 0.1177234648
H  H235  1  0.34600000  0.69650000  0.54470000  1.0 0.1177234648
H  H236  1  0.14710000  0.75790000  0.67670000  1.0 0.2965813203
H  H237  1  0.09200000  0.73170000  0.56150000  1.0 0.1093151341
H  H238  1  0.96370000  0.56450000  0.58740000  1.0 0.1003324686
H  H239  1  0.99070000  0.56950000  0.66530000  1.0 0.1093151341
H  H240  1  0.07610000  0.65480000  0.69170000  1.0 0.1177234648
C  C1  1  0.40980000  0.70530000  0.19038000  1.0 0.1926231755
C  C2  1  0.42740000  0.63190000  0.19390000  1.0 -0.0722407196
C  C3  1  0.50260000  0.65440000  0.25580000  1.0 -0.001598421
C  C4  1  0.48900000  0.72760000  0.25460000  1.0 -0.1410582975
C  C5  1  0.44010000  0.75310000  0.22190000  1.0 -0.1820623898
C  C6  1  0.29540000  0.80000000  0.05716000  1.0 0.1985242244
C  C7  1  0.36920000  0.80650000  0.04576000  1.0 -0.0722407196
C  C8  1  0.34510000  0.89960000  0.99505000  1.0 0.0255501962
C  C9  1  0.27130000  0.89700000  0.00370000  1.0 -0.1477258954
C  C10  1  0.24650000  0.84730000  0.03650000  1.0 -0.164800998
C  C11  1  0.20370000  0.59120000  0.12928000  1.0 0.1926231755
C  C12  1  0.19860000  0.57160000  0.08306000  1.0 -0.0722407196
C  C13  1  0.10070000  0.49640000  0.09823000  1.0 0.0255501962
C  C14  1  0.10270000  0.51280000  0.14445000  1.0 -0.1410582975
C  C15  1  0.15380000  0.56220000  0.16019000  1.0 -0.16975021
C  C16  1  0.59020000  0.29470000  0.19038000  1.0 0.1926231755
C  C17  1  0.57260000  0.36810000  0.19390000  1.0 -0.0722407196
C  C18  1  0.49740000  0.34560000  0.25580000  1.0 -0.001598421
C  C19  1  0.51100000  0.27240000  0.25460000  1.0 -0.1410582975
C  C20  1  0.55990000  0.24690000  0.22190000  1.0 -0.1820623898
C  C21  1  0.70460000  0.20000000  0.05716000  1.0 0.1985242244
C  C22  1  0.63080000  0.19350000  0.04576000  1.0 -0.0722407196
C  C23  1  0.65490000  0.10040000  0.99505000  1.0 0.0255501962
C  C24  1  0.72870000  0.10300000  0.00370000  1.0 -0.1477258954
C  C25  1  0.75350000  0.15270000  0.03650000  1.0 -0.164800998
C  C26  1  0.79630000  0.40880000  0.12928000  1.0 0.1926231755
C  C27  1  0.80140000  0.42840000  0.08306000  1.0 -0.0722407196
C  C28  1  0.89930000  0.50360000  0.09823000  1.0 0.0255501962
C  C29  1  0.89730000  0.48720000  0.14445000  1.0 -0.1410582975
C  C30  1  0.84620000  0.43780000  0.16019000  1.0 -0.16975021
C  C31  1  0.29470000  0.40980000  0.19038000  1.0 0.1926231755
C  C32  1  0.36810000  0.42740000  0.19390000  1.0 -0.0722407196
C  C33  1  0.34560000  0.50260000  0.25580000  1.0 -0.001598421
C  C34  1  0.27240000  0.48900000  0.25460000  1.0 -0.1410582975
C  C35  1  0.24690000  0.44010000  0.22190000  1.0 -0.1820623898
C  C36  1  0.20000000  0.29540000  0.05716000  1.0 0.1985242244
C  C37  1  0.19350000  0.36920000  0.04576000  1.0 -0.0722407196
C  C38  1  0.10040000  0.34510000  0.99505000  1.0 0.0255501962
C  C39  1  0.10300000  0.27130000  0.00370000  1.0 -0.1477258954
C  C40  1  0.15270000  0.24650000  0.03650000  1.0 -0.164800998
C  C41  1  0.40880000  0.20370000  0.12928000  1.0 0.1926231755
C  C42  1  0.42840000  0.19860000  0.08306000  1.0 -0.0722407196
C  C43  1  0.50360000  0.10070000  0.09823000  1.0 0.0255501962
C  C44  1  0.48720000  0.10270000  0.14445000  1.0 -0.1410582975
C  C45  1  0.43780000  0.15380000  0.16019000  1.0 -0.16975021
C  C46  1  0.70530000  0.59020000  0.19038000  1.0 0.1926231755
C  C47  1  0.63190000  0.57260000  0.19390000  1.0 -0.0722407196
C  C48  1  0.65440000  0.49740000  0.25580000  1.0 -0.001598421
C  C49  1  0.72760000  0.51100000  0.25460000  1.0 -0.1410582975
C  C50  1  0.75310000  0.55990000  0.22190000  1.0 -0.1820623898
C  C51  1  0.80000000  0.70460000  0.05716000  1.0 0.1985242244
C  C52  1  0.80650000  0.63080000  0.04576000  1.0 -0.0722407196
C  C53  1  0.89960000  0.65490000  0.99505000  1.0 0.0255501962
C  C54  1  0.89700000  0.72870000  0.00370000  1.0 -0.1477258954
C  C55  1  0.84730000  0.75350000  0.03650000  1.0 -0.164800998
C  C56  1  0.59120000  0.79630000  0.12928000  1.0 0.1926231755
C  C57  1  0.57160000  0.80140000  0.08306000  1.0 -0.0722407196
C  C58  1  0.49640000  0.89930000  0.09823000  1.0 0.0255501962
C  C59  1  0.51280000  0.89730000  0.14445000  1.0 -0.1410582975
C  C60  1  0.56220000  0.84620000  0.16019000  1.0 -0.16975021
C  C61  1  0.59020000  0.70530000  0.80962000  1.0 0.1926231755
C  C62  1  0.57260000  0.63190000  0.80610000  1.0 -0.0722407196
C  C63  1  0.49740000  0.65440000  0.74420000  1.0 -0.001598421
C  C64  1  0.51100000  0.72760000  0.74540000  1.0 -0.1410582975
C  C65  1  0.55990000  0.75310000  0.77810000  1.0 -0.1820623898
C  C66  1  0.70460000  0.80000000  0.94284000  1.0 0.1985242244
C  C67  1  0.63080000  0.80650000  0.95424000  1.0 -0.0722407196
C  C68  1  0.65490000  0.89960000  0.00495000  1.0 0.0255501962
C  C69  1  0.72870000  0.89700000  0.99630000  1.0 -0.1477258954
C  C70  1  0.75350000  0.84730000  0.96350000  1.0 -0.164800998
C  C71  1  0.79630000  0.59120000  0.87072000  1.0 0.1926231755
C  C72  1  0.80140000  0.57160000  0.91694000  1.0 -0.0722407196
C  C73  1  0.89930000  0.49640000  0.90177000  1.0 0.0255501962
C  C74  1  0.89730000  0.51280000  0.85555000  1.0 -0.1410582975
C  C75  1  0.84620000  0.56220000  0.83981000  1.0 -0.16975021
C  C76  1  0.40980000  0.29470000  0.80962000  1.0 0.1926231755
C  C77  1  0.42740000  0.36810000  0.80610000  1.0 -0.0722407196
C  C78  1  0.50260000  0.34560000  0.74420000  1.0 -0.001598421
C  C79  1  0.48900000  0.27240000  0.74540000  1.0 -0.1410582975
C  C80  1  0.44010000  0.24690000  0.77810000  1.0 -0.1820623898
C  C81  1  0.29540000  0.20000000  0.94284000  1.0 0.1985242244
C  C82  1  0.36920000  0.19350000  0.95424000  1.0 -0.0722407196
C  C83  1  0.34510000  0.10040000  0.00495000  1.0 0.0255501962
C  C84  1  0.27130000  0.10300000  0.99630000  1.0 -0.1477258954
C  C85  1  0.24650000  0.15270000  0.96350000  1.0 -0.164800998
C  C86  1  0.20370000  0.40880000  0.87072000  1.0 0.1926231755
C  C87  1  0.19860000  0.42840000  0.91694000  1.0 -0.0722407196
C  C88  1  0.10070000  0.50360000  0.90177000  1.0 0.0255501962
C  C89  1  0.10270000  0.48720000  0.85555000  1.0 -0.1477258954
C  C90  1  0.15380000  0.43780000  0.83981000  1.0 -0.16975021
C  C91  1  0.70530000  0.40980000  0.80962000  1.0 0.1926231755
C  C92  1  0.63190000  0.42740000  0.80610000  1.0 -0.0722407196
C  C93  1  0.65440000  0.50260000  0.74420000  1.0 -0.001598421
C  C94  1  0.72760000  0.48900000  0.74540000  1.0 -0.1410582975
C  C95  1  0.75310000  0.44010000  0.77810000  1.0 -0.1820623898
C  C96  1  0.80000000  0.29540000  0.94284000  1.0 0.1985242244
C  C97  1  0.80650000  0.36920000  0.95424000  1.0 -0.0722407196
C  C98  1  0.89960000  0.34510000  0.00495000  1.0 0.0255501962
C  C99  1  0.89700000  0.27130000  0.99630000  1.0 -0.1477258954
C  C100  1  0.84730000  0.24650000  0.96350000  1.0 -0.164800998
C  C101  1  0.59120000  0.20370000  0.87072000  1.0 0.1926231755
C  C102  1  0.57160000  0.19860000  0.91694000  1.0 -0.0722407196
C  C103  1  0.49640000  0.10070000  0.90177000  1.0 0.0255501962
C  C104  1  0.51280000  0.10270000  0.85555000  1.0 -0.1410582975
C  C105  1  0.56220000  0.15380000  0.83981000  1.0 -0.16975021
C  C106  1  0.29470000  0.59020000  0.80962000  1.0 0.1926231755
C  C107  1  0.36810000  0.57260000  0.80610000  1.0 -0.0722407196
C  C108  1  0.34560000  0.49740000  0.74420000  1.0 -0.001598421
C  C109  1  0.27240000  0.51100000  0.74540000  1.0 -0.1410582975
C  C110  1  0.24690000  0.55990000  0.77810000  1.0 -0.1820623898
C  C111  1  0.20000000  0.70460000  0.94284000  1.0 0.1985242244
C  C112  1  0.19350000  0.63080000  0.95424000  1.0 -0.0722407196
C  C113  1  0.10040000  0.65490000  0.00495000  1.0 0.0255501962
C  C114  1  0.10300000  0.72870000  0.99630000  1.0 -0.1477258954
C  C115  1  0.15270000  0.75350000  0.96350000  1.0 -0.164800998
C  C116  1  0.40880000  0.79630000  0.87072000  1.0 0.1926231755
C  C117  1  0.42840000  0.80140000  0.91694000  1.0 -0.0722407196
C  C118  1  0.50360000  0.89930000  0.90177000  1.0 0.0255501962
C  C119  1  0.48720000  0.89730000  0.85555000  1.0 -0.1477258954
C  C120  1  0.43780000  0.84620000  0.83981000  1.0 -0.16975021
C  C121  1  0.09020000  0.79470000  0.30962000  1.0 0.1926231755
C  C122  1  0.07260000  0.86810000  0.30610000  1.0 -0.0722407196
C  C123  1  0.99740000  0.84560000  0.24420000  1.0 -0.001598421
C  C124  1  0.01100000  0.77240000  0.24540000  1.0 -0.1410582975
C  C125  1  0.05990000  0.74690000  0.27810000  1.0 -0.1820623898
C  C126  1  0.20460000  0.70000000  0.44284000  1.0 0.1985242244
C  C127  1  0.13080000  0.69350000  0.45424000  1.0 -0.0722407196
C  C128  1  0.15490000  0.60040000  0.50495000  1.0 0.0255501962
C  C129  1  0.22870000  0.60300000  0.49630000  1.0 -0.1477258954
C  C130  1  0.25350000  0.65270000  0.46350000  1.0 -0.164800998
C  C131  1  0.29630000  0.90880000  0.37072000  1.0 0.1926231755
C  C132  1  0.30140000  0.92840000  0.41694000  1.0 -0.0722407196
C  C133  1  0.39930000  0.00360000  0.40177000  1.0 0.0255501962
C  C134  1  0.39730000  0.98720000  0.35555000  1.0 -0.1477258954
C  C135  1  0.34620000  0.93780000  0.33981000  1.0 -0.16975021
C  C136  1  0.90980000  0.20530000  0.30962000  1.0 0.1926231755
C  C137  1  0.92740000  0.13190000  0.30610000  1.0 -0.0722407196
C  C138  1  0.00260000  0.15440000  0.24420000  1.0 -0.001598421
C  C139  1  0.98900000  0.22760000  0.24540000  1.0 -0.1410582975
C  C140  1  0.94010000  0.25310000  0.27810000  1.0 -0.1820623898
C  C141  1  0.79540000  0.30000000  0.44284000  1.0 0.1985242244
C  C142  1  0.86920000  0.30650000  0.45424000  1.0 -0.0722407196
C  C143  1  0.84510000  0.39960000  0.50495000  1.0 0.0255501962
C  C144  1  0.77130000  0.39700000  0.49630000  1.0 -0.1477258954
C  C145  1  0.74650000  0.34730000  0.46350000  1.0 -0.164800998
C  C146  1  0.70370000  0.09120000  0.37072000  1.0 0.1926231755
C  C147  1  0.69860000  0.07160000  0.41694000  1.0 -0.0722407196
C  C148  1  0.60070000  0.99640000  0.40177000  1.0 0.0255501962
C  C149  1  0.60270000  0.01280000  0.35555000  1.0 -0.1410582975
C  C150  1  0.65380000  0.06220000  0.33981000  1.0 -0.16975021
C  C151  1  0.20530000  0.09020000  0.30962000  1.0 0.1926231755
C  C152  1  0.13190000  0.07260000  0.30610000  1.0 -0.0722407196
C  C153  1  0.15440000  0.99740000  0.24420000  1.0 -0.001598421
C  C154  1  0.22760000  0.01100000  0.24540000  1.0 -0.1410582975
C  C155  1  0.25310000  0.05990000  0.27810000  1.0 -0.1820623898
C  C156  1  0.30000000  0.20460000  0.44284000  1.0 0.1985242244
C  C157  1  0.30650000  0.13080000  0.45424000  1.0 -0.0722407196
C  C158  1  0.39960000  0.15490000  0.50495000  1.0 0.0255501962
C  C159  1  0.39700000  0.22870000  0.49630000  1.0 -0.1477258954
C  C160  1  0.34730000  0.25350000  0.46350000  1.0 -0.164800998
C  C161  1  0.09120000  0.29630000  0.37072000  1.0 0.1926231755
C  C162  1  0.07160000  0.30140000  0.41694000  1.0 -0.0722407196
C  C163  1  0.99640000  0.39930000  0.40177000  1.0 0.0255501962
C  C164  1  0.01280000  0.39730000  0.35555000  1.0 -0.1410582975
C  C165  1  0.06220000  0.34620000  0.33981000  1.0 -0.16975021
C  C166  1  0.79470000  0.90980000  0.30962000  1.0 0.1926231755
C  C167  1  0.86810000  0.92740000  0.30610000  1.0 -0.0722407196
C  C168  1  0.84560000  0.00260000  0.24420000  1.0 -0.001598421
C  C169  1  0.77240000  0.98900000  0.24540000  1.0 -0.1410582975
C  C170  1  0.74690000  0.94010000  0.27810000  1.0 -0.1820623898
C  C171  1  0.70000000  0.79540000  0.44284000  1.0 0.1985242244
C  C172  1  0.69350000  0.86920000  0.45424000  1.0 -0.0722407196
C  C173  1  0.60040000  0.84510000  0.50495000  1.0 0.0255501962
C  C174  1  0.60300000  0.77130000  0.49630000  1.0 -0.1477258954
C  C175  1  0.65270000  0.74650000  0.46350000  1.0 -0.164800998
C  C176  1  0.90880000  0.70370000  0.37072000  1.0 0.1926231755
C  C177  1  0.92840000  0.69860000  0.41694000  1.0 -0.0722407196
C  C178  1  0.00360000  0.60070000  0.40177000  1.0 0.0255501962
C  C179  1  0.98720000  0.60270000  0.35555000  1.0 -0.1410582975
C  C180  1  0.93780000  0.65380000  0.33981000  1.0 -0.16975021
C  C181  1  0.90980000  0.79470000  0.69038000  1.0 0.1926231755
C  C182  1  0.92740000  0.86810000  0.69390000  1.0 -0.0722407196
C  C183  1  0.00260000  0.84560000  0.75580000  1.0 -0.001598421
C  C184  1  0.98900000  0.77240000  0.75460000  1.0 -0.1410582975
C  C185  1  0.94010000  0.74690000  0.72190000  1.0 -0.1820623898
C  C186  1  0.79540000  0.70000000  0.55716000  1.0 0.1985242244
C  C187  1  0.86920000  0.69350000  0.54576000  1.0 -0.0722407196
C  C188  1  0.84510000  0.60040000  0.49505000  1.0 0.0255501962
C  C189  1  0.77130000  0.60300000  0.50370000  1.0 -0.1477258954
C  C190  1  0.74650000  0.65270000  0.53650000  1.0 -0.164800998
C  C191  1  0.70370000  0.90880000  0.62928000  1.0 0.1926231755
C  C192  1  0.69860000  0.92840000  0.58306000  1.0 -0.0722407196
C  C193  1  0.60070000  0.00360000  0.59823000  1.0 0.0255501962
C  C194  1  0.60270000  0.98720000  0.64445000  1.0 -0.1410582975
C  C195  1  0.65380000  0.93780000  0.66019000  1.0 -0.16975021
C  C196  1  0.09020000  0.20530000  0.69038000  1.0 0.1926231755
C  C197  1  0.07260000  0.13190000  0.69390000  1.0 -0.0722407196
C  C198  1  0.99740000  0.15440000  0.75580000  1.0 -0.001598421
C  C199  1  0.01100000  0.22760000  0.75460000  1.0 -0.1410582975
C  C200  1  0.05990000  0.25310000  0.72190000  1.0 -0.1820623898
C  C201  1  0.20460000  0.30000000  0.55716000  1.0 0.1985242244
C  C202  1  0.13080000  0.30650000  0.54576000  1.0 -0.0722407196
C  C203  1  0.15490000  0.39960000  0.49505000  1.0 0.0255501962
C  C204  1  0.22870000  0.39700000  0.50370000  1.0 -0.1477258954
C  C205  1  0.25350000  0.34730000  0.53650000  1.0 -0.164800998
C  C206  1  0.29630000  0.09120000  0.62928000  1.0 0.1926231755
C  C207  1  0.30140000  0.07160000  0.58306000  1.0 -0.0722407196
C  C208  1  0.39930000  0.99640000  0.59823000  1.0 0.0255501962
C  C209  1  0.39730000  0.01280000  0.64445000  1.0 -0.1410582975
C  C210  1  0.34620000  0.06220000  0.66019000  1.0 -0.16975021
C  C211  1  0.79470000  0.09020000  0.69038000  1.0 0.1926231755
C  C212  1  0.86810000  0.07260000  0.69390000  1.0 -0.0722407196
C  C213  1  0.84560000  0.99740000  0.75580000  1.0 -0.001598421
C  C214  1  0.77240000  0.01100000  0.75460000  1.0 -0.1410582975
C  C215  1  0.74690000  0.05990000  0.72190000  1.0 -0.1820623898
C  C216  1  0.70000000  0.20460000  0.55716000  1.0 0.1985242244
C  C217  1  0.69350000  0.13080000  0.54576000  1.0 -0.0722407196
C  C218  1  0.60040000  0.15490000  0.49505000  1.0 0.0255501962
C  C219  1  0.60300000  0.22870000  0.50370000  1.0 -0.1477258954
C  C220  1  0.65270000  0.25350000  0.53650000  1.0 -0.164800998
C  C221  1  0.90880000  0.29630000  0.62928000  1.0 0.1926231755
C  C222  1  0.92840000  0.30140000  0.58306000  1.0 -0.0722407196
C  C223  1  0.00360000  0.39930000  0.59823000  1.0 0.0255501962
C  C224  1  0.98720000  0.39730000  0.64445000  1.0 -0.1410582975
C  C225  1  0.93780000  0.34620000  0.66019000  1.0 -0.16975021
C  C226  1  0.20530000  0.90980000  0.69038000  1.0 0.1926231755
C  C227  1  0.13190000  0.92740000  0.69390000  1.0 -0.0722407196
C  C228  1  0.15440000  0.00260000  0.75580000  1.0 -0.001598421
C  C229  1  0.22760000  0.98900000  0.75460000  1.0 -0.1410582975
C  C230  1  0.25310000  0.94010000  0.72190000  1.0 -0.1820623898
C  C231  1  0.30000000  0.79540000  0.55716000  1.0 0.1985242244
C  C232  1  0.30650000  0.86920000  0.54576000  1.0 -0.0722407196
C  C233  1  0.39960000  0.84510000  0.49505000  1.0 0.0255501962
C  C234  1  0.39700000  0.77130000  0.50370000  1.0 -0.1477258954
C  C235  1  0.34730000  0.74650000  0.53650000  1.0 -0.164800998
C  C236  1  0.09120000  0.70370000  0.62928000  1.0 0.1926231755
C  C237  1  0.07160000  0.69860000  0.58306000  1.0 -0.0722407196
C  C238  1  0.99640000  0.60070000  0.59823000  1.0 0.0255501962
C  C239  1  0.01280000  0.60270000  0.64445000  1.0 -0.1410582975
C  C240  1  0.06220000  0.65380000  0.66019000  1.0 -0.16975021
S  S1  1  0.38030000  0.62473000  0.07762000  1.0 -0.5473260396
S  S2  1  0.61970000  0.37527000  0.07762000  1.0 -0.5473260396
S  S3  1  0.37527000  0.38030000  0.07762000  1.0 -0.5473260396
S  S4  1  0.62473000  0.61970000  0.07762000  1.0 -0.5473260396
S  S5  1  0.61970000  0.62473000  0.92238000  1.0 -0.5473260396
S  S6  1  0.38030000  0.37527000  0.92238000  1.0 -0.5473260396
S  S7  1  0.62473000  0.38030000  0.92238000  1.0 -0.5473260396
S  S8  1  0.37527000  0.61970000  0.92238000  1.0 -0.5473260396
S  S9  1  0.11970000  0.87527000  0.42238000  1.0 -0.5473260396
S  S10  1  0.88030000  0.12473000  0.42238000  1.0 -0.5473260396
S  S11  1  0.12473000  0.11970000  0.42238000  1.0 -0.5473260396
S  S12  1  0.87527000  0.88030000  0.42238000  1.0 -0.5473260396
S  S13  1  0.88030000  0.87527000  0.57762000  1.0 -0.5473260396
S  S14  1  0.11970000  0.12473000  0.57762000  1.0 -0.5473260396
S  S15  1  0.87527000  0.11970000  0.57762000  1.0 -0.5473260396
S  S16  1  0.12473000  0.88030000  0.57762000  1.0 -0.5473260396
N  N1  1  0.36160000  0.73270000  0.15626000  1.0 -0.5794745797
N  N2  1  0.47460000  0.60620000  0.22584000  1.0 -0.224051796
N  N3  1  0.27070000  0.74730000  0.08914000  1.0 -0.5728560203
N  N4  1  0.39290000  0.85540000  0.01489000  1.0 -0.1820623898
N  N5  1  0.25750000  0.64000000  0.14674000  1.0 -0.5794745797
N  N6  1  0.14750000  0.52440000  0.06814000  1.0 -0.1820623898
N  N7  1  0.63840000  0.26730000  0.15626000  1.0 -0.5794745797
N  N8  1  0.52540000  0.39380000  0.22584000  1.0 -0.224051796
N  N9  1  0.72930000  0.25270000  0.08914000  1.0 -0.5728560203
N  N10  1  0.60710000  0.14460000  0.01489000  1.0 -0.1820623898
N  N11  1  0.74250000  0.36000000  0.14674000  1.0 -0.5794745797
N  N12  1  0.85250000  0.47560000  0.06814000  1.0 -0.1820623898
N  N13  1  0.26730000  0.36160000  0.15626000  1.0 -0.5794745797
N  N14  1  0.39380000  0.47460000  0.22584000  1.0 -0.224051796
N  N15  1  0.25270000  0.27070000  0.08914000  1.0 -0.5728560203
N  N16  1  0.14460000  0.39290000  0.01489000  1.0 -0.1820623898
N  N17  1  0.36000000  0.25750000  0.14674000  1.0 -0.5794745797
N  N18  1  0.47560000  0.14750000  0.06814000  1.0 -0.1820623898
N  N19  1  0.73270000  0.63840000  0.15626000  1.0 -0.5794745797
N  N20  1  0.60620000  0.52540000  0.22584000  1.0 -0.224051796
N  N21  1  0.74730000  0.72930000  0.08914000  1.0 -0.5728560203
N  N22  1  0.85540000  0.60710000  0.01489000  1.0 -0.1820623898
N  N23  1  0.64000000  0.74250000  0.14674000  1.0 -0.5794745797
N  N24  1  0.52440000  0.85250000  0.06814000  1.0 -0.1820623898
N  N25  1  0.63840000  0.73270000  0.84374000  1.0 -0.5794745797
N  N26  1  0.52540000  0.60620000  0.77416000  1.0 -0.224051796
N  N27  1  0.72930000  0.74730000  0.91086000  1.0 -0.5728560203
N  N28  1  0.60710000  0.85540000  0.98511000  1.0 -0.1820623898
N  N29  1  0.74250000  0.64000000  0.85326000  1.0 -0.5794745797
N  N30  1  0.85250000  0.52440000  0.93186000  1.0 -0.1820623898
N  N31  1  0.36160000  0.26730000  0.84374000  1.0 -0.5794745797
N  N32  1  0.47460000  0.39380000  0.77416000  1.0 -0.224051796
N  N33  1  0.27070000  0.25270000  0.91086000  1.0 -0.5728560203
N  N34  1  0.39290000  0.14460000  0.98511000  1.0 -0.1820623898
N  N35  1  0.25750000  0.36000000  0.85326000  1.0 -0.5794745797
N  N36  1  0.14750000  0.47560000  0.93186000  1.0 -0.1820623898
N  N37  1  0.73270000  0.36160000  0.84374000  1.0 -0.5794745797
N  N38  1  0.60620000  0.47460000  0.77416000  1.0 -0.224051796
N  N39  1  0.74730000  0.27070000  0.91086000  1.0 -0.5728560203
N  N40  1  0.85540000  0.39290000  0.98511000  1.0 -0.1820623898
N  N41  1  0.64000000  0.25750000  0.85326000  1.0 -0.5794745797
N  N42  1  0.52440000  0.14750000  0.93186000  1.0 -0.1820623898
N  N43  1  0.26730000  0.63840000  0.84374000  1.0 -0.5794745797
N  N44  1  0.39380000  0.52540000  0.77416000  1.0 -0.224051796
N  N45  1  0.25270000  0.72930000  0.91086000  1.0 -0.5728560203
N  N46  1  0.14460000  0.60710000  0.98511000  1.0 -0.1820623898
N  N47  1  0.36000000  0.74250000  0.85326000  1.0 -0.5794745797
N  N48  1  0.47560000  0.85250000  0.93186000  1.0 -0.1820623898
N  N49  1  0.13840000  0.76730000  0.34374000  1.0 -0.5794745797
N  N50  1  0.02540000  0.89380000  0.27416000  1.0 -0.224051796
N  N51  1  0.22930000  0.75270000  0.41086000  1.0 -0.5728560203
N  N52  1  0.10710000  0.64460000  0.48511000  1.0 -0.1820623898
N  N53  1  0.24250000  0.86000000  0.35326000  1.0 -0.5794745797
N  N54  1  0.35250000  0.97560000  0.43186000  1.0 -0.1820623898
N  N55  1  0.86160000  0.23270000  0.34374000  1.0 -0.5794745797
N  N56  1  0.97460000  0.10620000  0.27416000  1.0 -0.224051796
N  N57  1  0.77070000  0.24730000  0.41086000  1.0 -0.5728560203
N  N58  1  0.89290000  0.35540000  0.48511000  1.0 -0.1820623898
N  N59  1  0.75750000  0.14000000  0.35326000  1.0 -0.5794745797
N  N60  1  0.64750000  0.02440000  0.43186000  1.0 -0.1820623898
N  N61  1  0.23270000  0.13840000  0.34374000  1.0 -0.5794745797
N  N62  1  0.10620000  0.02540000  0.27416000  1.0 -0.224051796
N  N63  1  0.24730000  0.22930000  0.41086000  1.0 -0.5728560203
N  N64  1  0.35540000  0.10710000  0.48511000  1.0 -0.1820623898
N  N65  1  0.14000000  0.24250000  0.35326000  1.0 -0.5794745797
N  N66  1  0.02440000  0.35250000  0.43186000  1.0 -0.1820623898
N  N67  1  0.76730000  0.86160000  0.34374000  1.0 -0.5794745797
N  N68  1  0.89380000  0.97460000  0.27416000  1.0 -0.224051796
N  N69  1  0.75270000  0.77070000  0.41086000  1.0 -0.5728560203
N  N70  1  0.64460000  0.89290000  0.48511000  1.0 -0.1820623898
N  N71  1  0.86000000  0.75750000  0.35326000  1.0 -0.5794745797
N  N72  1  0.97560000  0.64750000  0.43186000  1.0 -0.1820623898
N  N73  1  0.86160000  0.76730000  0.65626000  1.0 -0.5794745797
N  N74  1  0.97460000  0.89380000  0.72584000  1.0 -0.224051796
N  N75  1  0.77070000  0.75270000  0.58914000  1.0 -0.5728560203
N  N76  1  0.89290000  0.64460000  0.51489000  1.0 -0.1820623898
N  N77  1  0.75750000  0.86000000  0.64674000  1.0 -0.5794745797
N  N78  1  0.64750000  0.97560000  0.56814000  1.0 -0.1820623898
N  N79  1  0.13840000  0.23270000  0.65626000  1.0 -0.5794745797
N  N80  1  0.02540000  0.10620000  0.72584000  1.0 -0.224051796
N  N81  1  0.22930000  0.24730000  0.58914000  1.0 -0.5728560203
N  N82  1  0.10710000  0.35540000  0.51489000  1.0 -0.1820623898
N  N83  1  0.24250000  0.14000000  0.64674000  1.0 -0.5794745797
N  N84  1  0.35250000  0.02440000  0.56814000  1.0 -0.1820623898
N  N85  1  0.76730000  0.13840000  0.65626000  1.0 -0.5794745797
N  N86  1  0.89380000  0.02540000  0.72584000  1.0 -0.224051796
N  N87  1  0.75270000  0.22930000  0.58914000  1.0 -0.5728560203
N  N88  1  0.64460000  0.10710000  0.51489000  1.0 -0.1820623898
N  N89  1  0.86000000  0.24250000  0.64674000  1.0 -0.5794745797
N  N90  1  0.97560000  0.35250000  0.56814000  1.0 -0.1820623898
N  N91  1  0.23270000  0.86160000  0.65626000  1.0 -0.5794745797
N  N92  1  0.10620000  0.97460000  0.72584000  1.0 -0.224051796
N  N93  1  0.24730000  0.77070000  0.58914000  1.0 -0.5728560203
N  N94  1  0.35540000  0.89290000  0.51489000  1.0 -0.1820623898
N  N95  1  0.14000000  0.75750000  0.64674000  1.0 -0.5794745797
N  N96  1  0.02440000  0.64750000  0.56814000  1.0 -0.1820623898
Cl  Cl1  1  0.50000000  0.00000000  0.00000000  1.0 -0.6687307918
Cl  Cl2  1  0.00000000  0.50000000  0.00000000  1.0 -0.6687307918
Cl  Cl3  1  0.50000000  0.50000000  0.32430000  1.0 0.3096042312
Cl  Cl4  1  0.50000000  0.50000000  0.67570000  1.0 0.3096042312
Cl  Cl5  1  0.00000000  0.50000000  0.50000000  1.0 -0.6687307918
Cl  Cl6  1  0.50000000  0.00000000  0.50000000  1.0 -0.6687307918
Cl  Cl7  1  0.00000000  0.00000000  0.17570000  1.0 0.3096042312
Cl  Cl8  1  0.00000000  0.00000000  0.82430000  1.0 0.3096042312
O  O1  1  0.50000000  0.50000000  0.30510000  1.0 -0.1477258954
O  O2  1  0.50000000  0.50000000  0.69490000  1.0 -0.1477258954
O  O3  1  0.00000000  0.00000000  0.19490000  1.0 -0.1477258954
O  O4  1  0.00000000  0.00000000  0.80510000  1.0 -0.1477258954
