# DDEC6 charges by PACMAN v1.1 (https://github.com/mtap-research/PACMAN-charge/)
data_AGEMAD_ASR_pacman
_symmetry_space_group_name_H-M   'P 1'
_cell_length_a   18.39110000
_cell_length_b   18.39110000
_cell_length_c   29.01380000
_cell_angle_alpha   90.00000000
_cell_angle_beta   90.00000000
_cell_angle_gamma   90.00000000
_symmetry_Int_Tables_number   1
_chemical_formula_structural   Cu3P4H60C60S4N24Cl4O
_chemical_formula_sum   'Cu12 P16 H240 C240 S16 N96 Cl16 O4'
_cell_volume   9813.41182641
_cell_formula_units_Z   4
loop_
 _symmetry_equiv_pos_site_id
 _symmetry_equiv_pos_as_xyz
  1  'x, y, z'
loop_
 _atom_site_type_symbol
 _atom_site_label
 _atom_site_symmetry_multiplicity
 _atom_site_fract_x
 _atom_site_fract_y
 _atom_site_fract_z
 _atom_site_occupancy
 _atom_site_charge
Cu  Cu1  1  0.50000000  0.85971000  0.00000000  1.0 0.6179665558
Cu  Cu2  1  0.50000000  0.14029000  0.00000000  1.0 0.6179665558
Cu  Cu3  1  0.14029000  0.50000000  0.00000000  1.0 0.6179665558
Cu  Cu4  1  0.85971000  0.50000000  0.00000000  1.0 0.6179665558
Cu  Cu5  1  0.50000000  0.50000000  0.22821000  1.0 0.5045084588
Cu  Cu6  1  0.50000000  0.50000000  0.77179000  1.0 0.5054377946
Cu  Cu7  1  0.00000000  0.64029000  0.50000000  1.0 0.6179665558
Cu  Cu8  1  0.00000000  0.35971000  0.50000000  1.0 0.6179665558
Cu  Cu9  1  0.35971000  0.00000000  0.50000000  1.0 0.6179665558
Cu  Cu10  1  0.64029000  0.00000000  0.50000000  1.0 0.6179665558
Cu  Cu11  1  0.00000000  0.00000000  0.27179000  1.0 0.5054377946
Cu  Cu12  1  0.00000000  0.00000000  0.72821000  1.0 0.5054377946
P  P1  1  0.31899000  0.68486000  0.11620000  1.0 0.9616131268
P  P2  1  0.68101000  0.31514000  0.11620000  1.0 0.9616131268
P  P3  1  0.31514000  0.31899000  0.11620000  1.0 0.9616131268
P  P4  1  0.68486000  0.68101000  0.11620000  1.0 0.9616131268
P  P5  1  0.68101000  0.68486000  0.88380000  1.0 0.9616131268
P  P6  1  0.31899000  0.31514000  0.88380000  1.0 0.9616131268
P  P7  1  0.68486000  0.31899000  0.88380000  1.0 0.9616131268
P  P8  1  0.31514000  0.68101000  0.88380000  1.0 0.9616131268
P  P9  1  0.18101000  0.81514000  0.38380000  1.0 0.9616131268
P  P10  1  0.81899000  0.18486000  0.38380000  1.0 0.9616131268
P  P11  1  0.18486000  0.18101000  0.38380000  1.0 0.9616131268
P  P12  1  0.81514000  0.81899000  0.38380000  1.0 0.9616131268
P  P13  1  0.81899000  0.81514000  0.61620000  1.0 0.9616131268
P  P14  1  0.18101000  0.18486000  0.61620000  1.0 0.9616131268
P  P15  1  0.81514000  0.18101000  0.61620000  1.0 0.9616131268
P  P16  1  0.18486000  0.81899000  0.61620000  1.0 0.9616131268
H  H1  1  0.35390000  0.78030000  0.15620000  1.0 0.3008068634
H  H2  1  0.40570000  0.59900000  0.17280000  1.0 0.1181117347
H  H3  1  0.53470000  0.63700000  0.27920000  1.0 0.0896669932
H  H4  1  0.51220000  0.75980000  0.27530000  1.0 0.1181117347
H  H5  1  0.42820000  0.80280000  0.22140000  1.0 0.1181117347
H  H6  1  0.22380000  0.74790000  0.09530000  1.0 0.3008068634
H  H7  1  0.40310000  0.77570000  0.06040000  1.0 0.111413823
H  H8  1  0.36210000  0.93540000  0.97420000  1.0 0.1023835526
H  H9  1  0.23830000  0.92810000  0.98770000  1.0 0.1181117347
H  H10  1  0.19660000  0.84600000  0.04470000  1.0 0.1181117347
H  H11  1  0.25780000  0.64760000  0.17670000  1.0 0.3008068634
H  H12  1  0.23190000  0.59160000  0.06150000  1.0 0.1181117347
H  H13  1  0.06420000  0.46390000  0.08730000  1.0 0.1023835526
H  H14  1  0.06950000  0.49030000  0.16530000  1.0 0.111413823
H  H15  1  0.15410000  0.57670000  0.19170000  1.0 0.111413823
H  H16  1  0.64610000  0.21970000  0.15620000  1.0 0.3008068634
H  H17  1  0.59430000  0.40100000  0.17280000  1.0 0.1181117347
H  H18  1  0.46530000  0.36300000  0.27920000  1.0 0.0896669932
H  H19  1  0.48780000  0.24020000  0.27530000  1.0 0.1181117347
H  H20  1  0.57180000  0.19720000  0.22140000  1.0 0.1181117347
H  H21  1  0.77620000  0.25210000  0.09530000  1.0 0.3008068634
H  H22  1  0.59690000  0.22430000  0.06040000  1.0 0.111413823
H  H23  1  0.63790000  0.06460000  0.97420000  1.0 0.1023835526
H  H24  1  0.76170000  0.07190000  0.98770000  1.0 0.1181117347
H  H25  1  0.80340000  0.15400000  0.04470000  1.0 0.1181117347
H  H26  1  0.74220000  0.35240000  0.17670000  1.0 0.3008068634
H  H27  1  0.76810000  0.40840000  0.06150000  1.0 0.1181117347
H  H28  1  0.93580000  0.53610000  0.08730000  1.0 0.1023835526
H  H29  1  0.93050000  0.50970000  0.16530000  1.0 0.111413823
H  H30  1  0.84590000  0.42330000  0.19170000  1.0 0.111413823
H  H31  1  0.21970000  0.35390000  0.15620000  1.0 0.3008068634
H  H32  1  0.40100000  0.40570000  0.17280000  1.0 0.1181117347
H  H33  1  0.36300000  0.53470000  0.27920000  1.0 0.0896669932
H  H34  1  0.24020000  0.51220000  0.27530000  1.0 0.1181117347
H  H35  1  0.19720000  0.42820000  0.22140000  1.0 0.1181117347
H  H36  1  0.25210000  0.22380000  0.09530000  1.0 0.3008068634
H  H37  1  0.22430000  0.40310000  0.06040000  1.0 0.111413823
H  H38  1  0.06460000  0.36210000  0.97420000  1.0 0.1023835526
H  H39  1  0.07190000  0.23830000  0.98770000  1.0 0.1181117347
H  H40  1  0.15400000  0.19660000  0.04470000  1.0 0.1181117347
H  H41  1  0.35240000  0.25780000  0.17670000  1.0 0.3008068634
H  H42  1  0.40840000  0.23190000  0.06150000  1.0 0.1181117347
H  H43  1  0.53610000  0.06420000  0.08730000  1.0 0.1023835526
H  H44  1  0.50970000  0.06950000  0.16530000  1.0 0.111413823
H  H45  1  0.42330000  0.15410000  0.19170000  1.0 0.111413823
H  H46  1  0.78030000  0.64610000  0.15620000  1.0 0.3008068634
H  H47  1  0.59900000  0.59430000  0.17280000  1.0 0.1181117347
H  H48  1  0.63700000  0.46530000  0.27920000  1.0 0.0896669932
H  H49  1  0.75980000  0.48780000  0.27530000  1.0 0.1181117347
H  H50  1  0.80280000  0.57180000  0.22140000  1.0 0.1181117347
H  H51  1  0.74790000  0.77620000  0.09530000  1.0 0.3008068634
H  H52  1  0.77570000  0.59690000  0.06040000  1.0 0.111413823
H  H53  1  0.93540000  0.63790000  0.97420000  1.0 0.1023835526
H  H54  1  0.92810000  0.76170000  0.98770000  1.0 0.1181117347
H  H55  1  0.84600000  0.80340000  0.04470000  1.0 0.1181117347
H  H56  1  0.64760000  0.74220000  0.17670000  1.0 0.3008068634
H  H57  1  0.59160000  0.76810000  0.06150000  1.0 0.1181117347
H  H58  1  0.46390000  0.93580000  0.08730000  1.0 0.1023835526
H  H59  1  0.49030000  0.93050000  0.16530000  1.0 0.111413823
H  H60  1  0.57670000  0.84590000  0.19170000  1.0 0.111413823
H  H61  1  0.64610000  0.78030000  0.84380000  1.0 0.3008068634
H  H62  1  0.59430000  0.59900000  0.82720000  1.0 0.1181117347
H  H63  1  0.46530000  0.63700000  0.72080000  1.0 0.0896669932
H  H64  1  0.48780000  0.75980000  0.72470000  1.0 0.1181117347
H  H65  1  0.57180000  0.80280000  0.77860000  1.0 0.1181117347
H  H66  1  0.77620000  0.74790000  0.90470000  1.0 0.3008068634
H  H67  1  0.59690000  0.77570000  0.93960000  1.0 0.111413823
H  H68  1  0.63790000  0.93540000  0.02580000  1.0 0.1023835526
H  H69  1  0.76170000  0.92810000  0.01230000  1.0 0.1181117347
H  H70  1  0.80340000  0.84600000  0.95530000  1.0 0.1181117347
H  H71  1  0.74220000  0.64760000  0.82330000  1.0 0.3008068634
H  H72  1  0.76810000  0.59160000  0.93850000  1.0 0.1181117347
H  H73  1  0.93580000  0.46390000  0.91270000  1.0 0.1023835526
H  H74  1  0.93050000  0.49030000  0.83470000  1.0 0.111413823
H  H75  1  0.84590000  0.57670000  0.80830000  1.0 0.111413823
H  H76  1  0.35390000  0.21970000  0.84380000  1.0 0.3008068634
H  H77  1  0.40570000  0.40100000  0.82720000  1.0 0.1181117347
H  H78  1  0.53470000  0.36300000  0.72080000  1.0 0.0896669932
H  H79  1  0.51220000  0.24020000  0.72470000  1.0 0.1181117347
H  H80  1  0.42820000  0.19720000  0.77860000  1.0 0.1181117347
H  H81  1  0.22380000  0.25210000  0.90470000  1.0 0.3008068634
H  H82  1  0.40310000  0.22430000  0.93960000  1.0 0.111413823
H  H83  1  0.36210000  0.06460000  0.02580000  1.0 0.1023835526
H  H84  1  0.23830000  0.07190000  0.01230000  1.0 0.1181117347
H  H85  1  0.19660000  0.15400000  0.95530000  1.0 0.1181117347
H  H86  1  0.25780000  0.35240000  0.82330000  1.0 0.3008068634
H  H87  1  0.23190000  0.40840000  0.93850000  1.0 0.1181117347
H  H88  1  0.06420000  0.53610000  0.91270000  1.0 0.1023835526
H  H89  1  0.06950000  0.50970000  0.83470000  1.0 0.111413823
H  H90  1  0.15410000  0.42330000  0.80830000  1.0 0.111413823
H  H91  1  0.78030000  0.35390000  0.84380000  1.0 0.3008068634
H  H92  1  0.59900000  0.40570000  0.82720000  1.0 0.1181117347
H  H93  1  0.63700000  0.53470000  0.72080000  1.0 0.0896669932
H  H94  1  0.75980000  0.51220000  0.72470000  1.0 0.1181117347
H  H95  1  0.80280000  0.42820000  0.77860000  1.0 0.1181117347
H  H96  1  0.74790000  0.22380000  0.90470000  1.0 0.3008068634
H  H97  1  0.77570000  0.40310000  0.93960000  1.0 0.111413823
H  H98  1  0.93540000  0.36210000  0.02580000  1.0 0.1023835526
H  H99  1  0.92810000  0.23830000  0.01230000  1.0 0.1181117347
H  H100  1  0.84600000  0.19660000  0.95530000  1.0 0.1181117347
H  H101  1  0.64760000  0.25780000  0.82330000  1.0 0.3008068634
H  H102  1  0.59160000  0.23190000  0.93850000  1.0 0.1181117347
H  H103  1  0.46390000  0.06420000  0.91270000  1.0 0.1023835526
H  H104  1  0.49030000  0.06950000  0.83470000  1.0 0.111413823
H  H105  1  0.57670000  0.15410000  0.80830000  1.0 0.111413823
H  H106  1  0.21970000  0.64610000  0.84380000  1.0 0.3008068634
H  H107  1  0.40100000  0.59430000  0.82720000  1.0 0.1181117347
H  H108  1  0.36300000  0.46530000  0.72080000  1.0 0.0896669932
H  H109  1  0.24020000  0.48780000  0.72470000  1.0 0.1181117347
H  H110  1  0.19720000  0.57180000  0.77860000  1.0 0.1181117347
H  H111  1  0.25210000  0.77620000  0.90470000  1.0 0.3008068634
H  H112  1  0.22430000  0.59690000  0.93960000  1.0 0.111413823
H  H113  1  0.06460000  0.63790000  0.02580000  1.0 0.1023835526
H  H114  1  0.07190000  0.76170000  0.01230000  1.0 0.1181117347
H  H115  1  0.15400000  0.80340000  0.95530000  1.0 0.1181117347
H  H116  1  0.35240000  0.74220000  0.82330000  1.0 0.3008068634
H  H117  1  0.40840000  0.76810000  0.93850000  1.0 0.1181117347
H  H118  1  0.53610000  0.93580000  0.91270000  1.0 0.1023835526
H  H119  1  0.50970000  0.93050000  0.83470000  1.0 0.111413823
H  H120  1  0.42330000  0.84590000  0.80830000  1.0 0.111413823
H  H121  1  0.14610000  0.71970000  0.34380000  1.0 0.3008068634
H  H122  1  0.09430000  0.90100000  0.32720000  1.0 0.1181117347
H  H123  1  0.96530000  0.86300000  0.22080000  1.0 0.0896669932
H  H124  1  0.98780000  0.74020000  0.22470000  1.0 0.1181117347
H  H125  1  0.07180000  0.69720000  0.27860000  1.0 0.1181117347
H  H126  1  0.27620000  0.75210000  0.40470000  1.0 0.3008068634
H  H127  1  0.09690000  0.72430000  0.43960000  1.0 0.111413823
H  H128  1  0.13790000  0.56460000  0.52580000  1.0 0.1023835526
H  H129  1  0.26170000  0.57190000  0.51230000  1.0 0.1181117347
H  H130  1  0.30340000  0.65400000  0.45530000  1.0 0.1181117347
H  H131  1  0.24220000  0.85240000  0.32330000  1.0 0.3008068634
H  H132  1  0.26810000  0.90840000  0.43850000  1.0 0.1181117347
H  H133  1  0.43580000  0.03610000  0.41270000  1.0 0.1023835526
H  H134  1  0.43050000  0.00970000  0.33470000  1.0 0.111413823
H  H135  1  0.34590000  0.92330000  0.30830000  1.0 0.111413823
H  H136  1  0.85390000  0.28030000  0.34380000  1.0 0.3008068634
H  H137  1  0.90570000  0.09900000  0.32720000  1.0 0.1181117347
H  H138  1  0.03470000  0.13700000  0.22080000  1.0 0.0896669932
H  H139  1  0.01220000  0.25980000  0.22470000  1.0 0.1181117347
H  H140  1  0.92820000  0.30280000  0.27860000  1.0 0.1181117347
H  H141  1  0.72380000  0.24790000  0.40470000  1.0 0.3008068634
H  H142  1  0.90310000  0.27570000  0.43960000  1.0 0.111413823
H  H143  1  0.86210000  0.43540000  0.52580000  1.0 0.1023835526
H  H144  1  0.73830000  0.42810000  0.51230000  1.0 0.1181117347
H  H145  1  0.69660000  0.34600000  0.45530000  1.0 0.1181117347
H  H146  1  0.75780000  0.14760000  0.32330000  1.0 0.3008068634
H  H147  1  0.73190000  0.09160000  0.43850000  1.0 0.1181117347
H  H148  1  0.56420000  0.96390000  0.41270000  1.0 0.1023835526
H  H149  1  0.56950000  0.99030000  0.33470000  1.0 0.111413823
H  H150  1  0.65410000  0.07670000  0.30830000  1.0 0.111413823
H  H151  1  0.28030000  0.14610000  0.34380000  1.0 0.3008068634
H  H152  1  0.09900000  0.09430000  0.32720000  1.0 0.1181117347
H  H153  1  0.13700000  0.96530000  0.22080000  1.0 0.0896669932
H  H154  1  0.25980000  0.98780000  0.22470000  1.0 0.1181117347
H  H155  1  0.30280000  0.07180000  0.27860000  1.0 0.1181117347
H  H156  1  0.24790000  0.27620000  0.40470000  1.0 0.3008068634
H  H157  1  0.27570000  0.09690000  0.43960000  1.0 0.111413823
H  H158  1  0.43540000  0.13790000  0.52580000  1.0 0.1023835526
H  H159  1  0.42810000  0.26170000  0.51230000  1.0 0.1181117347
H  H160  1  0.34600000  0.30340000  0.45530000  1.0 0.1181117347
H  H161  1  0.14760000  0.24220000  0.32330000  1.0 0.3008068634
H  H162  1  0.09160000  0.26810000  0.43850000  1.0 0.1181117347
H  H163  1  0.96390000  0.43580000  0.41270000  1.0 0.1023835526
H  H164  1  0.99030000  0.43050000  0.33470000  1.0 0.111413823
H  H165  1  0.07670000  0.34590000  0.30830000  1.0 0.111413823
H  H166  1  0.71970000  0.85390000  0.34380000  1.0 0.3008068634
H  H167  1  0.90100000  0.90570000  0.32720000  1.0 0.1181117347
H  H168  1  0.86300000  0.03470000  0.22080000  1.0 0.0896669932
H  H169  1  0.74020000  0.01220000  0.22470000  1.0 0.1181117347
H  H170  1  0.69720000  0.92820000  0.27860000  1.0 0.1181117347
H  H171  1  0.75210000  0.72380000  0.40470000  1.0 0.3008068634
H  H172  1  0.72430000  0.90310000  0.43960000  1.0 0.111413823
H  H173  1  0.56460000  0.86210000  0.52580000  1.0 0.1023835526
H  H174  1  0.57190000  0.73830000  0.51230000  1.0 0.1181117347
H  H175  1  0.65400000  0.69660000  0.45530000  1.0 0.1181117347
H  H176  1  0.85240000  0.75780000  0.32330000  1.0 0.3008068634
H  H177  1  0.90840000  0.73190000  0.43850000  1.0 0.1181117347
H  H178  1  0.03610000  0.56420000  0.41270000  1.0 0.1023835526
H  H179  1  0.00970000  0.56950000  0.33470000  1.0 0.111413823
H  H180  1  0.92330000  0.65410000  0.30830000  1.0 0.111413823
H  H181  1  0.85390000  0.71970000  0.65620000  1.0 0.3008068634
H  H182  1  0.90570000  0.90100000  0.67280000  1.0 0.1181117347
H  H183  1  0.03470000  0.86300000  0.77920000  1.0 0.0896669932
H  H184  1  0.01220000  0.74020000  0.77530000  1.0 0.1181117347
H  H185  1  0.92820000  0.69720000  0.72140000  1.0 0.1181117347
H  H186  1  0.72380000  0.75210000  0.59530000  1.0 0.3008068634
H  H187  1  0.90310000  0.72430000  0.56040000  1.0 0.111413823
H  H188  1  0.86210000  0.56460000  0.47420000  1.0 0.1023835526
H  H189  1  0.73830000  0.57190000  0.48770000  1.0 0.1181117347
H  H190  1  0.69660000  0.65400000  0.54470000  1.0 0.1181117347
H  H191  1  0.75780000  0.85240000  0.67670000  1.0 0.3008068634
H  H192  1  0.73190000  0.90840000  0.56150000  1.0 0.1181117347
H  H193  1  0.56420000  0.03610000  0.58730000  1.0 0.1023835526
H  H194  1  0.56950000  0.00970000  0.66530000  1.0 0.111413823
H  H195  1  0.65410000  0.92330000  0.69170000  1.0 0.111413823
H  H196  1  0.14610000  0.28030000  0.65620000  1.0 0.3008068634
H  H197  1  0.09430000  0.09900000  0.67280000  1.0 0.1181117347
H  H198  1  0.96530000  0.13700000  0.77920000  1.0 0.0896669932
H  H199  1  0.98780000  0.25980000  0.77530000  1.0 0.1181117347
H  H200  1  0.07180000  0.30280000  0.72140000  1.0 0.1181117347
H  H201  1  0.27620000  0.24790000  0.59530000  1.0 0.3008068634
H  H202  1  0.09690000  0.27570000  0.56040000  1.0 0.111413823
H  H203  1  0.13790000  0.43540000  0.47420000  1.0 0.1023835526
H  H204  1  0.26170000  0.42810000  0.48770000  1.0 0.1181117347
H  H205  1  0.30340000  0.34600000  0.54470000  1.0 0.1181117347
H  H206  1  0.24220000  0.14760000  0.67670000  1.0 0.3008068634
H  H207  1  0.26810000  0.09160000  0.56150000  1.0 0.1181117347
H  H208  1  0.43580000  0.96390000  0.58730000  1.0 0.1023835526
H  H209  1  0.43050000  0.99030000  0.66530000  1.0 0.111413823
H  H210  1  0.34590000  0.07670000  0.69170000  1.0 0.111413823
H  H211  1  0.71970000  0.14610000  0.65620000  1.0 0.3008068634
H  H212  1  0.90100000  0.09430000  0.67280000  1.0 0.1181117347
H  H213  1  0.86300000  0.96530000  0.77920000  1.0 0.0896669932
H  H214  1  0.74020000  0.98780000  0.77530000  1.0 0.1181117347
H  H215  1  0.69720000  0.07180000  0.72140000  1.0 0.1181117347
H  H216  1  0.75210000  0.27620000  0.59530000  1.0 0.3008068634
H  H217  1  0.72430000  0.09690000  0.56040000  1.0 0.111413823
H  H218  1  0.56460000  0.13790000  0.47420000  1.0 0.1023835526
H  H219  1  0.57190000  0.26170000  0.48770000  1.0 0.1181117347
H  H220  1  0.65400000  0.30340000  0.54470000  1.0 0.1181117347
H  H221  1  0.85240000  0.24220000  0.67670000  1.0 0.3008068634
H  H222  1  0.90840000  0.26810000  0.56150000  1.0 0.1181117347
H  H223  1  0.03610000  0.43580000  0.58730000  1.0 0.1023835526
H  H224  1  0.00970000  0.43050000  0.66530000  1.0 0.111413823
H  H225  1  0.92330000  0.34590000  0.69170000  1.0 0.111413823
H  H226  1  0.28030000  0.85390000  0.65620000  1.0 0.3008068634
H  H227  1  0.09900000  0.90570000  0.67280000  1.0 0.1181117347
H  H228  1  0.13700000  0.03470000  0.77920000  1.0 0.0896669932
H  H229  1  0.25980000  0.01220000  0.77530000  1.0 0.1181117347
H  H230  1  0.30280000  0.92820000  0.72140000  1.0 0.1181117347
H  H231  1  0.24790000  0.72380000  0.59530000  1.0 0.3008068634
H  H232  1  0.27570000  0.90310000  0.56040000  1.0 0.111413823
H  H233  1  0.43540000  0.86210000  0.47420000  1.0 0.1023835526
H  H234  1  0.42810000  0.73830000  0.48770000  1.0 0.1181117347
H  H235  1  0.34600000  0.69660000  0.54470000  1.0 0.1181117347
H  H236  1  0.14760000  0.75780000  0.67670000  1.0 0.3008068634
H  H237  1  0.09160000  0.73190000  0.56150000  1.0 0.1181117347
H  H238  1  0.96390000  0.56420000  0.58730000  1.0 0.1023835526
H  H239  1  0.99030000  0.56950000  0.66530000  1.0 0.111413823
H  H240  1  0.07670000  0.65410000  0.69170000  1.0 0.111413823
C  C1  1  0.40980000  0.70520000  0.19042000  1.0 0.1913353436
C  C2  1  0.42750000  0.63220000  0.19373000  1.0 -0.0667527944
C  C3  1  0.50320000  0.65460000  0.25581000  1.0 -0.0013277838
C  C4  1  0.48910000  0.72740000  0.25443000  1.0 -0.1291925546
C  C5  1  0.44060000  0.75260000  0.22206000  1.0 -0.171544912
C  C6  1  0.29540000  0.79990000  0.05703000  1.0 0.2001016743
C  C7  1  0.36880000  0.80660000  0.04567000  1.0 -0.0430236605
C  C8  1  0.34460000  0.89980000  0.99518000  1.0 0.0245208822
C  C9  1  0.27120000  0.89720000  0.00362000  1.0 -0.1437414095
C  C10  1  0.24660000  0.84740000  0.03647000  1.0 -0.1605701514
C  C11  1  0.20400000  0.59110000  0.12949000  1.0 0.2001016743
C  C12  1  0.19870000  0.57140000  0.08306000  1.0 -0.0430236605
C  C13  1  0.10060000  0.49630000  0.09828000  1.0 0.0280627911
C  C14  1  0.10250000  0.51270000  0.14451000  1.0 -0.1437414095
C  C15  1  0.15360000  0.56240000  0.16021000  1.0 -0.171544912
C  C16  1  0.59020000  0.29480000  0.19042000  1.0 0.1913353436
C  C17  1  0.57250000  0.36780000  0.19373000  1.0 -0.0667527944
C  C18  1  0.49680000  0.34540000  0.25581000  1.0 -0.0013277838
C  C19  1  0.51090000  0.27260000  0.25443000  1.0 -0.1291925546
C  C20  1  0.55940000  0.24740000  0.22206000  1.0 -0.171544912
C  C21  1  0.70460000  0.20010000  0.05703000  1.0 0.2001016743
C  C22  1  0.63120000  0.19340000  0.04567000  1.0 -0.0430236605
C  C23  1  0.65540000  0.10020000  0.99518000  1.0 0.0280627911
C  C24  1  0.72880000  0.10280000  0.00362000  1.0 -0.1437414095
C  C25  1  0.75340000  0.15260000  0.03647000  1.0 -0.1605701514
C  C26  1  0.79600000  0.40890000  0.12949000  1.0 0.2001016743
C  C27  1  0.80130000  0.42860000  0.08306000  1.0 -0.0430236605
C  C28  1  0.89940000  0.50370000  0.09828000  1.0 0.0280627911
C  C29  1  0.89750000  0.48730000  0.14451000  1.0 -0.1437414095
C  C30  1  0.84640000  0.43760000  0.16021000  1.0 -0.171544912
C  C31  1  0.29480000  0.40980000  0.19042000  1.0 0.1913353436
C  C32  1  0.36780000  0.42750000  0.19373000  1.0 -0.0667527944
C  C33  1  0.34540000  0.50320000  0.25581000  1.0 -0.0013277838
C  C34  1  0.27260000  0.48910000  0.25443000  1.0 -0.1291925546
C  C35  1  0.24740000  0.44060000  0.22206000  1.0 -0.171544912
C  C36  1  0.20010000  0.29540000  0.05703000  1.0 0.2001016743
C  C37  1  0.19340000  0.36880000  0.04567000  1.0 -0.0430236605
C  C38  1  0.10020000  0.34460000  0.99518000  1.0 0.0245208822
C  C39  1  0.10280000  0.27120000  0.00362000  1.0 -0.1437414095
C  C40  1  0.15260000  0.24660000  0.03647000  1.0 -0.1605701514
C  C41  1  0.40890000  0.20400000  0.12949000  1.0 0.2001016743
C  C42  1  0.42860000  0.19870000  0.08306000  1.0 -0.0430236605
C  C43  1  0.50370000  0.10060000  0.09828000  1.0 0.0280627911
C  C44  1  0.48730000  0.10250000  0.14451000  1.0 -0.1437414095
C  C45  1  0.43760000  0.15360000  0.16021000  1.0 -0.171544912
C  C46  1  0.70520000  0.59020000  0.19042000  1.0 0.1913353436
C  C47  1  0.63220000  0.57250000  0.19373000  1.0 -0.0667527944
C  C48  1  0.65460000  0.49680000  0.25581000  1.0 -0.0013277838
C  C49  1  0.72740000  0.51090000  0.25443000  1.0 -0.1291925546
C  C50  1  0.75260000  0.55940000  0.22206000  1.0 -0.171544912
C  C51  1  0.79990000  0.70460000  0.05703000  1.0 0.2001016743
C  C52  1  0.80660000  0.63120000  0.04567000  1.0 -0.0430236605
C  C53  1  0.89980000  0.65540000  0.99518000  1.0 0.0280627911
C  C54  1  0.89720000  0.72880000  0.00362000  1.0 -0.1437414095
C  C55  1  0.84740000  0.75340000  0.03647000  1.0 -0.1605701514
C  C56  1  0.59110000  0.79600000  0.12949000  1.0 0.2001016743
C  C57  1  0.57140000  0.80130000  0.08306000  1.0 -0.0430236605
C  C58  1  0.49630000  0.89940000  0.09828000  1.0 0.0280627911
C  C59  1  0.51270000  0.89750000  0.14451000  1.0 -0.1437414095
C  C60  1  0.56240000  0.84640000  0.16021000  1.0 -0.171544912
C  C61  1  0.59020000  0.70520000  0.80958000  1.0 0.1913353436
C  C62  1  0.57250000  0.63220000  0.80627000  1.0 -0.0667527944
C  C63  1  0.49680000  0.65460000  0.74419000  1.0 -0.0013277838
C  C64  1  0.51090000  0.72740000  0.74557000  1.0 -0.1291925546
C  C65  1  0.55940000  0.75260000  0.77794000  1.0 -0.171544912
C  C66  1  0.70460000  0.79990000  0.94297000  1.0 0.2001016743
C  C67  1  0.63120000  0.80660000  0.95433000  1.0 -0.0430236605
C  C68  1  0.65540000  0.89980000  0.00482000  1.0 0.0245208822
C  C69  1  0.72880000  0.89720000  0.99638000  1.0 -0.1437414095
C  C70  1  0.75340000  0.84740000  0.96353000  1.0 -0.1605701514
C  C71  1  0.79600000  0.59110000  0.87051000  1.0 0.2001016743
C  C72  1  0.80130000  0.57140000  0.91694000  1.0 -0.0430236605
C  C73  1  0.89940000  0.49630000  0.90172000  1.0 0.0280627911
C  C74  1  0.89750000  0.51270000  0.85549000  1.0 -0.1437414095
C  C75  1  0.84640000  0.56240000  0.83979000  1.0 -0.171544912
C  C76  1  0.40980000  0.29480000  0.80958000  1.0 0.1913353436
C  C77  1  0.42750000  0.36780000  0.80627000  1.0 -0.0667527944
C  C78  1  0.50320000  0.34540000  0.74419000  1.0 -0.0013277838
C  C79  1  0.48910000  0.27260000  0.74557000  1.0 -0.1291925546
C  C80  1  0.44060000  0.24740000  0.77794000  1.0 -0.171544912
C  C81  1  0.29540000  0.20010000  0.94297000  1.0 0.2001016743
C  C82  1  0.36880000  0.19340000  0.95433000  1.0 -0.0430236605
C  C83  1  0.34460000  0.10020000  0.00482000  1.0 0.0280627911
C  C84  1  0.27120000  0.10280000  0.99638000  1.0 -0.1437414095
C  C85  1  0.24660000  0.15260000  0.96353000  1.0 -0.1605701514
C  C86  1  0.20400000  0.40890000  0.87051000  1.0 0.2001016743
C  C87  1  0.19870000  0.42860000  0.91694000  1.0 -0.0430236605
C  C88  1  0.10060000  0.50370000  0.90172000  1.0 0.0280627911
C  C89  1  0.10250000  0.48730000  0.85549000  1.0 -0.1437414095
C  C90  1  0.15360000  0.43760000  0.83979000  1.0 -0.171544912
C  C91  1  0.70520000  0.40980000  0.80958000  1.0 0.1913353436
C  C92  1  0.63220000  0.42750000  0.80627000  1.0 -0.0667527944
C  C93  1  0.65460000  0.50320000  0.74419000  1.0 -0.0013277838
C  C94  1  0.72740000  0.48910000  0.74557000  1.0 -0.1291925546
C  C95  1  0.75260000  0.44060000  0.77794000  1.0 -0.171544912
C  C96  1  0.79990000  0.29540000  0.94297000  1.0 0.2001016743
C  C97  1  0.80660000  0.36880000  0.95433000  1.0 -0.0430236605
C  C98  1  0.89980000  0.34460000  0.00482000  1.0 0.0280627911
C  C99  1  0.89720000  0.27120000  0.99638000  1.0 -0.1437414095
C  C100  1  0.84740000  0.24660000  0.96353000  1.0 -0.1605701514
C  C101  1  0.59110000  0.20400000  0.87051000  1.0 0.2001016743
C  C102  1  0.57140000  0.19870000  0.91694000  1.0 -0.0430236605
C  C103  1  0.49630000  0.10060000  0.90172000  1.0 0.0280627911
C  C104  1  0.51270000  0.10250000  0.85549000  1.0 -0.1437414095
C  C105  1  0.56240000  0.15360000  0.83979000  1.0 -0.171544912
C  C106  1  0.29480000  0.59020000  0.80958000  1.0 0.1913353436
C  C107  1  0.36780000  0.57250000  0.80627000  1.0 -0.0667527944
C  C108  1  0.34540000  0.49680000  0.74419000  1.0 -0.0013277838
C  C109  1  0.27260000  0.51090000  0.74557000  1.0 -0.1291925546
C  C110  1  0.24740000  0.55940000  0.77794000  1.0 -0.171544912
C  C111  1  0.20010000  0.70460000  0.94297000  1.0 0.2001016743
C  C112  1  0.19340000  0.63120000  0.95433000  1.0 -0.0430236605
C  C113  1  0.10020000  0.65540000  0.00482000  1.0 0.0245208822
C  C114  1  0.10280000  0.72880000  0.99638000  1.0 -0.1437414095
C  C115  1  0.15260000  0.75340000  0.96353000  1.0 -0.1605701514
C  C116  1  0.40890000  0.79600000  0.87051000  1.0 0.2001016743
C  C117  1  0.42860000  0.80130000  0.91694000  1.0 -0.0430236605
C  C118  1  0.50370000  0.89940000  0.90172000  1.0 0.0280627911
C  C119  1  0.48730000  0.89750000  0.85549000  1.0 -0.1437414095
C  C120  1  0.43760000  0.84640000  0.83979000  1.0 -0.171544912
C  C121  1  0.09020000  0.79480000  0.30958000  1.0 0.1913353436
C  C122  1  0.07250000  0.86780000  0.30627000  1.0 -0.0667527944
C  C123  1  0.99680000  0.84540000  0.24419000  1.0 -0.0013277838
C  C124  1  0.01090000  0.77260000  0.24557000  1.0 -0.1291925546
C  C125  1  0.05940000  0.74740000  0.27794000  1.0 -0.171544912
C  C126  1  0.20460000  0.70010000  0.44297000  1.0 0.2001016743
C  C127  1  0.13120000  0.69340000  0.45433000  1.0 -0.0430236605
C  C128  1  0.15540000  0.60020000  0.50482000  1.0 0.0245208822
C  C129  1  0.22880000  0.60280000  0.49638000  1.0 -0.1437414095
C  C130  1  0.25340000  0.65260000  0.46353000  1.0 -0.1605701514
C  C131  1  0.29600000  0.90890000  0.37051000  1.0 0.2001016743
C  C132  1  0.30130000  0.92860000  0.41694000  1.0 -0.0430236605
C  C133  1  0.39940000  0.00370000  0.40172000  1.0 0.0280627911
C  C134  1  0.39750000  0.98730000  0.35549000  1.0 -0.1437414095
C  C135  1  0.34640000  0.93760000  0.33979000  1.0 -0.171544912
C  C136  1  0.90980000  0.20520000  0.30958000  1.0 0.1913353436
C  C137  1  0.92750000  0.13220000  0.30627000  1.0 -0.0667527944
C  C138  1  0.00320000  0.15460000  0.24419000  1.0 -0.0013277838
C  C139  1  0.98910000  0.22740000  0.24557000  1.0 -0.1291925546
C  C140  1  0.94060000  0.25260000  0.27794000  1.0 -0.171544912
C  C141  1  0.79540000  0.29990000  0.44297000  1.0 0.2001016743
C  C142  1  0.86880000  0.30660000  0.45433000  1.0 -0.0430236605
C  C143  1  0.84460000  0.39980000  0.50482000  1.0 0.0280627911
C  C144  1  0.77120000  0.39720000  0.49638000  1.0 -0.1437414095
C  C145  1  0.74660000  0.34740000  0.46353000  1.0 -0.1605701514
C  C146  1  0.70400000  0.09110000  0.37051000  1.0 0.2001016743
C  C147  1  0.69870000  0.07140000  0.41694000  1.0 -0.0430236605
C  C148  1  0.60060000  0.99630000  0.40172000  1.0 0.0280627911
C  C149  1  0.60250000  0.01270000  0.35549000  1.0 -0.1437414095
C  C150  1  0.65360000  0.06240000  0.33979000  1.0 -0.171544912
C  C151  1  0.20520000  0.09020000  0.30958000  1.0 0.1913353436
C  C152  1  0.13220000  0.07250000  0.30627000  1.0 -0.0667527944
C  C153  1  0.15460000  0.99680000  0.24419000  1.0 -0.0013277838
C  C154  1  0.22740000  0.01090000  0.24557000  1.0 -0.1291925546
C  C155  1  0.25260000  0.05940000  0.27794000  1.0 -0.171544912
C  C156  1  0.29990000  0.20460000  0.44297000  1.0 0.2001016743
C  C157  1  0.30660000  0.13120000  0.45433000  1.0 -0.0430236605
C  C158  1  0.39980000  0.15540000  0.50482000  1.0 0.0280627911
C  C159  1  0.39720000  0.22880000  0.49638000  1.0 -0.1437414095
C  C160  1  0.34740000  0.25340000  0.46353000  1.0 -0.1605701514
C  C161  1  0.09110000  0.29600000  0.37051000  1.0 0.2001016743
C  C162  1  0.07140000  0.30130000  0.41694000  1.0 -0.0430236605
C  C163  1  0.99630000  0.39940000  0.40172000  1.0 0.0280627911
C  C164  1  0.01270000  0.39750000  0.35549000  1.0 -0.1437414095
C  C165  1  0.06240000  0.34640000  0.33979000  1.0 -0.171544912
C  C166  1  0.79480000  0.90980000  0.30958000  1.0 0.1913353436
C  C167  1  0.86780000  0.92750000  0.30627000  1.0 -0.0667527944
C  C168  1  0.84540000  0.00320000  0.24419000  1.0 -0.0013277838
C  C169  1  0.77260000  0.98910000  0.24557000  1.0 -0.1291925546
C  C170  1  0.74740000  0.94060000  0.27794000  1.0 -0.171544912
C  C171  1  0.70010000  0.79540000  0.44297000  1.0 0.2001016743
C  C172  1  0.69340000  0.86880000  0.45433000  1.0 -0.0430236605
C  C173  1  0.60020000  0.84460000  0.50482000  1.0 0.0245208822
C  C174  1  0.60280000  0.77120000  0.49638000  1.0 -0.1437414095
C  C175  1  0.65260000  0.74660000  0.46353000  1.0 -0.1605701514
C  C176  1  0.90890000  0.70400000  0.37051000  1.0 0.2001016743
C  C177  1  0.92860000  0.69870000  0.41694000  1.0 -0.0430236605
C  C178  1  0.00370000  0.60060000  0.40172000  1.0 0.0280627911
C  C179  1  0.98730000  0.60250000  0.35549000  1.0 -0.1437414095
C  C180  1  0.93760000  0.65360000  0.33979000  1.0 -0.171544912
C  C181  1  0.90980000  0.79480000  0.69042000  1.0 0.1913353436
C  C182  1  0.92750000  0.86780000  0.69373000  1.0 -0.0667527944
C  C183  1  0.00320000  0.84540000  0.75581000  1.0 -0.0013277838
C  C184  1  0.98910000  0.77260000  0.75443000  1.0 -0.1291925546
C  C185  1  0.94060000  0.74740000  0.72206000  1.0 -0.171544912
C  C186  1  0.79540000  0.70010000  0.55703000  1.0 0.2001016743
C  C187  1  0.86880000  0.69340000  0.54567000  1.0 -0.0430236605
C  C188  1  0.84460000  0.60020000  0.49518000  1.0 0.0245208822
C  C189  1  0.77120000  0.60280000  0.50362000  1.0 -0.1437414095
C  C190  1  0.74660000  0.65260000  0.53647000  1.0 -0.1605701514
C  C191  1  0.70400000  0.90890000  0.62949000  1.0 0.2001016743
C  C192  1  0.69870000  0.92860000  0.58306000  1.0 -0.0430236605
C  C193  1  0.60060000  0.00370000  0.59828000  1.0 0.0280627911
C  C194  1  0.60250000  0.98730000  0.64451000  1.0 -0.1437414095
C  C195  1  0.65360000  0.93760000  0.66021000  1.0 -0.171544912
C  C196  1  0.09020000  0.20520000  0.69042000  1.0 0.1913353436
C  C197  1  0.07250000  0.13220000  0.69373000  1.0 -0.0667527944
C  C198  1  0.99680000  0.15460000  0.75581000  1.0 -0.0013277838
C  C199  1  0.01090000  0.22740000  0.75443000  1.0 -0.1291925546
C  C200  1  0.05940000  0.25260000  0.72206000  1.0 -0.171544912
C  C201  1  0.20460000  0.29990000  0.55703000  1.0 0.2001016743
C  C202  1  0.13120000  0.30660000  0.54567000  1.0 -0.0430236605
C  C203  1  0.15540000  0.39980000  0.49518000  1.0 0.0245208822
C  C204  1  0.22880000  0.39720000  0.50362000  1.0 -0.1437414095
C  C205  1  0.25340000  0.34740000  0.53647000  1.0 -0.1605701514
C  C206  1  0.29600000  0.09110000  0.62949000  1.0 0.2001016743
C  C207  1  0.30130000  0.07140000  0.58306000  1.0 -0.0430236605
C  C208  1  0.39940000  0.99630000  0.59828000  1.0 0.0280627911
C  C209  1  0.39750000  0.01270000  0.64451000  1.0 -0.1437414095
C  C210  1  0.34640000  0.06240000  0.66021000  1.0 -0.171544912
C  C211  1  0.79480000  0.09020000  0.69042000  1.0 0.1913353436
C  C212  1  0.86780000  0.07250000  0.69373000  1.0 -0.0667527944
C  C213  1  0.84540000  0.99680000  0.75581000  1.0 -0.0013277838
C  C214  1  0.77260000  0.01090000  0.75443000  1.0 -0.1291925546
C  C215  1  0.74740000  0.05940000  0.72206000  1.0 -0.171544912
C  C216  1  0.70010000  0.20460000  0.55703000  1.0 0.2001016743
C  C217  1  0.69340000  0.13120000  0.54567000  1.0 -0.0430236605
C  C218  1  0.60020000  0.15540000  0.49518000  1.0 0.0280627911
C  C219  1  0.60280000  0.22880000  0.50362000  1.0 -0.1437414095
C  C220  1  0.65260000  0.25340000  0.53647000  1.0 -0.1605701514
C  C221  1  0.90890000  0.29600000  0.62949000  1.0 0.2001016743
C  C222  1  0.92860000  0.30130000  0.58306000  1.0 -0.0430236605
C  C223  1  0.00370000  0.39940000  0.59828000  1.0 0.0280627911
C  C224  1  0.98730000  0.39750000  0.64451000  1.0 -0.1437414095
C  C225  1  0.93760000  0.34640000  0.66021000  1.0 -0.171544912
C  C226  1  0.20520000  0.90980000  0.69042000  1.0 0.1913353436
C  C227  1  0.13220000  0.92750000  0.69373000  1.0 -0.0667527944
C  C228  1  0.15460000  0.00320000  0.75581000  1.0 -0.0013277838
C  C229  1  0.22740000  0.98910000  0.75443000  1.0 -0.1291925546
C  C230  1  0.25260000  0.94060000  0.72206000  1.0 -0.171544912
C  C231  1  0.29990000  0.79540000  0.55703000  1.0 0.2001016743
C  C232  1  0.30660000  0.86880000  0.54567000  1.0 -0.0430236605
C  C233  1  0.39980000  0.84460000  0.49518000  1.0 0.0245208822
C  C234  1  0.39720000  0.77120000  0.50362000  1.0 -0.1437414095
C  C235  1  0.34740000  0.74660000  0.53647000  1.0 -0.1605701514
C  C236  1  0.09110000  0.70400000  0.62949000  1.0 0.2001016743
C  C237  1  0.07140000  0.69870000  0.58306000  1.0 -0.0430236605
C  C238  1  0.99630000  0.60060000  0.59828000  1.0 0.0280627911
C  C239  1  0.01270000  0.60250000  0.64451000  1.0 -0.1437414095
C  C240  1  0.06240000  0.65360000  0.66021000  1.0 -0.171544912
S  S1  1  0.38029000  0.62478000  0.07762000  1.0 -0.4589456611
S  S2  1  0.61971000  0.37522000  0.07762000  1.0 -0.4589456611
S  S3  1  0.37522000  0.38029000  0.07762000  1.0 -0.4589456611
S  S4  1  0.62478000  0.61971000  0.07762000  1.0 -0.4589456611
S  S5  1  0.61971000  0.62478000  0.92238000  1.0 -0.4589456611
S  S6  1  0.38029000  0.37522000  0.92238000  1.0 -0.4589456611
S  S7  1  0.62478000  0.38029000  0.92238000  1.0 -0.4589456611
S  S8  1  0.37522000  0.61971000  0.92238000  1.0 -0.4589456611
S  S9  1  0.11971000  0.87522000  0.42238000  1.0 -0.4589456611
S  S10  1  0.88029000  0.12478000  0.42238000  1.0 -0.4589456611
S  S11  1  0.12478000  0.11971000  0.42238000  1.0 -0.4589456611
S  S12  1  0.87522000  0.88029000  0.42238000  1.0 -0.4589456611
S  S13  1  0.88029000  0.87522000  0.57762000  1.0 -0.4589456611
S  S14  1  0.11971000  0.12478000  0.57762000  1.0 -0.4589456611
S  S15  1  0.87522000  0.11971000  0.57762000  1.0 -0.4589456611
S  S16  1  0.12478000  0.88029000  0.57762000  1.0 -0.4589456611
N  N1  1  0.36162000  0.73310000  0.15612000  1.0 -0.5807711549
N  N2  1  0.47490000  0.60620000  0.22582000  1.0 -0.2268150814
N  N3  1  0.27063000  0.74725000  0.08912000  1.0 -0.5722305544
N  N4  1  0.39277000  0.85526000  0.01471000  1.0 -0.1771876087
N  N5  1  0.25745000  0.64023000  0.14669000  1.0 -0.5807711549
N  N6  1  0.14762000  0.52429000  0.06826000  1.0 -0.1771876087
N  N7  1  0.63838000  0.26690000  0.15612000  1.0 -0.5807711549
N  N8  1  0.52510000  0.39380000  0.22582000  1.0 -0.2268150814
N  N9  1  0.72937000  0.25275000  0.08912000  1.0 -0.5722305544
N  N10  1  0.60723000  0.14474000  0.01471000  1.0 -0.1771876087
N  N11  1  0.74255000  0.35977000  0.14669000  1.0 -0.5807711549
N  N12  1  0.85238000  0.47571000  0.06826000  1.0 -0.1771876087
N  N13  1  0.26690000  0.36162000  0.15612000  1.0 -0.5807711549
N  N14  1  0.39380000  0.47490000  0.22582000  1.0 -0.2268150814
N  N15  1  0.25275000  0.27063000  0.08912000  1.0 -0.5722305544
N  N16  1  0.14474000  0.39277000  0.01471000  1.0 -0.1771876087
N  N17  1  0.35977000  0.25745000  0.14669000  1.0 -0.5807711549
N  N18  1  0.47571000  0.14762000  0.06826000  1.0 -0.1771876087
N  N19  1  0.73310000  0.63838000  0.15612000  1.0 -0.5807711549
N  N20  1  0.60620000  0.52510000  0.22582000  1.0 -0.2268150814
N  N21  1  0.74725000  0.72937000  0.08912000  1.0 -0.5722305544
N  N22  1  0.85526000  0.60723000  0.01471000  1.0 -0.1771876087
N  N23  1  0.64023000  0.74255000  0.14669000  1.0 -0.5807711549
N  N24  1  0.52429000  0.85238000  0.06826000  1.0 -0.1771876087
N  N25  1  0.63838000  0.73310000  0.84388000  1.0 -0.5807711549
N  N26  1  0.52510000  0.60620000  0.77418000  1.0 -0.2268150814
N  N27  1  0.72937000  0.74725000  0.91088000  1.0 -0.5722305544
N  N28  1  0.60723000  0.85526000  0.98529000  1.0 -0.1771876087
N  N29  1  0.74255000  0.64023000  0.85331000  1.0 -0.5807711549
N  N30  1  0.85238000  0.52429000  0.93174000  1.0 -0.1771876087
N  N31  1  0.36162000  0.26690000  0.84388000  1.0 -0.5807711549
N  N32  1  0.47490000  0.39380000  0.77418000  1.0 -0.2268150814
N  N33  1  0.27063000  0.25275000  0.91088000  1.0 -0.5722305544
N  N34  1  0.39277000  0.14474000  0.98529000  1.0 -0.1771876087
N  N35  1  0.25745000  0.35977000  0.85331000  1.0 -0.5807711549
N  N36  1  0.14762000  0.47571000  0.93174000  1.0 -0.1771876087
N  N37  1  0.73310000  0.36162000  0.84388000  1.0 -0.5807711549
N  N38  1  0.60620000  0.47490000  0.77418000  1.0 -0.2268150814
N  N39  1  0.74725000  0.27063000  0.91088000  1.0 -0.5722305544
N  N40  1  0.85526000  0.39277000  0.98529000  1.0 -0.1771876087
N  N41  1  0.64023000  0.25745000  0.85331000  1.0 -0.5807711549
N  N42  1  0.52429000  0.14762000  0.93174000  1.0 -0.1771876087
N  N43  1  0.26690000  0.63838000  0.84388000  1.0 -0.5807711549
N  N44  1  0.39380000  0.52510000  0.77418000  1.0 -0.2268150814
N  N45  1  0.25275000  0.72937000  0.91088000  1.0 -0.5722305544
N  N46  1  0.14474000  0.60723000  0.98529000  1.0 -0.1771876087
N  N47  1  0.35977000  0.74255000  0.85331000  1.0 -0.5807711549
N  N48  1  0.47571000  0.85238000  0.93174000  1.0 -0.1771876087
N  N49  1  0.13838000  0.76690000  0.34388000  1.0 -0.5807711549
N  N50  1  0.02510000  0.89380000  0.27418000  1.0 -0.2268150814
N  N51  1  0.22937000  0.75275000  0.41088000  1.0 -0.5722305544
N  N52  1  0.10723000  0.64474000  0.48529000  1.0 -0.1771876087
N  N53  1  0.24255000  0.85977000  0.35331000  1.0 -0.5807711549
N  N54  1  0.35238000  0.97571000  0.43174000  1.0 -0.1771876087
N  N55  1  0.86162000  0.23310000  0.34388000  1.0 -0.5807711549
N  N56  1  0.97490000  0.10620000  0.27418000  1.0 -0.2268150814
N  N57  1  0.77063000  0.24725000  0.41088000  1.0 -0.5722305544
N  N58  1  0.89277000  0.35526000  0.48529000  1.0 -0.1771876087
N  N59  1  0.75745000  0.14023000  0.35331000  1.0 -0.5807711549
N  N60  1  0.64762000  0.02429000  0.43174000  1.0 -0.1771876087
N  N61  1  0.23310000  0.13838000  0.34388000  1.0 -0.5807711549
N  N62  1  0.10620000  0.02510000  0.27418000  1.0 -0.2268150814
N  N63  1  0.24725000  0.22937000  0.41088000  1.0 -0.5722305544
N  N64  1  0.35526000  0.10723000  0.48529000  1.0 -0.1771876087
N  N65  1  0.14023000  0.24255000  0.35331000  1.0 -0.5807711549
N  N66  1  0.02429000  0.35238000  0.43174000  1.0 -0.1771876087
N  N67  1  0.76690000  0.86162000  0.34388000  1.0 -0.5807711549
N  N68  1  0.89380000  0.97490000  0.27418000  1.0 -0.2268150814
N  N69  1  0.75275000  0.77063000  0.41088000  1.0 -0.5722305544
N  N70  1  0.64474000  0.89277000  0.48529000  1.0 -0.1771876087
N  N71  1  0.85977000  0.75745000  0.35331000  1.0 -0.5807711549
N  N72  1  0.97571000  0.64762000  0.43174000  1.0 -0.1771876087
N  N73  1  0.86162000  0.76690000  0.65612000  1.0 -0.5807711549
N  N74  1  0.97490000  0.89380000  0.72582000  1.0 -0.2268150814
N  N75  1  0.77063000  0.75275000  0.58912000  1.0 -0.5722305544
N  N76  1  0.89277000  0.64474000  0.51471000  1.0 -0.1771876087
N  N77  1  0.75745000  0.85977000  0.64669000  1.0 -0.5807711549
N  N78  1  0.64762000  0.97571000  0.56826000  1.0 -0.1771876087
N  N79  1  0.13838000  0.23310000  0.65612000  1.0 -0.5807711549
N  N80  1  0.02510000  0.10620000  0.72582000  1.0 -0.2268150814
N  N81  1  0.22937000  0.24725000  0.58912000  1.0 -0.5722305544
N  N82  1  0.10723000  0.35526000  0.51471000  1.0 -0.1771876087
N  N83  1  0.24255000  0.14023000  0.64669000  1.0 -0.5807711549
N  N84  1  0.35238000  0.02429000  0.56826000  1.0 -0.1771876087
N  N85  1  0.76690000  0.13838000  0.65612000  1.0 -0.5807711549
N  N86  1  0.89380000  0.02510000  0.72582000  1.0 -0.2268150814
N  N87  1  0.75275000  0.22937000  0.58912000  1.0 -0.5722305544
N  N88  1  0.64474000  0.10723000  0.51471000  1.0 -0.1771876087
N  N89  1  0.85977000  0.24255000  0.64669000  1.0 -0.5807711549
N  N90  1  0.97571000  0.35238000  0.56826000  1.0 -0.1771876087
N  N91  1  0.23310000  0.86162000  0.65612000  1.0 -0.5807711549
N  N92  1  0.10620000  0.97490000  0.72582000  1.0 -0.2268150814
N  N93  1  0.24725000  0.77063000  0.58912000  1.0 -0.5722305544
N  N94  1  0.35526000  0.89277000  0.51471000  1.0 -0.1771876087
N  N95  1  0.14023000  0.75745000  0.64669000  1.0 -0.5807711549
N  N96  1  0.02429000  0.64762000  0.56826000  1.0 -0.1771876087
Cl  Cl1  1  0.50000000  0.00000000  0.00000000  1.0 -0.6814076968
Cl  Cl2  1  0.00000000  0.50000000  0.00000000  1.0 -0.6814076968
Cl  Cl3  1  0.50000000  0.71640000  0.00000000  1.0 -0.6140767701
Cl  Cl4  1  0.50000000  0.28360000  0.00000000  1.0 -0.6140767701
Cl  Cl5  1  0.28360000  0.50000000  0.00000000  1.0 -0.6140767701
Cl  Cl6  1  0.71640000  0.50000000  0.00000000  1.0 -0.6140767701
Cl  Cl7  1  0.50000000  0.50000000  0.32370000  1.0 0.3259130351
Cl  Cl8  1  0.50000000  0.50000000  0.67630000  1.0 0.3259130351
Cl  Cl9  1  0.00000000  0.50000000  0.50000000  1.0 -0.6814076968
Cl  Cl10  1  0.50000000  0.00000000  0.50000000  1.0 -0.6814076968
Cl  Cl11  1  0.00000000  0.78360000  0.50000000  1.0 -0.6140767701
Cl  Cl12  1  0.00000000  0.21640000  0.50000000  1.0 -0.6140767701
Cl  Cl13  1  0.21640000  0.00000000  0.50000000  1.0 -0.6140767701
Cl  Cl14  1  0.78360000  0.00000000  0.50000000  1.0 -0.6140767701
Cl  Cl15  1  0.00000000  0.00000000  0.17630000  1.0 0.3239621006
Cl  Cl16  1  0.00000000  0.00000000  0.82370000  1.0 0.3239621006
O  O1  1  0.50000000  0.50000000  0.30490000  1.0 -0.1512331881
O  O2  1  0.50000000  0.50000000  0.69510000  1.0 -0.1512331881
O  O3  1  0.00000000  0.00000000  0.19510000  1.0 -0.1512331881
O  O4  1  0.00000000  0.00000000  0.80490000  1.0 -0.1512331881
