# DDEC6 charges by PACMAN v1.1 (https://github.com/mtap-research/PACMAN-charge/)
data_AGEWOB_ion_pacman
_chemical_formula_sum              "Mn16 P16 H240 O96 C48 N48"
_cell_length_a       29.9772
_cell_length_b       9.0427
_cell_length_c       15.0339
_cell_angle_alpha    90
_cell_angle_beta     103.114
_cell_angle_gamma    90

_symmetry_space_group_name_H-M    "P 1"
_symmetry_Int_Tables_number       1

loop_
  _symmetry_equiv_pos_as_xyz
  'x, y, z'

loop_
  _atom_site_type_symbol
  _atom_site_label
  _atom_site_symmetry_multiplicity
  _atom_site_fract_x
  _atom_site_fract_y
  _atom_site_fract_z
  _atom_site_occupancy
 _atom_site_charge
Mn  Mn1       1.0  0.37303  0.22541  0.37672  1.0000 1.090739143
P   P1        1.0  0.31396  0.49840  0.43851  1.0000 0.3527081632
H   H1        1.0  0.33967  0.61828  0.41884  1.0000 0.0098181293
H   H2        1.0  0.28192  0.46229  0.35823  1.0000 0.0178685685
P   P2        1.0  0.58027  0.52856  0.18946  1.0000 0.34027939
H   H3        1.0  0.55380  0.51338  0.10038  1.0000 0.0098181293
H   H4        1.0  0.60711  0.65586  0.19194  1.0000 0.0027557259
P   P3        1.0  0.44185  0.02374  0.28555  1.0000 0.34027939
H   H5        1.0  0.45741  0.14325  0.24168  1.0000 -0.0020000495
H   H6        1.0  0.47060  0.01098  0.37269  1.0000 0.0098181293
O   O1        1.0  0.28861  0.54607  0.50914  1.0000 -0.4806629821
O   O2        1.0  0.44541  0.88691  0.23338  1.0000 -0.5080997675
O   O3        1.0  0.36057  0.03717  0.46034  1.0000 -0.4889149794
O   O4        1.0  0.30289  0.79015  0.78968  1.0000 -0.4454804129
O   O5        1.0  0.55591  0.75256  0.54136  1.0000 -0.4575986165
O   O6        1.0  0.34552  0.36882  0.46557  1.0000 -0.4889149794
O   O7        1.0  0.39447  0.05560  0.29516  1.0000 -0.4747128963
O   O8        1.0  0.61116  0.39762  0.21144  1.0000 -0.5033983617
O   O9        1.0  0.54884  0.54885  0.25344  1.0000 -0.4806629821
O   O10       1.0  0.50771  0.73781  0.40052  1.0000 -0.4575986165
O   O11       1.0  0.25676  0.74946  0.64940  1.0000 -0.4454804129
O   O12       1.0  0.31466  0.86818  0.51189  1.0000 -0.4806629821
C   C1        1.0  0.54878  0.74965  0.45229  1.0000 0.3527081632
H   H7        1.0  0.57367  0.75621  0.42516  1.0000 -0.075899344
C   C2        1.0  0.29665  0.76920  0.70262  1.0000 0.355107841
H   H8        1.0  0.32215  0.76823  0.67710  1.0000 -0.0693726161
C   C3        1.0  0.31806  0.00082  0.47495  1.0000 0.34027939
H   H9        1.0  0.29325  0.06499  0.45994  1.0000 -0.0693726161
C   C4        1.0  0.41973  0.52856  0.31054  1.0000 0.709762019
C   C5        1.0  0.55815  0.02374  0.21445  1.0000 0.709762019
H   H10       1.0  0.30575  0.10830  0.53199  1.0000 0.0027557259
H   H11       1.0  0.28614  0.00774  0.39115  1.0000 -0.0094187021
H   H12       1.0  0.31617  0.89075  0.66800  1.0000 -0.0020000495
H   H13       1.0  0.32306  0.64590  0.69127  1.0000 0.0098181293
H   H14       1.0  0.56783  0.87928  0.42593  1.0000 0.0027557259
H   H15       1.0  0.57447  0.63180  0.42989  1.0000 -0.0094187021
H   H16       1.0  0.46681  0.08386  0.30992  1.0000 -0.0406734486
H   H17       1.0  0.31040  0.54548  0.38234  1.0000 -0.0406734486
H   H18       1.0  0.58047  0.59168  0.14071  1.0000 -0.0493202846
Mn  Mn2       1.0  0.87303  0.72541  0.37672  1.0000 1.090739143
P   P4        1.0  0.81396  0.99840  0.43851  1.0000 0.3527081632
H   H19       1.0  0.83967  0.11828  0.41884  1.0000 0.0098181293
H   H20       1.0  0.78192  0.96229  0.35823  1.0000 0.0178685685
P   P5        1.0  0.08027  0.02856  0.18946  1.0000 0.34027939
H   H21       1.0  0.05380  0.01338  0.10038  1.0000 0.0098181293
H   H22       1.0  0.10711  0.15586  0.19194  1.0000 0.0027557259
P   P6        1.0  0.94185  0.52374  0.28555  1.0000 0.34027939
H   H23       1.0  0.95741  0.64325  0.24168  1.0000 -0.0020000495
H   H24       1.0  0.97060  0.51098  0.37269  1.0000 0.0098181293
O   O13       1.0  0.78861  0.04607  0.50914  1.0000 -0.4806629821
O   O14       1.0  0.94541  0.38691  0.23338  1.0000 -0.5080997675
O   O15       1.0  0.86057  0.53717  0.46034  1.0000 -0.4889149794
O   O16       1.0  0.80289  0.29015  0.78968  1.0000 -0.4454804129
O   O17       1.0  0.05591  0.25256  0.54136  1.0000 -0.4575986165
O   O18       1.0  0.84552  0.86882  0.46557  1.0000 -0.4889149794
O   O19       1.0  0.89447  0.55560  0.29516  1.0000 -0.4747128963
O   O20       1.0  0.11116  0.89762  0.21144  1.0000 -0.5033983617
O   O21       1.0  0.04884  0.04885  0.25344  1.0000 -0.4806629821
O   O22       1.0  0.00771  0.23781  0.40052  1.0000 -0.4575986165
O   O23       1.0  0.75676  0.24946  0.64940  1.0000 -0.4454804129
O   O24       1.0  0.81466  0.36818  0.51189  1.0000 -0.4806629821
C   C6        1.0  0.04878  0.24965  0.45229  1.0000 0.3527081632
H   H25       1.0  0.07367  0.25621  0.42516  1.0000 -0.075899344
C   C7        1.0  0.79665  0.26920  0.70262  1.0000 0.355107841
H   H26       1.0  0.82215  0.26823  0.67710  1.0000 -0.0693726161
C   C8        1.0  0.81806  0.50082  0.47495  1.0000 0.34027939
H   H27       1.0  0.79325  0.56499  0.45994  1.0000 -0.0577410066
C   C9        1.0  0.91973  0.02856  0.31054  1.0000 0.709762019
C   C10       1.0  0.05815  0.52374  0.21445  1.0000 0.709762019
H   H28       1.0  0.80575  0.60830  0.53199  1.0000 0.0027557259
H   H29       1.0  0.78614  0.50774  0.39115  1.0000 -0.0094187021
H   H30       1.0  0.81617  0.39075  0.66801  1.0000 -0.0020000495
H   H31       1.0  0.82306  0.14590  0.69127  1.0000 0.0098181293
H   H32       1.0  0.06783  0.37928  0.42593  1.0000 0.0027557259
H   H33       1.0  0.07447  0.13180  0.42989  1.0000 -0.0094187021
H   H34       1.0  0.96681  0.58386  0.30992  1.0000 -0.0406734486
H   H35       1.0  0.81040  0.04548  0.38234  1.0000 -0.0406734486
H   H36       1.0  0.08047  0.09168  0.14071  1.0000 -0.0577410066
Mn  Mn3       1.0  0.62697  0.22541  0.12328  1.0000 1.090739143
P   P7        1.0  0.68604  0.49840  0.06149  1.0000 0.3527081632
H   H37       1.0  0.66033  0.61828  0.08116  1.0000 0.0098181293
H   H38       1.0  0.71808  0.46229  0.14177  1.0000 0.0178685685
H   H39       1.0  0.44620  0.51338  0.39962  1.0000 -0.0493202846
H   H40       1.0  0.39289  0.65586  0.30806  1.0000 -0.0493202846
H   H41       1.0  0.54259  0.14325  0.25832  1.0000 -0.0493202846
H   H42       1.0  0.52940  0.01098  0.12731  1.0000 -0.0406734486
O   O25       1.0  0.71139  0.54607  0.99086  1.0000 -0.4806629821
O   O26       1.0  0.55459  0.88691  0.26662  1.0000 -0.5723552272
O   O27       1.0  0.63943  0.03717  0.03966  1.0000 -0.4889149794
O   O28       1.0  0.69711  0.79015  0.71032  1.0000 -0.4454804129
O   O29       1.0  0.44409  0.75256  0.95864  1.0000 -0.4575986165
O   O30       1.0  0.65448  0.36882  0.03443  1.0000 -0.4806629821
O   O31       1.0  0.60553  0.05560  0.20484  1.0000 -0.5637927829
O   O32       1.0  0.38884  0.39762  0.28856  1.0000 -0.5759839147
O   O33       1.0  0.45116  0.54885  0.24656  1.0000 -0.5723552272
O   O34       1.0  0.49229  0.73781  0.09948  1.0000 -0.4575986165
O   O35       1.0  0.74324  0.74946  0.85060  1.0000 -0.4454804129
O   O36       1.0  0.68534  0.86818  0.98811  1.0000 -0.4806629821
C   C11       1.0  0.45122  0.74965  0.04771  1.0000 0.3527081632
H   H43       1.0  0.42633  0.75621  0.07484  1.0000 -0.075899344
C   C12       1.0  0.70335  0.76920  0.79738  1.0000 0.355107841
H   H44       1.0  0.67785  0.76823  0.82290  1.0000 -0.0693726161
C   C13       1.0  0.68194  0.00082  0.02505  1.0000 0.34027939
H   H45       1.0  0.70675  0.06499  0.04006  1.0000 -0.0693726161
H   H46       1.0  0.69425  0.10830  0.96801  1.0000 0.0027557259
H   H47       1.0  0.71386  0.00774  0.10885  1.0000 -0.0094187021
H   H48       1.0  0.68383  0.89075  0.83200  1.0000 -0.0020000495
H   H49       1.0  0.67694  0.64590  0.80873  1.0000 0.0098181293
H   H50       1.0  0.43217  0.87928  0.07407  1.0000 0.0027557259
H   H51       1.0  0.42553  0.63180  0.07011  1.0000 -0.0094187021
H   H52       1.0  0.53319  0.08386  0.19008  1.0000 -0.0493202846
H   H53       1.0  0.68960  0.54548  0.11766  1.0000 -0.0406734486
H   H54       1.0  0.41953  0.59168  0.35929  1.0000 -0.0577410066
Mn  Mn4       1.0  0.12697  0.72541  0.12328  1.0000 1.090739143
P   P8        1.0  0.18604  0.99840  0.06149  1.0000 0.3527081632
H   H55       1.0  0.16033  0.11828  0.08116  1.0000 0.0098181293
H   H56       1.0  0.21808  0.96229  0.14177  1.0000 0.0178685685
H   H57       1.0  0.94620  0.01338  0.39962  1.0000 -0.0493202846
H   H58       1.0  0.89289  0.15586  0.30806  1.0000 -0.0493202846
H   H59       1.0  0.04259  0.64325  0.25832  1.0000 -0.0493202846
H   H60       1.0  0.02940  0.51098  0.12731  1.0000 -0.0406734486
O   O37       1.0  0.21139  0.04607  0.99086  1.0000 -0.4806629821
O   O38       1.0  0.05459  0.38691  0.26662  1.0000 -0.5723552272
O   O39       1.0  0.13943  0.53717  0.03966  1.0000 -0.4889149794
O   O40       1.0  0.19711  0.29015  0.71032  1.0000 -0.4454804129
O   O41       1.0  0.94409  0.25256  0.95864  1.0000 -0.4575986165
O   O42       1.0  0.15448  0.86882  0.03443  1.0000 -0.4806629821
O   O43       1.0  0.10553  0.55560  0.20484  1.0000 -0.5637927829
O   O44       1.0  0.88884  0.89762  0.28856  1.0000 -0.5723552272
O   O45       1.0  0.95116  0.04885  0.24656  1.0000 -0.5723552272
O   O46       1.0  0.99229  0.23781  0.09948  1.0000 -0.4575986165
O   O47       1.0  0.24324  0.24946  0.85060  1.0000 -0.4454804129
O   O48       1.0  0.18534  0.36818  0.98811  1.0000 -0.4806629821
C   C14       1.0  0.95122  0.24965  0.04771  1.0000 0.3527081632
H   H61       1.0  0.92633  0.25621  0.07484  1.0000 -0.075899344
C   C15       1.0  0.20335  0.26920  0.79738  1.0000 0.3527081632
H   H62       1.0  0.17785  0.26823  0.82290  1.0000 -0.0693726161
C   C16       1.0  0.18194  0.50082  0.02505  1.0000 0.34027939
H   H63       1.0  0.20675  0.56499  0.04006  1.0000 -0.0693726161
H   H64       1.0  0.19425  0.60830  0.96801  1.0000 0.0027557259
H   H65       1.0  0.21386  0.50774  0.10885  1.0000 -0.0094187021
H   H66       1.0  0.18384  0.39075  0.83199  1.0000 -0.0020000495
H   H67       1.0  0.17694  0.14590  0.80873  1.0000 0.0098181293
H   H68       1.0  0.93217  0.37928  0.07407  1.0000 0.0027557259
H   H69       1.0  0.92553  0.13180  0.07011  1.0000 -0.0094187021
H   H70       1.0  0.03320  0.58386  0.19008  1.0000 -0.0493202846
H   H71       1.0  0.18960  0.04548  0.11766  1.0000 -0.0406734486
H   H72       1.0  0.91953  0.09168  0.35929  1.0000 -0.0577410066
Mn  Mn5       1.0  0.62697  0.77459  0.62328  1.0000 1.090739143
P   P9        1.0  0.68604  0.50160  0.56149  1.0000 0.3527081632
H   H73       1.0  0.66033  0.38172  0.58116  1.0000 0.0098181293
H   H74       1.0  0.71808  0.53771  0.64177  1.0000 0.0178685685
P   P10       1.0  0.41973  0.47144  0.81054  1.0000 0.34027939
H   H75       1.0  0.44620  0.48662  0.89962  1.0000 0.0098181293
H   H76       1.0  0.39289  0.34414  0.80806  1.0000 0.0027557259
P   P11       1.0  0.55815  0.97626  0.71445  1.0000 0.34027939
H   H77       1.0  0.54259  0.85675  0.75832  1.0000 -0.0020000495
H   H78       1.0  0.52940  0.98902  0.62731  1.0000 0.0098181293
O   O49       1.0  0.71139  0.45393  0.49086  1.0000 -0.4806629821
O   O50       1.0  0.55459  0.11309  0.76662  1.0000 -0.5080997675
O   O51       1.0  0.63943  0.96283  0.53966  1.0000 -0.4889149794
O   O52       1.0  0.69711  0.20985  0.21032  1.0000 -0.4454804129
O   O53       1.0  0.44409  0.24744  0.45864  1.0000 -0.4575986165
O   O54       1.0  0.65448  0.63118  0.53443  1.0000 -0.4889149794
O   O55       1.0  0.60553  0.94440  0.70484  1.0000 -0.4747128963
O   O56       1.0  0.38884  0.60238  0.78856  1.0000 -0.5033983617
O   O57       1.0  0.45116  0.45115  0.74656  1.0000 -0.4806629821
O   O58       1.0  0.49229  0.26219  0.59948  1.0000 -0.4575986165
O   O59       1.0  0.74324  0.25054  0.35060  1.0000 -0.4454804129
O   O60       1.0  0.68534  0.13182  0.48811  1.0000 -0.4806629821
C   C17       1.0  0.45122  0.25035  0.54771  1.0000 0.3527081632
H   H79       1.0  0.42633  0.24379  0.57484  1.0000 -0.075899344
C   C18       1.0  0.70335  0.23080  0.29738  1.0000 0.355107841
H   H80       1.0  0.67785  0.23177  0.32290  1.0000 -0.0693726161
C   C19       1.0  0.68194  0.99918  0.52505  1.0000 0.34027939
H   H81       1.0  0.70675  0.93501  0.54006  1.0000 -0.0693726161
C   C20       1.0  0.58027  0.47144  0.68946  1.0000 0.709762019
C   C21       1.0  0.44185  0.97626  0.78555  1.0000 0.709762019
H   H82       1.0  0.69425  0.89170  0.46801  1.0000 0.0027557259
H   H83       1.0  0.71386  0.99226  0.60885  1.0000 -0.0094187021
H   H84       1.0  0.68383  0.10925  0.33200  1.0000 -0.0020000495
H   H85       1.0  0.67694  0.35410  0.30873  1.0000 0.0098181293
H   H86       1.0  0.43217  0.12072  0.57407  1.0000 0.0027557259
H   H87       1.0  0.42553  0.36820  0.57011  1.0000 -0.0094187021
H   H88       1.0  0.53319  0.91614  0.69008  1.0000 -0.0406734486
H   H89       1.0  0.68960  0.45452  0.61766  1.0000 -0.0406734486
H   H90       1.0  0.41953  0.40832  0.85929  1.0000 -0.0493202846
Mn  Mn6       1.0  0.12697  0.27459  0.62328  1.0000 1.090739143
P   P12       1.0  0.18604  0.00160  0.56149  1.0000 0.3527081632
H   H91       1.0  0.16033  0.88172  0.58116  1.0000 0.0098181293
H   H92       1.0  0.21808  0.03771  0.64177  1.0000 0.0178685685
P   P13       1.0  0.91973  0.97144  0.81054  1.0000 0.34027939
H   H93       1.0  0.94620  0.98662  0.89962  1.0000 0.0098181293
H   H94       1.0  0.89289  0.84414  0.80806  1.0000 0.0027557259
P   P14       1.0  0.05815  0.47626  0.71445  1.0000 0.34027939
H   H95       1.0  0.04259  0.35675  0.75832  1.0000 -0.0020000495
H   H96       1.0  0.02940  0.48902  0.62731  1.0000 0.0098181293
O   O61       1.0  0.21139  0.95393  0.49086  1.0000 -0.4806629821
O   O62       1.0  0.05459  0.61309  0.76662  1.0000 -0.5080997675
O   O63       1.0  0.13943  0.46283  0.53966  1.0000 -0.4889149794
O   O64       1.0  0.19711  0.70985  0.21032  1.0000 -0.4454804129
O   O65       1.0  0.94409  0.74744  0.45864  1.0000 -0.4575986165
O   O66       1.0  0.15448  0.13118  0.53443  1.0000 -0.4889149794
O   O67       1.0  0.10553  0.44440  0.70484  1.0000 -0.4747128963
O   O68       1.0  0.88884  0.10238  0.78856  1.0000 -0.5033983617
O   O69       1.0  0.95116  0.95115  0.74656  1.0000 -0.4806629821
O   O70       1.0  0.99229  0.76219  0.59948  1.0000 -0.4575986165
O   O71       1.0  0.24324  0.75054  0.35060  1.0000 -0.4454804129
O   O72       1.0  0.18534  0.63182  0.48811  1.0000 -0.4806629821
C   C22       1.0  0.95122  0.75035  0.54771  1.0000 0.3527081632
H   H97       1.0  0.92633  0.74379  0.57484  1.0000 -0.075899344
C   C23       1.0  0.20335  0.73080  0.29738  1.0000 0.355107841
H   H98       1.0  0.17785  0.73177  0.32290  1.0000 -0.0693726161
C   C24       1.0  0.18194  0.49918  0.52505  1.0000 0.34027939
H   H99       1.0  0.20675  0.43501  0.54006  1.0000 -0.0693726161
C   C25       1.0  0.08027  0.97144  0.68946  1.0000 0.709762019
C   C26       1.0  0.94185  0.47626  0.78555  1.0000 0.709762019
H   H100      1.0  0.19425  0.39170  0.46801  1.0000 0.0027557259
H   H101      1.0  0.21386  0.49226  0.60885  1.0000 -0.0094187021
H   H102      1.0  0.18384  0.60925  0.33200  1.0000 -0.0020000495
H   H103      1.0  0.17694  0.85410  0.30873  1.0000 0.0098181293
H   H104      1.0  0.93217  0.62072  0.57407  1.0000 0.0027557259
H   H105      1.0  0.92553  0.86820  0.57011  1.0000 -0.0094187021
H   H106      1.0  0.03320  0.41614  0.69008  1.0000 -0.0406734486
H   H107      1.0  0.18960  0.95452  0.61766  1.0000 -0.0406734486
H   H108      1.0  0.91953  0.90832  0.85929  1.0000 -0.0493202846
Mn  Mn7       1.0  0.37303  0.77459  0.87672  1.0000 1.090739143
P   P15       1.0  0.31396  0.50160  0.93851  1.0000 0.3527081632
H   H109      1.0  0.33967  0.38172  0.91884  1.0000 0.0098181293
H   H110      1.0  0.28192  0.53771  0.85823  1.0000 0.0178685685
H   H111      1.0  0.55380  0.48662  0.60038  1.0000 -0.0493202846
H   H112      1.0  0.60711  0.34414  0.69194  1.0000 -0.0493202846
H   H113      1.0  0.45741  0.85675  0.74168  1.0000 -0.0493202846
H   H114      1.0  0.47060  0.98902  0.87269  1.0000 -0.0406734486
O   O73       1.0  0.28861  0.45393  0.00914  1.0000 -0.4806629821
O   O74       1.0  0.44541  0.11309  0.73338  1.0000 -0.5723552272
O   O75       1.0  0.36057  0.96283  0.96034  1.0000 -0.4889149794
O   O76       1.0  0.30289  0.20985  0.28968  1.0000 -0.4454804129
O   O77       1.0  0.55591  0.24744  0.04136  1.0000 -0.4575986165
O   O78       1.0  0.34552  0.63118  0.96557  1.0000 -0.4806629821
O   O79       1.0  0.39447  0.94440  0.79516  1.0000 -0.5637927829
O   O80       1.0  0.61116  0.60238  0.71144  1.0000 -0.5723552272
O   O81       1.0  0.54884  0.45115  0.75344  1.0000 -0.5723552272
O   O82       1.0  0.50771  0.26219  0.90052  1.0000 -0.4575986165
O   O83       1.0  0.25676  0.25054  0.14940  1.0000 -0.4454804129
O   O84       1.0  0.31466  0.13182  0.01189  1.0000 -0.4806629821
C   C27       1.0  0.54878  0.25035  0.95229  1.0000 0.3527081632
H   H115      1.0  0.57367  0.24379  0.92516  1.0000 -0.075899344
C   C28       1.0  0.29665  0.23080  0.20262  1.0000 0.355107841
H   H116      1.0  0.32215  0.23177  0.17710  1.0000 -0.0693726161
C   C29       1.0  0.31806  0.99918  0.97495  1.0000 0.34027939
H   H117      1.0  0.29325  0.93501  0.95994  1.0000 -0.0693726161
H   H118      1.0  0.30575  0.89170  0.03199  1.0000 0.0027557259
H   H119      1.0  0.28614  0.99226  0.89115  1.0000 -0.0094187021
H   H120      1.0  0.31617  0.10925  0.16800  1.0000 -0.0020000495
H   H121      1.0  0.32306  0.35410  0.19127  1.0000 0.0098181293
H   H122      1.0  0.56783  0.12072  0.92593  1.0000 0.0027557259
H   H123      1.0  0.57447  0.36820  0.92989  1.0000 -0.0094187021
H   H124      1.0  0.46681  0.91614  0.80992  1.0000 -0.0493202846
H   H125      1.0  0.31040  0.45452  0.88234  1.0000 -0.0406734486
H   H126      1.0  0.58047  0.40832  0.64071  1.0000 -0.0577410066
Mn  Mn8       1.0  0.87303  0.27459  0.87672  1.0000 1.090739143
P   P16       1.0  0.81396  0.00160  0.93851  1.0000 0.3527081632
H   H127      1.0  0.83967  0.88172  0.91884  1.0000 0.0098181293
H   H128      1.0  0.78192  0.03771  0.85823  1.0000 0.0178685685
H   H129      1.0  0.05380  0.98662  0.60038  1.0000 -0.0493202846
H   H130      1.0  0.10711  0.84414  0.69194  1.0000 -0.0493202846
H   H131      1.0  0.95741  0.35675  0.74168  1.0000 -0.0493202846
H   H132      1.0  0.97060  0.48902  0.87269  1.0000 -0.0406734486
O   O85       1.0  0.78861  0.95393  0.00914  1.0000 -0.4806629821
O   O86       1.0  0.94541  0.61309  0.73338  1.0000 -0.5723552272
O   O87       1.0  0.86057  0.46283  0.96034  1.0000 -0.4889149794
O   O88       1.0  0.80289  0.70985  0.28968  1.0000 -0.4454804129
O   O89       1.0  0.05591  0.74744  0.04136  1.0000 -0.4575986165
O   O90       1.0  0.84552  0.13118  0.96557  1.0000 -0.4806629821
O   O91       1.0  0.89447  0.44440  0.79516  1.0000 -0.5637927829
O   O92       1.0  0.11116  0.10238  0.71144  1.0000 -0.5723552272
O   O93       1.0  0.04884  0.95115  0.75344  1.0000 -0.5723552272
O   O94       1.0  0.00771  0.76219  0.90052  1.0000 -0.4575986165
O   O95       1.0  0.75676  0.75054  0.14940  1.0000 -0.4454804129
O   O96       1.0  0.81466  0.63182  0.01189  1.0000 -0.4806629821
C   C30       1.0  0.04878  0.75035  0.95229  1.0000 0.3527081632
H   H133      1.0  0.07367  0.74379  0.92516  1.0000 -0.075899344
C   C31       1.0  0.79665  0.73080  0.20262  1.0000 0.355107841
H   H134      1.0  0.82215  0.73177  0.17710  1.0000 -0.0693726161
C   C32       1.0  0.81806  0.49918  0.97495  1.0000 0.34027939
H   H135      1.0  0.79325  0.43501  0.95994  1.0000 -0.0693726161
H   H136      1.0  0.80575  0.39170  0.03199  1.0000 0.0027557259
H   H137      1.0  0.78614  0.49226  0.89115  1.0000 -0.0094187021
H   H138      1.0  0.81617  0.60925  0.16801  1.0000 -0.0020000495
H   H139      1.0  0.82306  0.85410  0.19127  1.0000 0.0098181293
H   H140      1.0  0.06783  0.62072  0.92593  1.0000 0.0027557259
H   H141      1.0  0.07447  0.86820  0.92989  1.0000 -0.0094187021
H   H142      1.0  0.96681  0.41614  0.80992  1.0000 -0.0493202846
H   H143      1.0  0.81040  0.95452  0.88234  1.0000 -0.0406734486
H   H144      1.0  0.08047  0.90832  0.64071  1.0000 -0.0577410066
Mn  Mn9       1.0  0.50000  0.72659  0.25000  1.0000 1.0849522621
Mn  Mn10      1.0  0.00000  0.22659  0.25000  1.0000 1.0849522621
Mn  Mn11      1.0  0.50000  0.27341  0.75000  1.0000 1.0849522621
Mn  Mn12      1.0  0.00000  0.77341  0.75000  1.0000 1.0849522621
Mn  Mn13      1.0  0.25000  0.75000  0.50000  1.0000 1.0711312861
Mn  Mn14      1.0  0.75000  0.75000  0.00000  1.0000 1.0711312861
Mn  Mn15      1.0  0.75000  0.25000  0.50000  1.0000 1.0711312861
Mn  Mn16      1.0  0.25000  0.25000  0.00000  1.0000 1.0711312861
N   N1        1.0  0.10238  0.21985  0.89823  1.0000 -0.5891952395
H   H145      1.0  0.10217  0.16430  0.85171  1.0000 0.34027939
H   H146      1.0  0.12655  0.26946  0.92252  1.0000 0.3303642984
N   N2        1.0  0.06570  0.31459  0.00463  1.0000 -0.6097756107
H   H147      1.0  0.04176  0.32034  0.02694  1.0000 0.3303642984
H   H148      1.0  0.08987  0.36421  0.02892  1.0000 0.34027939
N   N3        1.0  0.02796  0.15246  0.89516  1.0000 -0.6000669538
H   H149      1.0  0.00404  0.15832  0.91755  1.0000 0.3303642984
H   H150      1.0  0.02768  0.09704  0.84854  1.0000 0.34027939
C   C33       1.0  0.06535  0.22900  0.93258  1.0000 0.6298186601
N   N4        1.0  0.85304  0.73770  0.64638  1.0000 -0.5891952395
H   H151      1.0  0.87577  0.67991  0.66753  1.0000 0.3303642984
H   H152      1.0  0.85304  0.79141  0.59918  1.0000 0.3214847267
N   N5        1.0  0.78308  0.83380  0.65363  1.0000 -0.6097756107
H   H153      1.0  0.76029  0.83862  0.67946  1.0000 0.3303642984
H   H154      1.0  0.78330  0.88726  0.60641  1.0000 0.3303642984
N   N6        1.0  0.81768  0.66150  0.75943  1.0000 -0.6000669538
H   H155      1.0  0.79493  0.66609  0.78535  1.0000 0.3303642984
H   H156      1.0  0.84028  0.60329  0.78072  1.0000 0.34027939
C   C34       1.0  0.81792  0.74390  0.68667  1.0000 0.6298186601
N   N7        1.0  0.60238  0.71985  0.89823  1.0000 -0.5891952395
H   H157      1.0  0.60217  0.66430  0.85171  1.0000 0.34027939
H   H158      1.0  0.62655  0.76946  0.92252  1.0000 0.3303642984
N   N8        1.0  0.56570  0.81459  0.00463  1.0000 -0.6097756107
H   H159      1.0  0.54176  0.82034  0.02694  1.0000 0.3303642984
H   H160      1.0  0.58987  0.86421  0.02892  1.0000 0.34027939
N   N9        1.0  0.52796  0.65246  0.89516  1.0000 -0.6000669538
H   H161      1.0  0.50404  0.65832  0.91756  1.0000 0.3303642984
H   H162      1.0  0.52768  0.59704  0.84854  1.0000 0.34027939
C   C35       1.0  0.56535  0.72900  0.93258  1.0000 0.6298186601
N   N10       1.0  0.35304  0.23770  0.64638  1.0000 -0.5891952395
H   H163      1.0  0.37577  0.17991  0.66753  1.0000 0.3303642984
H   H164      1.0  0.35304  0.29141  0.59918  1.0000 0.3214847267
N   N11       1.0  0.28308  0.33380  0.65363  1.0000 -0.6097756107
H   H165      1.0  0.26029  0.33862  0.67946  1.0000 0.3303642984
H   H166      1.0  0.28330  0.38726  0.60641  1.0000 0.3303642984
N   N12       1.0  0.31768  0.16150  0.75943  1.0000 -0.6000669538
H   H167      1.0  0.29493  0.16609  0.78535  1.0000 0.3303642984
H   H168      1.0  0.34028  0.10329  0.78072  1.0000 0.34027939
C   C36       1.0  0.31792  0.24390  0.68667  1.0000 0.6298186601
N   N13       1.0  0.89762  0.21985  0.60177  1.0000 -0.5891952395
H   H169      1.0  0.89783  0.16430  0.64829  1.0000 0.34027939
H   H170      1.0  0.87345  0.26946  0.57748  1.0000 0.3303642984
N   N14       1.0  0.93430  0.31459  0.49537  1.0000 -0.6000669538
H   H171      1.0  0.95824  0.32034  0.47306  1.0000 0.3303642984
H   H172      1.0  0.91013  0.36421  0.47108  1.0000 0.34027939
N   N15       1.0  0.97204  0.15246  0.60484  1.0000 -0.6000669538
H   H173      1.0  0.99596  0.15832  0.58245  1.0000 0.3303642984
H   H174      1.0  0.97232  0.09704  0.65146  1.0000 0.34027939
C   C37       1.0  0.93465  0.22900  0.56742  1.0000 0.6298186601
N   N16       1.0  0.14696  0.73770  0.85362  1.0000 -0.5891952395
H   H175      1.0  0.12423  0.67991  0.83247  1.0000 0.3303642984
H   H176      1.0  0.14696  0.79141  0.90082  1.0000 0.3214847267
N   N17       1.0  0.21692  0.83380  0.84637  1.0000 -0.6097756107
H   H177      1.0  0.23971  0.83862  0.82054  1.0000 0.3303642984
H   H178      1.0  0.21670  0.88726  0.89359  1.0000 0.3303642984
N   N18       1.0  0.18232  0.66150  0.74057  1.0000 -0.6000669538
H   H179      1.0  0.20507  0.66609  0.71465  1.0000 0.3303642984
H   H180      1.0  0.15972  0.60329  0.71928  1.0000 0.34027939
C   C38       1.0  0.18208  0.74390  0.81333  1.0000 0.6298186601
N   N19       1.0  0.39762  0.71985  0.60177  1.0000 -0.5891952395
H   H181      1.0  0.39783  0.66430  0.64829  1.0000 0.34027939
H   H182      1.0  0.37345  0.76946  0.57748  1.0000 0.3303642984
N   N20       1.0  0.43430  0.81459  0.49537  1.0000 -0.6000669538
H   H183      1.0  0.45824  0.82034  0.47306  1.0000 0.3303642984
H   H184      1.0  0.41013  0.86421  0.47108  1.0000 0.34027939
N   N21       1.0  0.47204  0.65246  0.60484  1.0000 -0.6000669538
H   H185      1.0  0.49596  0.65832  0.58245  1.0000 0.3303642984
H   H186      1.0  0.47232  0.59704  0.65146  1.0000 0.34027939
C   C39       1.0  0.43465  0.72900  0.56742  1.0000 0.6298186601
N   N22       1.0  0.64696  0.23770  0.85362  1.0000 -0.5891952395
H   H187      1.0  0.62424  0.17991  0.83247  1.0000 0.3303642984
H   H188      1.0  0.64696  0.29141  0.90082  1.0000 0.3214847267
N   N23       1.0  0.71692  0.33380  0.84637  1.0000 -0.6097756107
H   H189      1.0  0.73971  0.33862  0.82054  1.0000 0.3303642984
H   H190      1.0  0.71670  0.38726  0.89359  1.0000 0.3303642984
N   N24       1.0  0.68232  0.16150  0.74057  1.0000 -0.6000669538
H   H191      1.0  0.70508  0.16609  0.71465  1.0000 0.3303642984
H   H192      1.0  0.65972  0.10329  0.71928  1.0000 0.34027939
C   C40       1.0  0.68208  0.24390  0.81333  1.0000 0.6298186601
N   N25       1.0  0.89762  0.78015  0.10177  1.0000 -0.5891952395
H   H193      1.0  0.89783  0.83570  0.14829  1.0000 0.34027939
H   H194      1.0  0.87345  0.73054  0.07748  1.0000 0.3303642984
N   N26       1.0  0.93430  0.68541  0.99537  1.0000 -0.6097756107
H   H195      1.0  0.95824  0.67966  0.97306  1.0000 0.3303642984
H   H196      1.0  0.91013  0.63579  0.97108  1.0000 0.34027939
N   N27       1.0  0.97204  0.84754  0.10484  1.0000 -0.6000669538
H   H197      1.0  0.99596  0.84168  0.08244  1.0000 0.3303642984
H   H198      1.0  0.97232  0.90296  0.15146  1.0000 0.34027939
C   C41       1.0  0.93465  0.77100  0.06742  1.0000 0.6298186601
N   N28       1.0  0.14696  0.26230  0.35362  1.0000 -0.5891952395
H   H199      1.0  0.12423  0.32009  0.33247  1.0000 0.3303642984
H   H200      1.0  0.14696  0.20859  0.40082  1.0000 0.3214847267
N   N29       1.0  0.21692  0.16620  0.34637  1.0000 -0.6097756107
H   H201      1.0  0.23971  0.16138  0.32054  1.0000 0.3303642984
H   H202      1.0  0.21670  0.11274  0.39359  1.0000 0.3303642984
N   N30       1.0  0.18232  0.33850  0.24057  1.0000 -0.6000669538
H   H203      1.0  0.20507  0.33391  0.21465  1.0000 0.3303642984
H   H204      1.0  0.15972  0.39671  0.21928  1.0000 0.34027939
C   C42       1.0  0.18208  0.25610  0.31333  1.0000 0.6298186601
N   N31       1.0  0.39762  0.28015  0.10177  1.0000 -0.5891952395
H   H205      1.0  0.39783  0.33570  0.14829  1.0000 0.34027939
H   H206      1.0  0.37345  0.23054  0.07748  1.0000 0.3303642984
N   N32       1.0  0.43430  0.18541  0.99537  1.0000 -0.6097756107
H   H207      1.0  0.45824  0.17966  0.97306  1.0000 0.3303642984
H   H208      1.0  0.41013  0.13579  0.97108  1.0000 0.34027939
N   N33       1.0  0.47204  0.34754  0.10484  1.0000 -0.6000669538
H   H209      1.0  0.49596  0.34168  0.08245  1.0000 0.3303642984
H   H210      1.0  0.47232  0.40296  0.15146  1.0000 0.34027939
C   C43       1.0  0.43465  0.27100  0.06742  1.0000 0.6298186601
N   N34       1.0  0.64696  0.76230  0.35362  1.0000 -0.5891952395
H   H211      1.0  0.62424  0.82009  0.33247  1.0000 0.3303642984
H   H212      1.0  0.64696  0.70859  0.40082  1.0000 0.3214847267
N   N35       1.0  0.71692  0.66620  0.34637  1.0000 -0.6097756107
H   H213      1.0  0.73971  0.66138  0.32054  1.0000 0.3303642984
H   H214      1.0  0.71670  0.61274  0.39359  1.0000 0.3303642984
N   N36       1.0  0.68232  0.83850  0.24057  1.0000 -0.6000669538
H   H215      1.0  0.70508  0.83391  0.21465  1.0000 0.3303642984
H   H216      1.0  0.65972  0.89671  0.21928  1.0000 0.34027939
C   C44       1.0  0.68208  0.75610  0.31333  1.0000 0.6298186601
N   N37       1.0  0.10238  0.78015  0.39823  1.0000 -0.5891952395
H   H217      1.0  0.10217  0.83570  0.35171  1.0000 0.34027939
H   H218      1.0  0.12655  0.73054  0.42252  1.0000 0.3303642984
N   N38       1.0  0.06570  0.68541  0.50463  1.0000 -0.6000669538
H   H219      1.0  0.04176  0.67966  0.52694  1.0000 0.3303642984
H   H220      1.0  0.08987  0.63579  0.52892  1.0000 0.34027939
N   N39       1.0  0.02796  0.84754  0.39516  1.0000 -0.6000669538
H   H221      1.0  0.00404  0.84168  0.41756  1.0000 0.3303642984
H   H222      1.0  0.02768  0.90296  0.34854  1.0000 0.34027939
C   C45       1.0  0.06535  0.77100  0.43258  1.0000 0.6298186601
N   N40       1.0  0.85304  0.26230  0.14638  1.0000 -0.5891952395
H   H223      1.0  0.87577  0.32009  0.16753  1.0000 0.3303642984
H   H224      1.0  0.85304  0.20859  0.09918  1.0000 0.3214847267
N   N41       1.0  0.78308  0.16620  0.15363  1.0000 -0.6097756107
H   H225      1.0  0.76029  0.16138  0.17946  1.0000 0.3303642984
H   H226      1.0  0.78330  0.11274  0.10641  1.0000 0.3303642984
N   N42       1.0  0.81768  0.33850  0.25943  1.0000 -0.6000669538
H   H227      1.0  0.79493  0.33391  0.28535  1.0000 0.3303642984
H   H228      1.0  0.84028  0.39671  0.28072  1.0000 0.34027939
C   C46       1.0  0.81792  0.25610  0.18667  1.0000 0.6298186601
N   N43       1.0  0.60238  0.28015  0.39823  1.0000 -0.5891952395
H   H229      1.0  0.60217  0.33570  0.35171  1.0000 0.34027939
H   H230      1.0  0.62655  0.23054  0.42252  1.0000 0.3303642984
N   N44       1.0  0.56570  0.18541  0.50463  1.0000 -0.6000669538
H   H231      1.0  0.54176  0.17966  0.52694  1.0000 0.3303642984
H   H232      1.0  0.58987  0.13579  0.52892  1.0000 0.34027939
N   N45       1.0  0.52796  0.34754  0.39516  1.0000 -0.6000669538
H   H233      1.0  0.50404  0.34168  0.41756  1.0000 0.3303642984
H   H234      1.0  0.52768  0.40296  0.34854  1.0000 0.34027939
C   C47       1.0  0.56535  0.27100  0.43258  1.0000 0.6298186601
N   N46       1.0  0.35304  0.76230  0.14638  1.0000 -0.5891952395
H   H235      1.0  0.37577  0.82009  0.16753  1.0000 0.3303642984
H   H236      1.0  0.35304  0.70859  0.09918  1.0000 0.3214847267
N   N47       1.0  0.28308  0.66620  0.15363  1.0000 -0.6097756107
H   H237      1.0  0.26029  0.66138  0.17946  1.0000 0.3303642984
H   H238      1.0  0.28330  0.61274  0.10641  1.0000 0.3303642984
N   N48       1.0  0.31768  0.83850  0.25943  1.0000 -0.6000669538
H   H239      1.0  0.29493  0.83391  0.28535  1.0000 0.3303642984
H   H240      1.0  0.34028  0.89671  0.28072  1.0000 0.34027939
C   C48       1.0  0.31792  0.75610  0.18667  1.0000 0.6298186601
  C   C49       1.0  0.31396  0.49840  0.43851  1.0000
  C   C50       1.0  0.58027  0.52856  0.18946  1.0000
  C   C51       1.0  0.44185  0.02374  0.28555  1.0000
  P   P17       1.0  0.41973  0.52856  0.31054  1.0000
  P   P18       1.0  0.55815  0.02374  0.21445  1.0000
  C   C52       1.0  0.81396  0.99840  0.43851  1.0000
  C   C53       1.0  0.08027  0.02856  0.18946  1.0000
  C   C54       1.0  0.94185  0.52374  0.28555  1.0000
  P   P19       1.0  0.91973  0.02856  0.31054  1.0000
  P   P20       1.0  0.05815  0.52374  0.21445  1.0000
  C   C55       1.0  0.68604  0.49840  0.06149  1.0000
  C   C56       1.0  0.18604  0.99840  0.06149  1.0000
  C   C57       1.0  0.68604  0.50160  0.56149  1.0000
  C   C58       1.0  0.41973  0.47144  0.81054  1.0000
  C   C59       1.0  0.55815  0.97626  0.71445  1.0000
  P   P21       1.0  0.58027  0.47144  0.68946  1.0000
  P   P22       1.0  0.44185  0.97626  0.78555  1.0000
  C   C60       1.0  0.18604  0.00160  0.56149  1.0000
  C   C61       1.0  0.91973  0.97144  0.81054  1.0000
  C   C62       1.0  0.05815  0.47626  0.71445  1.0000
  P   P23       1.0  0.08027  0.97144  0.68946  1.0000
  P   P24       1.0  0.94185  0.47626  0.78555  1.0000
  C   C63       1.0  0.31396  0.50160  0.93851  1.0000
  C   C64       1.0  0.81396  0.00160  0.93851  1.0000
