# DDEC6 charges by PACMAN v1.1 (https://github.com/mtap-research/PACMAN-charge/)
data_AGIREP_ASR_pacman
_symmetry_space_group_name_H-M   'P 1'
_cell_length_a   28.42450000
_cell_length_b   28.42450000
_cell_length_c   28.42450000
_cell_angle_alpha   139.36500000
_cell_angle_beta   118.40500000
_cell_angle_gamma   76.43310000
_symmetry_Int_Tables_number   1
_chemical_formula_structural   Zn12H18C54O47
_chemical_formula_sum   'Zn48 H72 C216 O188'
_cell_volume   12831.13572095
_cell_formula_units_Z   4
loop_
 _symmetry_equiv_pos_site_id
 _symmetry_equiv_pos_as_xyz
  1  'x, y, z'
loop_
 _atom_site_type_symbol
 _atom_site_label
 _atom_site_symmetry_multiplicity
 _atom_site_fract_x
 _atom_site_fract_y
 _atom_site_fract_z
 _atom_site_occupancy
 _atom_site_charge
Zn  Zn1  1  0.59295000  0.39165000  0.79870000  1.0 0.8478181452
Zn  Zn2  1  0.40705000  0.60835000  0.20130000  1.0 0.8478181452
Zn  Zn3  1  0.90705000  0.20575000  0.29870000  1.0 0.8478181452
Zn  Zn4  1  0.09295000  0.79425000  0.70130000  1.0 0.8478181452
Zn  Zn5  1  0.60426000  0.24091000  0.63665000  1.0 0.7699123711
Zn  Zn6  1  0.39574000  0.75909000  0.36335000  1.0 0.7699123711
Zn  Zn7  1  0.89574000  0.03239000  0.13665000  1.0 0.7699123711
Zn  Zn8  1  0.10426000  0.96761000  0.86335000  1.0 0.7699123711
Zn  Zn9  1  0.68078000  0.87384000  0.32320000  1.0 0.9152842254
Zn  Zn10  1  0.44936000  0.12616000  0.80694000  1.0 0.9152842254
Zn  Zn11  1  0.81922000  0.64242000  0.69306000  1.0 0.9152842254
Zn  Zn12  1  0.05064000  0.35758000  0.17680000  1.0 0.9152842254
Zn  Zn13  1  0.31922000  0.12616000  0.67680000  1.0 0.9152842254
Zn  Zn14  1  0.55064000  0.87384000  0.19306000  1.0 0.9152842254
Zn  Zn15  1  0.18078000  0.35758000  0.30694000  1.0 0.9152842254
Zn  Zn16  1  0.94936000  0.64242000  0.82320000  1.0 0.9152842254
Zn  Zn17  1  0.57581000  0.73674000  0.16093000  1.0 0.9964716226
Zn  Zn18  1  0.42419000  0.26326000  0.83907000  1.0 0.9964716226
Zn  Zn19  1  0.92419000  0.58512000  0.66093000  1.0 0.9964716226
Zn  Zn20  1  0.07581000  0.41488000  0.33907000  1.0 0.9964716226
Zn  Zn21  1  0.28290000  0.03290000  0.25000000  1.0 0.9332240313
Zn  Zn22  1  0.21710000  0.96710000  0.25000000  1.0 0.9332240313
Zn  Zn23  1  0.71710000  0.96710000  0.75000000  1.0 0.9332240313
Zn  Zn24  1  0.78290000  0.03290000  0.75000000  1.0 0.9332240313
Zn  Zn25  1  0.97935000  0.80750000  0.32195000  1.0 0.9374554247
Zn  Zn26  1  0.51445000  0.19250000  0.17185000  1.0 0.9374554247
Zn  Zn27  1  0.52065000  0.34260000  0.32815000  1.0 0.9374554247
Zn  Zn28  1  0.98555000  0.65740000  0.17805000  1.0 0.9374554247
Zn  Zn29  1  0.02065000  0.19250000  0.67805000  1.0 0.9374554247
Zn  Zn30  1  0.48555000  0.80750000  0.82815000  1.0 0.9374554247
Zn  Zn31  1  0.47935000  0.65740000  0.67185000  1.0 0.9374554247
Zn  Zn32  1  0.01445000  0.34260000  0.82195000  1.0 0.9374554247
Zn  Zn33  1  0.69734000  0.35227000  0.79591000  1.0 0.5521651447
Zn  Zn34  1  0.44364000  0.64773000  0.34507000  1.0 0.5521651447
Zn  Zn35  1  0.80266000  0.09857000  0.15493000  1.0 0.5521651447
Zn  Zn36  1  0.05636000  0.90143000  0.70409000  1.0 0.5521651447
Zn  Zn37  1  0.30266000  0.64773000  0.20409000  1.0 0.5521651447
Zn  Zn38  1  0.55636000  0.35227000  0.65493000  1.0 0.5521651447
Zn  Zn39  1  0.19734000  0.90143000  0.84507000  1.0 0.5521651447
Zn  Zn40  1  0.94364000  0.09857000  0.29591000  1.0 0.5521651447
Zn  Zn41  1  0.69303000  0.39093000  0.77414000  1.0 0.612172538
Zn  Zn42  1  0.38321000  0.60907000  0.30210000  1.0 0.612172538
Zn  Zn43  1  0.80697000  0.08111000  0.19790000  1.0 0.612172538
Zn  Zn44  1  0.11679000  0.91889000  0.72586000  1.0 0.612172538
Zn  Zn45  1  0.30697000  0.60907000  0.22586000  1.0 0.612172538
Zn  Zn46  1  0.61679000  0.39093000  0.69790000  1.0 0.612172538
Zn  Zn47  1  0.19303000  0.91889000  0.80210000  1.0 0.612172538
Zn  Zn48  1  0.88321000  0.08111000  0.27414000  1.0 0.612172538
H  H1  1  0.81120000  0.56670000  0.03950000  1.0 0.120238205
H  H2  1  0.47280000  0.43330000  0.24450000  1.0 0.120238205
H  H3  1  0.68880000  0.22830000  0.25550000  1.0 0.120238205
H  H4  1  0.02720000  0.77170000  0.46050000  1.0 0.120238205
H  H5  1  0.18880000  0.43330000  0.96050000  1.0 0.120238205
H  H6  1  0.52720000  0.56670000  0.75550000  1.0 0.120238205
H  H7  1  0.31120000  0.77170000  0.74450000  1.0 0.120238205
H  H8  1  0.97280000  0.22830000  0.53950000  1.0 0.120238205
H  H9  1  0.80490000  0.76260000  0.24150000  1.0 0.129451833
H  H10  1  0.47890000  0.23740000  0.04230000  1.0 0.129451833
H  H11  1  0.69510000  0.43660000  0.45770000  1.0 0.129451833
H  H12  1  0.02110000  0.56340000  0.25850000  1.0 0.129451833
H  H13  1  0.19510000  0.23740000  0.75850000  1.0 0.129451833
H  H14  1  0.52110000  0.76260000  0.95770000  1.0 0.129451833
H  H15  1  0.30490000  0.56340000  0.54230000  1.0 0.129451833
H  H16  1  0.97890000  0.43660000  0.74150000  1.0 0.129451833
H  H17  1  0.66820000  0.60160000  0.04500000  1.0 0.129451833
H  H18  1  0.44340000  0.39840000  0.06660000  1.0 0.129451833
H  H19  1  0.83180000  0.37680000  0.43340000  1.0 0.129451833
H  H20  1  0.05660000  0.62320000  0.45500000  1.0 0.129451833
H  H21  1  0.33180000  0.39840000  0.95500000  1.0 0.129451833
H  H22  1  0.55660000  0.60160000  0.93340000  1.0 0.129451833
H  H23  1  0.16820000  0.62320000  0.56660000  1.0 0.129451833
H  H24  1  0.94340000  0.37680000  0.54500000  1.0 0.129451833
H  H25  1  0.40520000  0.19190000  0.50270000  1.0 0.129451833
H  H26  1  0.31080000  0.80810000  0.21330000  1.0 0.129451833
H  H27  1  0.09480000  0.09750000  0.28670000  1.0 0.129451833
H  H28  1  0.18920000  0.90250000  0.99730000  1.0 0.129451833
H  H29  1  0.59480000  0.80810000  0.49730000  1.0 0.129451833
H  H30  1  0.68920000  0.19190000  0.78670000  1.0 0.129451833
H  H31  1  0.90520000  0.90250000  0.71330000  1.0 0.129451833
H  H32  1  0.81080000  0.09750000  0.00270000  1.0 0.129451833
H  H33  1  0.44860000  0.27590000  0.71510000  1.0 0.129451833
H  H34  1  0.43920000  0.72410000  0.17270000  1.0 0.129451833
H  H35  1  0.05140000  0.26650000  0.32730000  1.0 0.129451833
H  H36  1  0.06080000  0.73350000  0.78490000  1.0 0.129451833
H  H37  1  0.55140000  0.72410000  0.28490000  1.0 0.129451833
H  H38  1  0.56080000  0.27590000  0.82730000  1.0 0.129451833
H  H39  1  0.94860000  0.73350000  0.67270000  1.0 0.129451833
H  H40  1  0.93920000  0.26650000  0.21510000  1.0 0.129451833
H  H41  1  0.31270000  0.11670000  0.51460000  1.0 0.129451833
H  H42  1  0.39790000  0.88330000  0.19600000  1.0 0.129451833
H  H43  1  0.18730000  0.20190000  0.30400000  1.0 0.129451833
H  H44  1  0.10210000  0.79810000  0.98540000  1.0 0.129451833
H  H45  1  0.68730000  0.88330000  0.48540000  1.0 0.129451833
H  H46  1  0.60210000  0.11670000  0.80400000  1.0 0.129451833
H  H47  1  0.81270000  0.79810000  0.69600000  1.0 0.129451833
H  H48  1  0.89790000  0.20190000  0.01460000  1.0 0.129451833
H  H49  1  0.92360000  0.82670000  0.03430000  1.0 0.129451833
H  H50  1  0.20760000  0.17330000  0.09690000  1.0 0.129451833
H  H51  1  0.57640000  0.11070000  0.40310000  1.0 0.129451833
H  H52  1  0.29240000  0.88930000  0.46570000  1.0 0.129451833
H  H53  1  0.07640000  0.17330000  0.96570000  1.0 0.129451833
H  H54  1  0.79240000  0.82670000  0.90310000  1.0 0.129451833
H  H55  1  0.42360000  0.88930000  0.59690000  1.0 0.129451833
H  H56  1  0.70760000  0.11070000  0.53430000  1.0 0.129451833
H  H57  1  0.94070000  0.89590000  0.22920000  1.0 0.129451833
H  H58  1  0.33333333  0.10410000  0.04480000  1.0 0.129451833
H  H59  1  0.55930000  0.28850000  0.45520000  1.0 0.129451833
H  H60  1  0.16670000  0.71150000  0.27080000  1.0 0.129451833
H  H61  1  0.05930000  0.10410000  0.77080000  1.0 0.129451833
H  H62  1  0.66666667  0.89590000  0.95520000  1.0 0.129451833
H  H63  1  0.44070000  0.71150000  0.54480000  1.0 0.129451833
H  H64  1  0.83330000  0.28850000  0.72920000  1.0 0.129451833
H  H65  1  0.95590000  0.69070000  0.04680000  1.0 0.120238205
H  H66  1  0.35610000  0.30930000  0.26520000  1.0 0.120238205
H  H67  1  0.54410000  0.09090000  0.23480000  1.0 0.120238205
H  H68  1  0.14390000  0.90910000  0.45320000  1.0 0.120238205
H  H69  1  0.04410000  0.30930000  0.95320000  1.0 0.120238205
H  H70  1  0.64390000  0.69070000  0.73480000  1.0 0.120238205
H  H71  1  0.45590000  0.90910000  0.76520000  1.0 0.120238205
H  H72  1  0.85610000  0.09090000  0.54680000  1.0 0.120238205
C  C1  1  0.73490000  0.57209000  0.02721000  1.0 -0.0594708911
C  C2  1  0.45512000  0.42791000  0.16281000  1.0 -0.0594708911
C  C3  1  0.76510000  0.29231000  0.33719000  1.0 -0.0594708911
C  C4  1  0.04488000  0.70769000  0.47279000  1.0 -0.0594708911
C  C5  1  0.26510000  0.42791000  0.97279000  1.0 -0.0594708911
C  C6  1  0.54488000  0.57209000  0.83719000  1.0 -0.0594708911
C  C7  1  0.23490000  0.70769000  0.66281000  1.0 -0.0594708911
C  C8  1  0.95512000  0.29231000  0.52721000  1.0 -0.0594708911
C  C9  1  0.79111000  0.59782000  0.06729000  1.0 -0.0984976761
C  C10  1  0.46947000  0.40218000  0.19329000  1.0 -0.0984976761
C  C11  1  0.70889000  0.27618000  0.30671000  1.0 -0.0984976761
C  C12  1  0.03053000  0.72382000  0.43271000  1.0 -0.0984976761
C  C13  1  0.20889000  0.40218000  0.93271000  1.0 -0.0984976761
C  C14  1  0.53053000  0.59782000  0.80671000  1.0 -0.0984976761
C  C15  1  0.29111000  0.72382000  0.69329000  1.0 -0.0984976761
C  C16  1  0.96947000  0.27618000  0.56729000  1.0 -0.0984976761
C  C17  1  0.81773000  0.66801000  0.14692000  1.0 -0.028678594
C  C18  1  0.47891000  0.33199000  0.14972000  1.0 -0.028678594
C  C19  1  0.68227000  0.32919000  0.35028000  1.0 -0.028678594
C  C20  1  0.02109000  0.67081000  0.35308000  1.0 -0.028678594
C  C21  1  0.18227000  0.33199000  0.85308000  1.0 -0.028678594
C  C22  1  0.52109000  0.66801000  0.85028000  1.0 -0.028678594
C  C23  1  0.31773000  0.67081000  0.64972000  1.0 -0.028678594
C  C24  1  0.97891000  0.32919000  0.64692000  1.0 -0.028678594
C  C25  1  0.78748000  0.71473000  0.18815000  1.0 -0.0984976761
C  C26  1  0.47342000  0.28527000  0.07275000  1.0 -0.0984976761
C  C27  1  0.71252000  0.40067000  0.42725000  1.0 -0.0984976761
C  C28  1  0.02658000  0.59933000  0.31185000  1.0 -0.0984976761
C  C29  1  0.21252000  0.28527000  0.81185000  1.0 -0.0984976761
C  C30  1  0.52658000  0.71473000  0.92725000  1.0 -0.0984976761
C  C31  1  0.28748000  0.59933000  0.57275000  1.0 -0.0984976761
C  C32  1  0.97342000  0.40067000  0.68815000  1.0 -0.0984976761
C  C33  1  0.73153000  0.69056000  0.15037000  1.0 -0.028678594
C  C34  1  0.45981000  0.30944000  0.04097000  1.0 -0.028678594
C  C35  1  0.76847000  0.41884000  0.45903000  1.0 -0.028678594
C  C36  1  0.04019000  0.58116000  0.34963000  1.0 -0.028678594
C  C37  1  0.26847000  0.30944000  0.84963000  1.0 -0.028678594
C  C38  1  0.54019000  0.69056000  0.95903000  1.0 -0.028678594
C  C39  1  0.23153000  0.58116000  0.54097000  1.0 -0.028678594
C  C40  1  0.95981000  0.41884000  0.65037000  1.0 -0.028678594
C  C41  1  0.70550000  0.61853000  0.06997000  1.0 -0.0984976761
C  C42  1  0.45144000  0.38147000  0.08697000  1.0 -0.0984976761
C  C43  1  0.79450000  0.36447000  0.41303000  1.0 -0.0984976761
C  C44  1  0.04856000  0.63553000  0.43003000  1.0 -0.0984976761
C  C45  1  0.29450000  0.38147000  0.93003000  1.0 -0.0984976761
C  C46  1  0.54856000  0.61853000  0.91303000  1.0 -0.0984976761
C  C47  1  0.20550000  0.63553000  0.58697000  1.0 -0.0984976761
C  C48  1  0.95144000  0.36447000  0.56997000  1.0 -0.0984976761
C  C49  1  0.70496000  0.49734000  0.94042000  1.0 0.4638740547
C  C50  1  0.44308000  0.50266000  0.20762000  1.0 0.4638740547
C  C51  1  0.79504000  0.23546000  0.29238000  1.0 0.4638740547
C  C52  1  0.05692000  0.76454000  0.55958000  1.0 0.4638740547
C  C53  1  0.29504000  0.50266000  0.05958000  1.0 0.4638740547
C  C54  1  0.55692000  0.49734000  0.79238000  1.0 0.4638740547
C  C55  1  0.20496000  0.76454000  0.70762000  1.0 0.4638740547
C  C56  1  0.94308000  0.23546000  0.44042000  1.0 0.4638740547
C  C57  1  0.87865000  0.69444000  0.18921000  1.0 0.5921495721
C  C58  1  0.49477000  0.30556000  0.18421000  1.0 0.5921495721
C  C59  1  0.62135000  0.31056000  0.31579000  1.0 0.5921495721
C  C60  1  0.00523000  0.68944000  0.31079000  1.0 0.5921495721
C  C61  1  0.12135000  0.30556000  0.81079000  1.0 0.5921495721
C  C62  1  0.50523000  0.69444000  0.81579000  1.0 0.5921495721
C  C63  1  0.37865000  0.68944000  0.68421000  1.0 0.5921495721
C  C64  1  0.99477000  0.31056000  0.68921000  1.0 0.5921495721
C  C65  1  0.69664000  0.73984000  0.19260000  1.0 0.5843889803
C  C66  1  0.45276000  0.26016000  0.95680000  1.0 0.5843889803
C  C67  1  0.80336000  0.49596000  0.54320000  1.0 0.5843889803
C  C68  1  0.04724000  0.50404000  0.30740000  1.0 0.5843889803
C  C69  1  0.30336000  0.26016000  0.80740000  1.0 0.5843889803
C  C70  1  0.54724000  0.73984000  0.04320000  1.0 0.5843889803
C  C71  1  0.19664000  0.50404000  0.45680000  1.0 0.5843889803
C  C72  1  0.95276000  0.49596000  0.69260000  1.0 0.5843889803
C  C73  1  0.35240000  0.14566000  0.49374000  1.0 -0.0420534414
C  C74  1  0.34808000  0.85434000  0.20674000  1.0 -0.0420534414
C  C75  1  0.14760000  0.14134000  0.29326000  1.0 -0.0420534414
C  C76  1  0.15192000  0.85866000  0.00626000  1.0 -0.0420534414
C  C77  1  0.64760000  0.85434000  0.50626000  1.0 -0.0420534414
C  C78  1  0.65192000  0.14566000  0.79326000  1.0 -0.0420534414
C  C79  1  0.85240000  0.85866000  0.70674000  1.0 -0.0420534414
C  C80  1  0.84808000  0.14134000  0.99374000  1.0 -0.0420534414
C  C81  1  0.39879000  0.19259000  0.53240000  1.0 -0.0887382774
C  C82  1  0.33981000  0.80741000  0.20620000  1.0 -0.0887382774
C  C83  1  0.10121000  0.13361000  0.29380000  1.0 -0.0887382774
C  C84  1  0.16019000  0.86639000  0.96760000  1.0 -0.0887382774
C  C85  1  0.60121000  0.80741000  0.46760000  1.0 -0.0887382774
C  C86  1  0.66019000  0.19259000  0.79380000  1.0 -0.0887382774
C  C87  1  0.89879000  0.86639000  0.70620000  1.0 -0.0887382774
C  C88  1  0.83981000  0.13361000  0.03240000  1.0 -0.0887382774
C  C89  1  0.43554000  0.24054000  0.61500000  1.0 -0.0420534414
C  C90  1  0.37446000  0.75946000  0.19500000  1.0 -0.0420534414
C  C91  1  0.06446000  0.17946000  0.30500000  1.0 -0.0420534414
C  C92  1  0.12554000  0.82054000  0.88500000  1.0 -0.0420534414
C  C93  1  0.56446000  0.75946000  0.38500000  1.0 -0.0420534414
C  C94  1  0.62554000  0.24054000  0.80500000  1.0 -0.0420534414
C  C95  1  0.93554000  0.82054000  0.69500000  1.0 -0.0420534414
C  C96  1  0.87446000  0.17946000  0.11500000  1.0 -0.0420534414
C  C97  1  0.42462000  0.24287000  0.65955000  1.0 -0.0887382774
C  C98  1  0.41668000  0.75713000  0.18175000  1.0 -0.0887382774
C  C99  1  0.07538000  0.23493000  0.31825000  1.0 -0.0887382774
C  C100  1  0.08332000  0.76507000  0.84045000  1.0 -0.0887382774
C  C101  1  0.57538000  0.75713000  0.34045000  1.0 -0.0887382774
C  C102  1  0.58332000  0.24287000  0.81825000  1.0 -0.0887382774
C  C103  1  0.92462000  0.76507000  0.68175000  1.0 -0.0887382774
C  C104  1  0.91668000  0.23493000  0.15955000  1.0 -0.0887382774
C  C105  1  0.37922000  0.19747000  0.62315000  1.0 -0.0420534414
C  C106  1  0.42568000  0.80253000  0.18175000  1.0 -0.0420534414
C  C107  1  0.12078000  0.24393000  0.31825000  1.0 -0.0420534414
C  C108  1  0.07432000  0.75607000  0.87685000  1.0 -0.0420534414
C  C109  1  0.62078000  0.80253000  0.37685000  1.0 -0.0420534414
C  C110  1  0.57432000  0.19747000  0.81825000  1.0 -0.0420534414
C  C111  1  0.87922000  0.75607000  0.68175000  1.0 -0.0420534414
C  C112  1  0.92568000  0.24393000  0.12315000  1.0 -0.0420534414
C  C113  1  0.34320000  0.14820000  0.53980000  1.0 -0.0831192344
C  C114  1  0.39160000  0.85180000  0.19500000  1.0 -0.0831192344
C  C115  1  0.15680000  0.19660000  0.30500000  1.0 -0.0831192344
C  C116  1  0.10840000  0.80340000  0.96020000  1.0 -0.0831192344
C  C117  1  0.65680000  0.85180000  0.46020000  1.0 -0.0831192344
C  C118  1  0.60840000  0.14820000  0.80500000  1.0 -0.0831192344
C  C119  1  0.84320000  0.80340000  0.69500000  1.0 -0.0831192344
C  C120  1  0.89160000  0.19660000  0.03980000  1.0 -0.0831192344
C  C121  1  0.31424000  0.09311000  0.40473000  1.0 0.5921495721
C  C122  1  0.31162000  0.90689000  0.22113000  1.0 0.5921495721
C  C123  1  0.18576000  0.09049000  0.27887000  1.0 0.5921495721
C  C124  1  0.18838000  0.90951000  0.09527000  1.0 0.5921495721
C  C125  1  0.68576000  0.90689000  0.59527000  1.0 0.5921495721
C  C126  1  0.68838000  0.09311000  0.77887000  1.0 0.5921495721
C  C127  1  0.81424000  0.90951000  0.72113000  1.0 0.5921495721
C  C128  1  0.81162000  0.09049000  0.90473000  1.0 0.5921495721
C  C129  1  0.48702000  0.28752000  0.65510000  1.0 0.4638740547
C  C130  1  0.36758000  0.71248000  0.19950000  1.0 0.4638740547
C  C131  1  0.01298000  0.16808000  0.30050000  1.0 0.4638740547
C  C132  1  0.13242000  0.83192000  0.84490000  1.0 0.4638740547
C  C133  1  0.51298000  0.71248000  0.34490000  1.0 0.4638740547
C  C134  1  0.63242000  0.28752000  0.80050000  1.0 0.4638740547
C  C135  1  0.98702000  0.83192000  0.69950000  1.0 0.4638740547
C  C136  1  0.86758000  0.16808000  0.15510000  1.0 0.4638740547
C  C137  1  0.37152000  0.19717000  0.67115000  1.0 0.5921495721
C  C138  1  0.47398000  0.80283000  0.17435000  1.0 0.5921495721
C  C139  1  0.12848000  0.29963000  0.32565000  1.0 0.5921495721
C  C140  1  0.02602000  0.70037000  0.82885000  1.0 0.5921495721
C  C141  1  0.62848000  0.80283000  0.32885000  1.0 0.5921495721
C  C142  1  0.52602000  0.19717000  0.82565000  1.0 0.5921495721
C  C143  1  0.87152000  0.70037000  0.67435000  1.0 0.5921495721
C  C144  1  0.97398000  0.29963000  0.17115000  1.0 0.5921495721
C  C145  1  0.94121000  0.75031000  0.02970000  1.0 -0.0594708911
C  C146  1  0.27939000  0.24969000  0.19090000  1.0 -0.0594708911
C  C147  1  0.55879000  0.08849000  0.30910000  1.0 -0.0594708911
C  C148  1  0.22061000  0.91151000  0.47030000  1.0 -0.0594708911
C  C149  1  0.05879000  0.24969000  0.97030000  1.0 -0.0594708911
C  C150  1  0.72061000  0.75031000  0.80910000  1.0 -0.0594708911
C  C151  1  0.44121000  0.91151000  0.69090000  1.0 -0.0594708911
C  C152  1  0.77939000  0.08849000  0.52970000  1.0 -0.0594708911
C  C153  1  0.93096000  0.81815000  0.06261000  1.0 -0.1220287293
C  C154  1  0.24446000  0.18185000  0.11281000  1.0 -0.1220287293
C  C155  1  0.56904000  0.13165000  0.38719000  1.0 -0.1220287293
C  C156  1  0.25554000  0.86835000  0.43739000  1.0 -0.1220287293
C  C157  1  0.06904000  0.18185000  0.93739000  1.0 -0.1220287293
C  C158  1  0.75554000  0.81815000  0.88719000  1.0 -0.1220287293
C  C159  1  0.43096000  0.86835000  0.61281000  1.0 -0.1220287293
C  C160  1  0.74446000  0.13165000  0.56261000  1.0 -0.1220287293
C  C161  1  0.93175000  0.87310000  0.13845000  1.0 -0.0420534414
C  C162  1  0.26535000  0.12690000  0.05865000  1.0 -0.0420534414
C  C163  1  0.56825000  0.20670000  0.44135000  1.0 -0.0420534414
C  C164  1  0.23465000  0.79330000  0.36155000  1.0 -0.0420534414
C  C165  1  0.06825000  0.12690000  0.86155000  1.0 -0.0420534414
C  C166  1  0.73465000  0.87310000  0.94135000  1.0 -0.0420534414
C  C167  1  0.43175000  0.79330000  0.55865000  1.0 -0.0420534414
C  C168  1  0.76535000  0.20670000  0.63845000  1.0 -0.0420534414
C  C169  1  0.94047000  0.85907000  0.17880000  1.0 -0.0984976761
C  C170  1  0.31973000  0.14093000  0.08140000  1.0 -0.0984976761
C  C171  1  0.55953000  0.23833000  0.41860000  1.0 -0.0984976761
C  C172  1  0.18027000  0.76167000  0.32120000  1.0 -0.0984976761
C  C173  1  0.05953000  0.14093000  0.82120000  1.0 -0.0984976761
C  C174  1  0.68027000  0.85907000  0.91860000  1.0 -0.0984976761
C  C175  1  0.44047000  0.76167000  0.58140000  1.0 -0.0984976761
C  C176  1  0.81973000  0.23833000  0.67880000  1.0 -0.0984976761
C  C177  1  0.94888000  0.79047000  0.14481000  1.0 -0.0420534414
C  C178  1  0.35434000  0.20953000  0.15841000  1.0 -0.0420534414
C  C179  1  0.55112000  0.19593000  0.34159000  1.0 -0.0420534414
C  C180  1  0.14566000  0.80407000  0.35519000  1.0 -0.0420534414
C  C181  1  0.05112000  0.20953000  0.85519000  1.0 -0.0420534414
C  C182  1  0.64566000  0.79047000  0.84159000  1.0 -0.0420534414
C  C183  1  0.44888000  0.80407000  0.65841000  1.0 -0.0420534414
C  C184  1  0.85434000  0.19593000  0.64481000  1.0 -0.0420534414
C  C185  1  0.94967000  0.73647000  0.06980000  1.0 -0.1079381614
C  C186  1  0.33333333  0.26353000  0.21320000  1.0 -0.1079381614
C  C187  1  0.55033000  0.12013000  0.28680000  1.0 -0.1079381614
C  C188  1  0.16667000  0.87987000  0.43020000  1.0 -0.1079381614
C  C189  1  0.05033000  0.26353000  0.93020000  1.0 -0.1079381614
C  C190  1  0.66666667  0.73647000  0.78680000  1.0 -0.1079381614
C  C191  1  0.44967000  0.87987000  0.71320000  1.0 -0.1079381614
C  C192  1  0.83333000  0.12013000  0.56980000  1.0 -0.1079381614
C  C193  1  0.94710000  0.69480000  0.95310000  1.0 0.4401435308
C  C194  1  0.25830000  0.30520000  0.25230000  1.0 0.4401435308
C  C195  1  0.55290000  0.00600000  0.24770000  1.0 0.4401435308
C  C196  1  0.24170000  0.99400000  0.54690000  1.0 0.4401435308
C  C197  1  0.05290000  0.30520000  0.04690000  1.0 0.4401435308
C  C198  1  0.74170000  0.69480000  0.74770000  1.0 0.4401435308
C  C199  1  0.44710000  0.99400000  0.75230000  1.0 0.4401435308
C  C200  1  0.75830000  0.00600000  0.45310000  1.0 0.4401435308
C  C201  1  0.92450000  0.94718000  0.17472000  1.0 0.4713322684
C  C202  1  0.22754000  0.05282000  0.97732000  1.0 0.4713322684
C  C203  1  0.57550000  0.25022000  0.52268000  1.0 0.4713322684
C  C204  1  0.27246000  0.74978000  0.32528000  1.0 0.4713322684
C  C205  1  0.07550000  0.05282000  0.82528000  1.0 0.4713322684
C  C206  1  0.77246000  0.94718000  0.02268000  1.0 0.4713322684
C  C207  1  0.42450000  0.74978000  0.47732000  1.0 0.4713322684
C  C208  1  0.72754000  0.25022000  0.67472000  1.0 0.4713322684
C  C209  1  0.96032000  0.77537000  0.18895000  1.0 0.5921495721
C  C210  1  0.41358000  0.22463000  0.18495000  1.0 0.5921495721
C  C211  1  0.53968000  0.22863000  0.31505000  1.0 0.5921495721
C  C212  1  0.08642000  0.77137000  0.31105000  1.0 0.5921495721
C  C213  1  0.03968000  0.22463000  0.81105000  1.0 0.5921495721
C  C214  1  0.58642000  0.77537000  0.81505000  1.0 0.5921495721
C  C215  1  0.46032000  0.77137000  0.68495000  1.0 0.5921495721
C  C216  1  0.91358000  0.22863000  0.68895000  1.0 0.5921495721
O  O1  1  0.65732000  0.47618000  0.91280000  1.0 -0.4519256748
O  O2  1  0.43662000  0.52382000  0.18114000  1.0 -0.4519256748
O  O3  1  0.84268000  0.25548000  0.31886000  1.0 -0.4519256748
O  O4  1  0.06338000  0.74452000  0.58720000  1.0 -0.4519256748
O  O5  1  0.34268000  0.52382000  0.08720000  1.0 -0.4519256748
O  O6  1  0.56338000  0.47618000  0.81886000  1.0 -0.4519256748
O  O7  1  0.15732000  0.74452000  0.68114000  1.0 -0.4519256748
O  O8  1  0.93662000  0.25548000  0.41280000  1.0 -0.4519256748
O  O9  1  0.73209000  0.45609000  0.90420000  1.0 -0.1431808233
O  O10  1  0.44811000  0.54391000  0.27600000  1.0 -0.1431808233
O  O11  1  0.76791000  0.17211000  0.22400000  1.0 -0.1431808233
O  O12  1  0.05189000  0.82789000  0.59580000  1.0 -0.1431808233
O  O13  1  0.26791000  0.54391000  0.09580000  1.0 -0.1431808233
O  O14  1  0.55189000  0.45609000  0.72400000  1.0 -0.1431808233
O  O15  1  0.23209000  0.82789000  0.77600000  1.0 -0.1431808233
O  O16  1  0.94811000  0.17211000  0.40420000  1.0 -0.1431808233
O  O17  1  0.90378000  0.64778000  0.14920000  1.0 -0.5625545293
O  O18  1  0.50142000  0.35222000  0.25600000  1.0 -0.5625545293
O  O19  1  0.59622000  0.24542000  0.24400000  1.0 -0.5625545293
O  O20  1  0.99858000  0.75458000  0.35080000  1.0 -0.5625545293
O  O21  1  0.09622000  0.35222000  0.85080000  1.0 -0.5625545293
O  O22  1  0.49858000  0.64778000  0.74400000  1.0 -0.5625545293
O  O23  1  0.40378000  0.75458000  0.75600000  1.0 -0.5625545293
O  O24  1  0.00142000  0.24542000  0.64920000  1.0 -0.5625545293
O  O25  1  0.89957000  0.76007000  0.25938000  1.0 -0.5416651626
O  O26  1  0.49931000  0.23993000  0.13950000  1.0 -0.5416651626
O  O27  1  0.60043000  0.35981000  0.36050000  1.0 -0.5416651626
O  O28  1  0.00069000  0.64019000  0.24062000  1.0 -0.5416651626
O  O29  1  0.10043000  0.23993000  0.74062000  1.0 -0.5416651626
O  O30  1  0.50069000  0.76007000  0.86050000  1.0 -0.5416651626
O  O31  1  0.39957000  0.64019000  0.63950000  1.0 -0.5416651626
O  O32  1  0.99931000  0.35981000  0.75938000  1.0 -0.5416651626
O  O33  1  0.72055000  0.80636000  0.26087000  1.0 -0.5416651626
O  O34  1  0.45451000  0.19364000  0.91419000  1.0 -0.5416651626
O  O35  1  0.77945000  0.54032000  0.58581000  1.0 -0.5416651626
O  O36  1  0.04549000  0.45968000  0.23913000  1.0 -0.5416651626
O  O37  1  0.27945000  0.19364000  0.73913000  1.0 -0.5416651626
O  O38  1  0.54549000  0.80636000  0.08581000  1.0 -0.5416651626
O  O39  1  0.22055000  0.45968000  0.41419000  1.0 -0.5416651626
O  O40  1  0.95451000  0.54032000  0.76087000  1.0 -0.5416651626
O  O41  1  0.65039000  0.71052000  0.15887000  1.0 -0.5105918817
O  O42  1  0.44835000  0.28948000  0.93987000  1.0 -0.5105918817
O  O43  1  0.84961000  0.50848000  0.56013000  1.0 -0.5105918817
O  O44  1  0.05165000  0.49152000  0.34113000  1.0 -0.5105918817
O  O45  1  0.34961000  0.28948000  0.84113000  1.0 -0.5105918817
O  O46  1  0.55165000  0.71052000  0.06013000  1.0 -0.5105918817
O  O47  1  0.15039000  0.49152000  0.43987000  1.0 -0.5105918817
O  O48  1  0.94835000  0.50848000  0.65887000  1.0 -0.5105918817
O  O49  1  0.27400000  0.05074000  0.37276000  1.0 -0.5416651626
O  O50  1  0.32202000  0.94926000  0.22326000  1.0 -0.5416651626
O  O51  1  0.22600000  0.09876000  0.27674000  1.0 -0.5416651626
O  O52  1  0.17798000  0.90124000  0.12724000  1.0 -0.5416651626
O  O53  1  0.72600000  0.94926000  0.62724000  1.0 -0.5416651626
O  O54  1  0.67798000  0.05074000  0.77674000  1.0 -0.5416651626
O  O55  1  0.77400000  0.90124000  0.72326000  1.0 -0.5416651626
O  O56  1  0.82202000  0.09876000  0.87276000  1.0 -0.5416651626
O  O57  1  0.32536000  0.09445000  0.36877000  1.0 -0.5299714416
O  O58  1  0.27432000  0.90555000  0.23091000  1.0 -0.5299714416
O  O59  1  0.17464000  0.04341000  0.26909000  1.0 -0.5299714416
O  O60  1  0.22568000  0.95659000  0.13123000  1.0 -0.5299714416
O  O61  1  0.67464000  0.90555000  0.63123000  1.0 -0.5299714416
O  O62  1  0.72568000  0.09445000  0.76909000  1.0 -0.5299714416
O  O63  1  0.82536000  0.95659000  0.73091000  1.0 -0.5299714416
O  O64  1  0.77432000  0.04341000  0.86877000  1.0 -0.5299714416
O  O65  1  0.51043000  0.24863000  0.60580000  1.0 -0.2393861659
O  O66  1  0.35717000  0.75137000  0.26180000  1.0 -0.2393861659
O  O67  1  0.98957000  0.09537000  0.23820000  1.0 -0.2393861659
O  O68  1  0.14283000  0.90463000  0.89420000  1.0 -0.2393861659
O  O69  1  0.48957000  0.75137000  0.39420000  1.0 -0.2393861659
O  O70  1  0.64283000  0.24863000  0.73820000  1.0 -0.2393861659
O  O71  1  0.01043000  0.90463000  0.76180000  1.0 -0.2393861659
O  O72  1  0.85717000  0.09537000  0.10580000  1.0 -0.2393861659
O  O73  1  0.51376000  0.33431000  0.72705000  1.0 -0.4197902888
O  O74  1  0.39274000  0.66569000  0.17945000  1.0 -0.4197902888
O  O75  1  0.98624000  0.21329000  0.32055000  1.0 -0.4197902888
O  O76  1  0.10726000  0.78671000  0.77295000  1.0 -0.4197902888
O  O77  1  0.48624000  0.66569000  0.27295000  1.0 -0.4197902888
O  O78  1  0.60726000  0.33431000  0.82055000  1.0 -0.4197902888
O  O79  1  0.01376000  0.78671000  0.67945000  1.0 -0.4197902888
O  O80  1  0.89274000  0.21329000  0.22705000  1.0 -0.4197902888
O  O81  1  0.40153000  0.24490000  0.74463000  1.0 -0.503795734
O  O82  1  0.49973000  0.75510000  0.15663000  1.0 -0.503795734
O  O83  1  0.09847000  0.34310000  0.34337000  1.0 -0.503795734
O  O84  1  0.00027000  0.65690000  0.75537000  1.0 -0.503795734
O  O85  1  0.59847000  0.75510000  0.25537000  1.0 -0.503795734
O  O86  1  0.50027000  0.24490000  0.84337000  1.0 -0.503795734
O  O87  1  0.90153000  0.65690000  0.65663000  1.0 -0.503795734
O  O88  1  0.99973000  0.34310000  0.24463000  1.0 -0.503795734
O  O89  1  0.33139000  0.14777000  0.63102000  1.0 -0.5494339973
O  O90  1  0.48325000  0.85223000  0.18362000  1.0 -0.5494339973
O  O91  1  0.16861000  0.29963000  0.31638000  1.0 -0.5494339973
O  O92  1  0.01675000  0.70037000  0.86898000  1.0 -0.5494339973
O  O93  1  0.66861000  0.85223000  0.36898000  1.0 -0.5494339973
O  O94  1  0.51675000  0.14777000  0.81638000  1.0 -0.5494339973
O  O95  1  0.83139000  0.70037000  0.68362000  1.0 -0.5494339973
O  O96  1  0.98325000  0.29963000  0.13102000  1.0 -0.5494339973
O  O97  1  0.98300000  0.65310000  0.94670000  1.0 -0.0594708911
O  O98  1  0.29360000  0.34690000  0.32990000  1.0 -0.0594708911
O  O99  1  0.51700000  0.96370000  0.17010000  1.0 -0.0594708911
O  O100  1  0.20640000  0.03630000  0.55330000  1.0 -0.0594708911
O  O101  1  0.01700000  0.34690000  0.05330000  1.0 -0.0594708911
O  O102  1  0.70640000  0.65310000  0.67010000  1.0 -0.0594708911
O  O103  1  0.48300000  0.03630000  0.82990000  1.0 -0.0594708911
O  O104  1  0.79360000  0.96370000  0.44670000  1.0 -0.0594708911
O  O105  1  0.93508000  0.70459000  0.91441000  1.0 -0.3837868184
O  O106  1  0.20982000  0.29541000  0.23049000  1.0 -0.3837868184
O  O107  1  0.56492000  0.97933000  0.26951000  1.0 -0.3837868184
O  O108  1  0.29018000  0.02067000  0.58559000  1.0 -0.3837868184
O  O109  1  0.06492000  0.29541000  0.08559000  1.0 -0.3837868184
O  O110  1  0.79018000  0.70459000  0.76951000  1.0 -0.3837868184
O  O111  1  0.43508000  0.02067000  0.73049000  1.0 -0.3837868184
O  O112  1  0.70982000  0.97933000  0.41441000  1.0 -0.3837868184
O  O113  1  0.91902000  0.95627000  0.13699000  1.0 -0.4519256748
O  O114  1  0.18072000  0.04373000  0.96275000  1.0 -0.4519256748
O  O115  1  0.58098000  0.21797000  0.53725000  1.0 -0.4519256748
O  O116  1  0.31928000  0.78203000  0.36301000  1.0 -0.4519256748
O  O117  1  0.08098000  0.04373000  0.86301000  1.0 -0.4519256748
O  O118  1  0.81928000  0.95627000  0.03725000  1.0 -0.4519256748
O  O119  1  0.41902000  0.78203000  0.46275000  1.0 -0.4519256748
O  O120  1  0.68072000  0.21797000  0.63699000  1.0 -0.4519256748
O  O121  1  0.94398000  0.00318000  0.25380000  1.0 -0.1985843166
O  O122  1  0.25062000  0.99682000  0.94080000  1.0 -0.1985843166
O  O123  1  0.55602000  0.30982000  0.55920000  1.0 -0.1985843166
O  O124  1  0.24938000  0.69018000  0.24620000  1.0 -0.1985843166
O  O125  1  0.05602000  0.99682000  0.74620000  1.0 -0.1985843166
O  O126  1  0.74938000  0.00318000  0.05920000  1.0 -0.1985843166
O  O127  1  0.44398000  0.69018000  0.44080000  1.0 -0.1985843166
O  O128  1  0.75062000  0.30982000  0.75380000  1.0 -0.1985843166
O  O129  1  0.95961000  0.82370000  0.25517000  1.0 -0.5105918817
O  O130  1  0.43147000  0.17630000  0.13591000  1.0 -0.5105918817
O  O131  1  0.54039000  0.29556000  0.36409000  1.0 -0.5105918817
O  O132  1  0.06853000  0.70444000  0.24483000  1.0 -0.5105918817
O  O133  1  0.04039000  0.17630000  0.74483000  1.0 -0.5105918817
O  O134  1  0.56853000  0.82370000  0.86409000  1.0 -0.5105918817
O  O135  1  0.45961000  0.70444000  0.63591000  1.0 -0.5105918817
O  O136  1  0.93147000  0.29556000  0.75517000  1.0 -0.5105918817
O  O137  1  0.97114000  0.71250000  0.15464000  1.0 -0.5691147804
O  O138  1  0.44214000  0.28750000  0.25864000  1.0 -0.5691147804
O  O139  1  0.52886000  0.18350000  0.24136000  1.0 -0.5691147804
O  O140  1  0.05786000  0.81650000  0.34536000  1.0 -0.5691147804
O  O141  1  0.02886000  0.28750000  0.84536000  1.0 -0.5691147804
O  O142  1  0.55786000  0.71250000  0.74136000  1.0 -0.5691147804
O  O143  1  0.47114000  0.81650000  0.75864000  1.0 -0.5691147804
O  O144  1  0.94214000  0.18350000  0.65464000  1.0 -0.5691147804
O  O145  1  0.60423000  0.85233000  0.24810000  1.0 -0.8957087904
O  O146  1  0.39577000  0.14767000  0.75190000  1.0 -0.8945314795
O  O147  1  0.89577000  0.64387000  0.74810000  1.0 -0.8945314795
O  O148  1  0.10423000  0.35613000  0.25190000  1.0 -0.8957087904
O  O149  1  0.62199000  0.34583000  0.72384000  1.0 -0.8501126528
O  O150  1  0.37801000  0.65417000  0.27616000  1.0 -0.8501126528
O  O151  1  0.87801000  0.10185000  0.22384000  1.0 -0.8501126528
O  O152  1  0.12199000  0.89815000  0.77616000  1.0 -0.8501126528
O  O153  1  0.69140000  0.44640000  0.75500000  1.0 -0.7008794307
O  O154  1  0.30860000  0.55360000  0.24500000  1.0 -0.7008794307
O  O155  1  0.80860000  0.06360000  0.25500000  1.0 -0.7008794307
O  O156  1  0.19140000  0.93640000  0.74500000  1.0 -0.7008794307
O  O157  1  0.90982000  0.98982000  0.23120000  1.0 -0.1931372344
O  O158  1  0.24138000  0.01018000  0.92000000  1.0 -0.1931372344
O  O159  1  0.59018000  0.32138000  0.58000000  1.0 -0.1931372344
O  O160  1  0.25862000  0.67862000  0.26880000  1.0 -0.1931372344
O  O161  1  0.09018000  0.01018000  0.76880000  1.0 -0.1931372344
O  O162  1  0.75862000  0.98982000  0.08000000  1.0 -0.1931372344
O  O163  1  0.40982000  0.67862000  0.42000000  1.0 -0.1931372344
O  O164  1  0.74138000  0.32138000  0.73120000  1.0 -0.1931372344
O  O165  1  0.72920000  0.47470000  0.89170000  1.0 -0.1220287293
O  O166  1  0.41700000  0.52530000  0.25450000  1.0 -0.1220287293
O  O167  1  0.77080000  0.16250000  0.24550000  1.0 -0.1220287293
O  O168  1  0.08300000  0.83750000  0.60830000  1.0 -0.1220287293
O  O169  1  0.27080000  0.52530000  0.10830000  1.0 -0.1220287293
O  O170  1  0.58300000  0.47470000  0.74550000  1.0 -0.1220287293
O  O171  1  0.22920000  0.83750000  0.75450000  1.0 -0.1220287293
O  O172  1  0.91700000  0.16250000  0.39170000  1.0 -0.1220287293
O  O173  1  0.48956000  0.29596000  0.61380000  1.0 -0.1825202204
O  O174  1  0.31784000  0.70404000  0.19360000  1.0 -0.1825202204
O  O175  1  0.01044000  0.12424000  0.30640000  1.0 -0.1825202204
O  O176  1  0.18216000  0.87576000  0.88620000  1.0 -0.1825202204
O  O177  1  0.51044000  0.70404000  0.38620000  1.0 -0.1825202204
O  O178  1  0.68216000  0.29596000  0.80640000  1.0 -0.1825202204
O  O179  1  0.98956000  0.87576000  0.69360000  1.0 -0.1825202204
O  O180  1  0.81784000  0.12424000  0.11380000  1.0 -0.1825202204
O  O181  1  0.93940000  0.62750000  0.91070000  1.0 -0.028678594
O  O182  1  0.28320000  0.37250000  0.31190000  1.0 -0.028678594
O  O183  1  0.56060000  0.97130000  0.18810000  1.0 -0.028678594
O  O184  1  0.21680000  0.02870000  0.58930000  1.0 -0.028678594
O  O185  1  0.06060000  0.37250000  0.08930000  1.0 -0.028678594
O  O186  1  0.71680000  0.62750000  0.68810000  1.0 -0.028678594
O  O187  1  0.43940000  0.02870000  0.81190000  1.0 -0.028678594
O  O188  1  0.78320000  0.97130000  0.41070000  1.0 -0.028678594
