# DDEC6 charges by PACMAN v1.1 (https://github.com/mtap-research/PACMAN-charge/)
data_AHIJUZ_ASR_pacman
_symmetry_space_group_name_H-M   'P 1'
_cell_length_a   21.88060000
_cell_length_b   21.88060000
_cell_length_c   20.77650000
_cell_angle_alpha   90.00000000
_cell_angle_beta   90.00000000
_cell_angle_gamma   120.00000000
_symmetry_Int_Tables_number   1
_chemical_formula_structural   Dy7H90C159(N18O13)2
_chemical_formula_sum   'Dy14 H180 C318 N72 O52'
_cell_volume   8614.32938347
_cell_formula_units_Z   2
loop_
 _symmetry_equiv_pos_site_id
 _symmetry_equiv_pos_as_xyz
  1  'x, y, z'
loop_
 _atom_site_type_symbol
 _atom_site_label
 _atom_site_symmetry_multiplicity
 _atom_site_fract_x
 _atom_site_fract_y
 _atom_site_fract_z
 _atom_site_occupancy
 _atom_site_charge
Dy  Dy1  1  0.55711000  0.31231000  0.89700000  1.0 2.0642680842
Dy  Dy2  1  0.75520000  0.44289000  0.89700000  1.0 2.0642680842
Dy  Dy3  1  0.68769000  0.24480000  0.89700000  1.0 2.0642680842
Dy  Dy4  1  0.55711000  0.31231000  0.60300000  1.0 2.0642680842
Dy  Dy5  1  0.75520000  0.44289000  0.60300000  1.0 2.0642680842
Dy  Dy6  1  0.68769000  0.24480000  0.60300000  1.0 2.0642680842
Dy  Dy7  1  0.66666667  0.33333333  0.75000000  1.0 2.1506658513
Dy  Dy8  1  0.44289000  0.68769000  0.39700000  1.0 2.0642680842
Dy  Dy9  1  0.24480000  0.55711000  0.39700000  1.0 2.0642680842
Dy  Dy10  1  0.31231000  0.75520000  0.39700000  1.0 2.0642680842
Dy  Dy11  1  0.44289000  0.68769000  0.10300000  1.0 2.0642680842
Dy  Dy12  1  0.24480000  0.55711000  0.10300000  1.0 2.0642680842
Dy  Dy13  1  0.31231000  0.75520000  0.10300000  1.0 2.0642680842
Dy  Dy14  1  0.33333333  0.66666667  0.25000000  1.0 2.1506658513
H  H1  1  0.23773000  0.96981000  0.91763000  1.0 0.2883727569
H  H2  1  0.43384000  0.90824000  0.92520000  1.0 0.1391203728
H  H3  1  0.05835000  0.65476000  0.91233000  1.0 0.1290972585
H  H4  1  0.37560000  0.08962000  0.92157000  1.0 0.1215951077
H  H5  1  0.17801000  0.74096000  0.91285000  1.0 0.1290972585
H  H6  1  0.52181000  0.02758000  0.92786000  1.0 0.1105034064
H  H7  1  0.94038000  0.57621000  0.92607000  1.0 0.1105034064
H  H8  1  0.00636000  0.80676000  0.92591000  1.0 0.1215951077
H  H9  1  0.12464000  0.89222000  0.92968000  1.0 0.1105034064
H  H10  1  0.79207000  0.61569000  0.87307000  1.0 0.1105034064
H  H11  1  0.90358000  0.73031000  0.88242000  1.0 0.1215951077
H  H12  1  0.73208000  0.76227000  0.91763000  1.0 0.2883727569
H  H13  1  0.47440000  0.56616000  0.92520000  1.0 0.1391203728
H  H14  1  0.59641000  0.94165000  0.91233000  1.0 0.1290972585
H  H15  1  0.71402000  0.62440000  0.92157000  1.0 0.1215951077
H  H16  1  0.56295000  0.82199000  0.91285000  1.0 0.1290972585
H  H17  1  0.50577000  0.47819000  0.92786000  1.0 0.1105034064
H  H18  1  0.63583000  0.05962000  0.92607000  1.0 0.1105034064
H  H19  1  0.80040000  0.99364000  0.92591000  1.0 0.1215951077
H  H20  1  0.76758000  0.87536000  0.92968000  1.0 0.1105034064
H  H21  1  0.82362000  0.20793000  0.87307000  1.0 0.1105034064
H  H22  1  0.82673000  0.09642000  0.88242000  1.0 0.1215951077
H  H23  1  0.03019000  0.26792000  0.91763000  1.0 0.2883727569
H  H24  1  0.09176000  0.52560000  0.92520000  1.0 0.1391203728
H  H25  1  0.34524000  0.40359000  0.91233000  1.0 0.1290972585
H  H26  1  0.91038000  0.28598000  0.92157000  1.0 0.1215951077
H  H27  1  0.25904000  0.43705000  0.91285000  1.0 0.1290972585
H  H28  1  0.97242000  0.49423000  0.92786000  1.0 0.1105034064
H  H29  1  0.42379000  0.36417000  0.92607000  1.0 0.1105034064
H  H30  1  0.19324000  0.19960000  0.92591000  1.0 0.1215951077
H  H31  1  0.10778000  0.23242000  0.92968000  1.0 0.1105034064
H  H32  1  0.38431000  0.17638000  0.87307000  1.0 0.1105034064
H  H33  1  0.26969000  0.17327000  0.88242000  1.0 0.1215951077
H  H34  1  0.23773000  0.96981000  0.58237000  1.0 0.2883727569
H  H35  1  0.43384000  0.90824000  0.57480000  1.0 0.1391203728
H  H36  1  0.05835000  0.65476000  0.58767000  1.0 0.1290972585
H  H37  1  0.37560000  0.08962000  0.57843000  1.0 0.1215951077
H  H38  1  0.17801000  0.74096000  0.58715000  1.0 0.1290972585
H  H39  1  0.52181000  0.02758000  0.57214000  1.0 0.1105034064
H  H40  1  0.94038000  0.57621000  0.57393000  1.0 0.1105034064
H  H41  1  0.00636000  0.80676000  0.57409000  1.0 0.1215951077
H  H42  1  0.12464000  0.89222000  0.57032000  1.0 0.1105034064
H  H43  1  0.79207000  0.61569000  0.62693000  1.0 0.1105034064
H  H44  1  0.90358000  0.73031000  0.61758000  1.0 0.1215951077
H  H45  1  0.73208000  0.76227000  0.58237000  1.0 0.2883727569
H  H46  1  0.47440000  0.56616000  0.57480000  1.0 0.1391203728
H  H47  1  0.59641000  0.94165000  0.58767000  1.0 0.1290972585
H  H48  1  0.71402000  0.62440000  0.57843000  1.0 0.1215951077
H  H49  1  0.56295000  0.82199000  0.58715000  1.0 0.1290972585
H  H50  1  0.50577000  0.47819000  0.57214000  1.0 0.1105034064
H  H51  1  0.63583000  0.05962000  0.57393000  1.0 0.1105034064
H  H52  1  0.80040000  0.99364000  0.57409000  1.0 0.1215951077
H  H53  1  0.76758000  0.87536000  0.57032000  1.0 0.1105034064
H  H54  1  0.82362000  0.20793000  0.62693000  1.0 0.1105034064
H  H55  1  0.82673000  0.09642000  0.61758000  1.0 0.1215951077
H  H56  1  0.03019000  0.26792000  0.58237000  1.0 0.2883727569
H  H57  1  0.09176000  0.52560000  0.57480000  1.0 0.1391203728
H  H58  1  0.34524000  0.40359000  0.58767000  1.0 0.1290972585
H  H59  1  0.91038000  0.28598000  0.57843000  1.0 0.1215951077
H  H60  1  0.25904000  0.43705000  0.58715000  1.0 0.1290972585
H  H61  1  0.97242000  0.49423000  0.57214000  1.0 0.1105034064
H  H62  1  0.42379000  0.36417000  0.57393000  1.0 0.1105034064
H  H63  1  0.19324000  0.19960000  0.57409000  1.0 0.1215951077
H  H64  1  0.10778000  0.23242000  0.57032000  1.0 0.1105034064
H  H65  1  0.38431000  0.17638000  0.62693000  1.0 0.1105034064
H  H66  1  0.26969000  0.17327000  0.61758000  1.0 0.1215951077
H  H67  1  0.89702000  0.21835000  0.75000000  1.0 0.1105034064
H  H68  1  0.84718000  0.37053000  0.75000000  1.0 0.1518775839
H  H69  1  0.08413000  0.44326000  0.75000000  1.0 0.1290972585
H  H70  1  0.19813000  0.45898000  0.75000000  1.0 0.1215951077
H  H71  1  0.11585000  0.24756000  0.75000000  1.0 0.1215951077
H  H72  1  0.00067000  0.23242000  0.75000000  1.0 0.1105034064
H  H73  1  0.97466000  0.42447000  0.75000000  1.0 0.1215951077
H  H74  1  0.35187000  0.26508000  0.75000000  1.0 0.1290972585
H  H75  1  0.32133000  0.10298000  0.75000000  1.0 0.1105034064
H  H76  1  0.52335000  0.15282000  0.75000000  1.0 0.1518775839
H  H77  1  0.35913000  0.91587000  0.75000000  1.0 0.1290972585
H  H78  1  0.26085000  0.80187000  0.75000000  1.0 0.1215951077
H  H79  1  0.13171000  0.88415000  0.75000000  1.0 0.1215951077
H  H80  1  0.23175000  0.99933000  0.75000000  1.0 0.1105034064
H  H81  1  0.44981000  0.02534000  0.75000000  1.0 0.1215951077
H  H82  1  0.91321000  0.64813000  0.75000000  1.0 0.1290972585
H  H83  1  0.78165000  0.67867000  0.75000000  1.0 0.1105034064
H  H84  1  0.62947000  0.47665000  0.75000000  1.0 0.1518775839
H  H85  1  0.55674000  0.64087000  0.75000000  1.0 0.1290972585
H  H86  1  0.54102000  0.73915000  0.75000000  1.0 0.1215951077
H  H87  1  0.75244000  0.86829000  0.75000000  1.0 0.1215951077
H  H88  1  0.76758000  0.76825000  0.75000000  1.0 0.1105034064
H  H89  1  0.57553000  0.55019000  0.75000000  1.0 0.1215951077
H  H90  1  0.73492000  0.08679000  0.75000000  1.0 0.1290972585
H  H91  1  0.76227000  0.03019000  0.41763000  1.0 0.2883727569
H  H92  1  0.56616000  0.09176000  0.42520000  1.0 0.1391203728
H  H93  1  0.94165000  0.34524000  0.41233000  1.0 0.1290972585
H  H94  1  0.62440000  0.91038000  0.42157000  1.0 0.1215951077
H  H95  1  0.82199000  0.25904000  0.41285000  1.0 0.1290972585
H  H96  1  0.47819000  0.97242000  0.42786000  1.0 0.1105034064
H  H97  1  0.05962000  0.42379000  0.42607000  1.0 0.1105034064
H  H98  1  0.99364000  0.19324000  0.42591000  1.0 0.1215951077
H  H99  1  0.87536000  0.10778000  0.42968000  1.0 0.1105034064
H  H100  1  0.20793000  0.38431000  0.37307000  1.0 0.1105034064
H  H101  1  0.09642000  0.26969000  0.38242000  1.0 0.1215951077
H  H102  1  0.26792000  0.23773000  0.41763000  1.0 0.2883727569
H  H103  1  0.52560000  0.43384000  0.42520000  1.0 0.1391203728
H  H104  1  0.40359000  0.05835000  0.41233000  1.0 0.1290972585
H  H105  1  0.28598000  0.37560000  0.42157000  1.0 0.1215951077
H  H106  1  0.43705000  0.17801000  0.41285000  1.0 0.1290972585
H  H107  1  0.49423000  0.52181000  0.42786000  1.0 0.1105034064
H  H108  1  0.36417000  0.94038000  0.42607000  1.0 0.1105034064
H  H109  1  0.19960000  0.00636000  0.42591000  1.0 0.1215951077
H  H110  1  0.23242000  0.12464000  0.42968000  1.0 0.1105034064
H  H111  1  0.17638000  0.79207000  0.37307000  1.0 0.1105034064
H  H112  1  0.17327000  0.90358000  0.38242000  1.0 0.1215951077
H  H113  1  0.96981000  0.73208000  0.41763000  1.0 0.2883727569
H  H114  1  0.90824000  0.47440000  0.42520000  1.0 0.1391203728
H  H115  1  0.65476000  0.59641000  0.41233000  1.0 0.1290972585
H  H116  1  0.08962000  0.71402000  0.42157000  1.0 0.1290972585
H  H117  1  0.74096000  0.56295000  0.41285000  1.0 0.1290972585
H  H118  1  0.02758000  0.50577000  0.42786000  1.0 0.1105034064
H  H119  1  0.57621000  0.63583000  0.42607000  1.0 0.1105034064
H  H120  1  0.80676000  0.80040000  0.42591000  1.0 0.1215951077
H  H121  1  0.89222000  0.76758000  0.42968000  1.0 0.1105034064
H  H122  1  0.61569000  0.82362000  0.37307000  1.0 0.1105034064
H  H123  1  0.73031000  0.82673000  0.38242000  1.0 0.1215951077
H  H124  1  0.76227000  0.03019000  0.08237000  1.0 0.2883727569
H  H125  1  0.56616000  0.09176000  0.07480000  1.0 0.1391203728
H  H126  1  0.94165000  0.34524000  0.08767000  1.0 0.1290972585
H  H127  1  0.62440000  0.91038000  0.07843000  1.0 0.1215951077
H  H128  1  0.82199000  0.25904000  0.08715000  1.0 0.1290972585
H  H129  1  0.47819000  0.97242000  0.07214000  1.0 0.1105034064
H  H130  1  0.05962000  0.42379000  0.07393000  1.0 0.1105034064
H  H131  1  0.99364000  0.19324000  0.07409000  1.0 0.1215951077
H  H132  1  0.87536000  0.10778000  0.07032000  1.0 0.1105034064
H  H133  1  0.20793000  0.38431000  0.12693000  1.0 0.1105034064
H  H134  1  0.09642000  0.26969000  0.11758000  1.0 0.1215951077
H  H135  1  0.26792000  0.23773000  0.08237000  1.0 0.2883727569
H  H136  1  0.52560000  0.43384000  0.07480000  1.0 0.1391203728
H  H137  1  0.40359000  0.05835000  0.08767000  1.0 0.1290972585
H  H138  1  0.28598000  0.37560000  0.07843000  1.0 0.1215951077
H  H139  1  0.43705000  0.17801000  0.08715000  1.0 0.1290972585
H  H140  1  0.49423000  0.52181000  0.07214000  1.0 0.1105034064
H  H141  1  0.36417000  0.94038000  0.07393000  1.0 0.1105034064
H  H142  1  0.19960000  0.00636000  0.07409000  1.0 0.1215951077
H  H143  1  0.23242000  0.12464000  0.07032000  1.0 0.1105034064
H  H144  1  0.17638000  0.79207000  0.12693000  1.0 0.1105034064
H  H145  1  0.17327000  0.90358000  0.11758000  1.0 0.1215951077
H  H146  1  0.96981000  0.73208000  0.08237000  1.0 0.2883727569
H  H147  1  0.90824000  0.47440000  0.07480000  1.0 0.1391203728
H  H148  1  0.65476000  0.59641000  0.08767000  1.0 0.1290972585
H  H149  1  0.08962000  0.71402000  0.07843000  1.0 0.1215951077
H  H150  1  0.74096000  0.56295000  0.08715000  1.0 0.1290972585
H  H151  1  0.02758000  0.50577000  0.07214000  1.0 0.1105034064
H  H152  1  0.57621000  0.63583000  0.07393000  1.0 0.1105034064
H  H153  1  0.80676000  0.80040000  0.07409000  1.0 0.1215951077
H  H154  1  0.89222000  0.76758000  0.07032000  1.0 0.1105034064
H  H155  1  0.61569000  0.82362000  0.12693000  1.0 0.1105034064
H  H156  1  0.73031000  0.82673000  0.11758000  1.0 0.1215951077
H  H157  1  0.10298000  0.78165000  0.25000000  1.0 0.1105034064
H  H158  1  0.15282000  0.62947000  0.25000000  1.0 0.1518775839
H  H159  1  0.91587000  0.55674000  0.25000000  1.0 0.1290972585
H  H160  1  0.80187000  0.54102000  0.25000000  1.0 0.1215951077
H  H161  1  0.88415000  0.75244000  0.25000000  1.0 0.1215951077
H  H162  1  0.99933000  0.76758000  0.25000000  1.0 0.1105034064
H  H163  1  0.02534000  0.57553000  0.25000000  1.0 0.1215951077
H  H164  1  0.64813000  0.73492000  0.25000000  1.0 0.1290972585
H  H165  1  0.67867000  0.89702000  0.25000000  1.0 0.1105034064
H  H166  1  0.47665000  0.84718000  0.25000000  1.0 0.1518775839
H  H167  1  0.64087000  0.08413000  0.25000000  1.0 0.1290972585
H  H168  1  0.73915000  0.19813000  0.25000000  1.0 0.1215951077
H  H169  1  0.86829000  0.11585000  0.25000000  1.0 0.1215951077
H  H170  1  0.76825000  0.00067000  0.25000000  1.0 0.1105034064
H  H171  1  0.55019000  0.97466000  0.25000000  1.0 0.1215951077
H  H172  1  0.08679000  0.35187000  0.25000000  1.0 0.1290972585
H  H173  1  0.21835000  0.32133000  0.25000000  1.0 0.1105034064
H  H174  1  0.37053000  0.52335000  0.25000000  1.0 0.1518775839
H  H175  1  0.44326000  0.35913000  0.25000000  1.0 0.1290972585
H  H176  1  0.45898000  0.26085000  0.25000000  1.0 0.1215951077
H  H177  1  0.24756000  0.13171000  0.25000000  1.0 0.1215951077
H  H178  1  0.23242000  0.23175000  0.25000000  1.0 0.1105034064
H  H179  1  0.42447000  0.44981000  0.25000000  1.0 0.1215951077
H  H180  1  0.26508000  0.91321000  0.25000000  1.0 0.1290972585
C  C1  1  0.42180000  0.94440000  0.92460000  1.0 -0.1757418383
C  C2  1  0.07200000  0.70330000  0.91470000  1.0 -0.1694999658
C  C3  1  0.35180000  0.92810000  0.92210000  1.0 0.1391203728
C  C4  1  0.45620000  0.06870000  0.92520000  1.0 -0.0301528313
C  C5  1  0.38750000  0.05340000  0.92230000  1.0 -0.2101621113
C  C6  1  0.14310000  0.75450000  0.91580000  1.0 -0.0866405871
C  C7  1  0.16300000  0.82490000  0.92120000  1.0 0.0103448827
C  C8  1  0.47360000  0.01520000  0.92610000  1.0 -0.136733098
C  C9  1  0.02190000  0.72280000  0.91710000  1.0 0.1608442608
C  C10  1  0.91580000  0.60120000  0.91920000  1.0 0.1391203728
C  C11  1  0.33610000  0.98260000  0.92040000  1.0 0.1105034064
C  C12  1  0.51510000  0.14430000  0.92590000  1.0 0.6319340386
C  C13  1  0.23870000  0.87870000  0.92100000  1.0 0.3006442489
C  C14  1  0.04150000  0.79350000  0.92320000  1.0 -0.1869980898
C  C15  1  0.11140000  0.84390000  0.92530000  1.0 -0.1285229481
C  C16  1  0.46850000  0.42810000  0.78000000  1.0 -0.0706018332
C  C17  1  0.42420000  0.45730000  0.78190000  1.0 -0.016666848
C  C18  1  0.83570000  0.62270000  0.88930000  1.0 -0.0301528313
C  C19  1  0.89740000  0.68530000  0.89290000  1.0 -0.1055598315
C  C20  1  0.52260000  0.57820000  0.92460000  1.0 -0.1757418383
C  C21  1  0.63130000  0.92800000  0.91470000  1.0 -0.1694999658
C  C22  1  0.57630000  0.64820000  0.92210000  1.0 0.1391203728
C  C23  1  0.61250000  0.54380000  0.92520000  1.0 -0.0301528313
C  C24  1  0.66590000  0.61250000  0.92230000  1.0 -0.2101621113
C  C25  1  0.61140000  0.85690000  0.91580000  1.0 -0.0866405871
C  C26  1  0.66190000  0.83700000  0.92120000  1.0 0.0103448827
C  C27  1  0.54160000  0.52640000  0.92610000  1.0 -0.136733098
C  C28  1  0.70090000  0.97810000  0.91710000  1.0 0.1608442608
C  C29  1  0.68540000  0.08420000  0.91920000  1.0 0.1391203728
C  C30  1  0.64650000  0.66390000  0.92040000  1.0 0.1105034064
C  C31  1  0.62920000  0.48490000  0.92590000  1.0 0.6319340386
C  C32  1  0.64000000  0.76130000  0.92100000  1.0 0.3006442489
C  C33  1  0.75200000  0.95850000  0.92320000  1.0 -0.1869980898
C  C34  1  0.73250000  0.88860000  0.92530000  1.0 -0.1285229481
C  C35  1  0.95960000  0.53150000  0.78000000  1.0 -0.0706018332
C  C36  1  0.03310000  0.57580000  0.78190000  1.0 -0.016666848
C  C37  1  0.78700000  0.16430000  0.88930000  1.0 -0.0301528313
C  C38  1  0.78790000  0.10260000  0.89290000  1.0 -0.1055598315
C  C39  1  0.05560000  0.47740000  0.92460000  1.0 -0.1757418383
C  C40  1  0.29670000  0.36870000  0.91470000  1.0 -0.1694999658
C  C41  1  0.07190000  0.42370000  0.92210000  1.0 0.1391203728
C  C42  1  0.93130000  0.38750000  0.92520000  1.0 -0.0301528313
C  C43  1  0.94660000  0.33410000  0.92230000  1.0 -0.2101621113
C  C44  1  0.24550000  0.38860000  0.91580000  1.0 -0.0866405871
C  C45  1  0.17510000  0.33810000  0.92120000  1.0 0.0103448827
C  C46  1  0.98480000  0.45840000  0.92610000  1.0 -0.136733098
C  C47  1  0.27720000  0.29910000  0.91710000  1.0 0.1608442608
C  C48  1  0.39880000  0.31460000  0.91920000  1.0 0.1391203728
C  C49  1  0.01740000  0.35350000  0.92040000  1.0 0.1105034064
C  C50  1  0.85570000  0.37080000  0.92590000  1.0 0.6319340386
C  C51  1  0.12130000  0.36000000  0.92100000  1.0 0.3006442489
C  C52  1  0.20650000  0.24800000  0.92320000  1.0 -0.1869980898
C  C53  1  0.15610000  0.26750000  0.92530000  1.0 -0.1285229481
C  C54  1  0.57190000  0.04040000  0.78000000  1.0 -0.0706018332
C  C55  1  0.54270000  0.96690000  0.78190000  1.0 -0.016666848
C  C56  1  0.37730000  0.21300000  0.88930000  1.0 -0.0301528313
C  C57  1  0.31470000  0.21210000  0.89290000  1.0 -0.1055598315
C  C58  1  0.42180000  0.94440000  0.57540000  1.0 -0.1757418383
C  C59  1  0.07200000  0.70330000  0.58530000  1.0 -0.1694999658
C  C60  1  0.35180000  0.92810000  0.57790000  1.0 0.1391203728
C  C61  1  0.45620000  0.06870000  0.57480000  1.0 -0.0301528313
C  C62  1  0.38750000  0.05340000  0.57770000  1.0 -0.2101621113
C  C63  1  0.14310000  0.75450000  0.58420000  1.0 -0.0866405871
C  C64  1  0.16300000  0.82490000  0.57880000  1.0 0.0103448827
C  C65  1  0.47360000  0.01520000  0.57390000  1.0 -0.136733098
C  C66  1  0.02190000  0.72280000  0.58290000  1.0 0.1608442608
C  C67  1  0.91580000  0.60120000  0.58080000  1.0 0.1391203728
C  C68  1  0.33610000  0.98260000  0.57960000  1.0 0.1105034064
C  C69  1  0.51510000  0.14430000  0.57410000  1.0 0.6319340386
C  C70  1  0.23870000  0.87870000  0.57900000  1.0 0.3006442489
C  C71  1  0.04150000  0.79350000  0.57680000  1.0 -0.1869980898
C  C72  1  0.11140000  0.84390000  0.57470000  1.0 -0.1285229481
C  C73  1  0.46850000  0.42810000  0.72000000  1.0 -0.0706018332
C  C74  1  0.42420000  0.45730000  0.71810000  1.0 -0.016666848
C  C75  1  0.83570000  0.62270000  0.61070000  1.0 -0.0301528313
C  C76  1  0.89740000  0.68530000  0.60710000  1.0 -0.1055598315
C  C77  1  0.52260000  0.57820000  0.57540000  1.0 -0.1694999658
C  C78  1  0.63130000  0.92800000  0.58530000  1.0 -0.1694999658
C  C79  1  0.57630000  0.64820000  0.57790000  1.0 0.1391203728
C  C80  1  0.61250000  0.54380000  0.57480000  1.0 -0.0301528313
C  C81  1  0.66590000  0.61250000  0.57770000  1.0 -0.2101621113
C  C82  1  0.61140000  0.85690000  0.58420000  1.0 -0.0866405871
C  C83  1  0.66190000  0.83700000  0.57880000  1.0 0.0103448827
C  C84  1  0.54160000  0.52640000  0.57390000  1.0 -0.136733098
C  C85  1  0.70090000  0.97810000  0.58290000  1.0 0.1608442608
C  C86  1  0.68540000  0.08420000  0.58080000  1.0 0.1391203728
C  C87  1  0.64650000  0.66390000  0.57960000  1.0 0.1105034064
C  C88  1  0.62920000  0.48490000  0.57410000  1.0 0.6319340386
C  C89  1  0.64000000  0.76130000  0.57900000  1.0 0.3006442489
C  C90  1  0.75200000  0.95850000  0.57680000  1.0 -0.1869980898
C  C91  1  0.73250000  0.88860000  0.57470000  1.0 -0.1285229481
C  C92  1  0.95960000  0.53150000  0.72000000  1.0 -0.0706018332
C  C93  1  0.03310000  0.57580000  0.71810000  1.0 -0.016666848
C  C94  1  0.78700000  0.16430000  0.61070000  1.0 -0.0301528313
C  C95  1  0.78790000  0.10260000  0.60710000  1.0 -0.1055598315
C  C96  1  0.05560000  0.47740000  0.57540000  1.0 -0.1757418383
C  C97  1  0.29670000  0.36870000  0.58530000  1.0 -0.1694999658
C  C98  1  0.07190000  0.42370000  0.57790000  1.0 0.1391203728
C  C99  1  0.93130000  0.38750000  0.57480000  1.0 -0.0301528313
C  C100  1  0.94660000  0.33410000  0.57770000  1.0 -0.2101621113
C  C101  1  0.24550000  0.38860000  0.58420000  1.0 -0.0866405871
C  C102  1  0.17510000  0.33810000  0.57880000  1.0 0.0103448827
C  C103  1  0.98480000  0.45840000  0.57390000  1.0 -0.136733098
C  C104  1  0.27720000  0.29910000  0.58290000  1.0 0.1608442608
C  C105  1  0.39880000  0.31460000  0.58080000  1.0 0.1391203728
C  C106  1  0.01740000  0.35350000  0.57960000  1.0 0.1105034064
C  C107  1  0.85570000  0.37080000  0.57410000  1.0 0.6319340386
C  C108  1  0.12130000  0.36000000  0.57900000  1.0 0.3006442489
C  C109  1  0.20650000  0.24800000  0.57680000  1.0 -0.1869980898
C  C110  1  0.15610000  0.26750000  0.57470000  1.0 -0.1285229481
C  C111  1  0.57190000  0.04040000  0.72000000  1.0 -0.0706018332
C  C112  1  0.54270000  0.96690000  0.71810000  1.0 -0.016666848
C  C113  1  0.37730000  0.21300000  0.61070000  1.0 -0.0301528313
C  C114  1  0.31470000  0.21210000  0.60710000  1.0 -0.1055598315
C  C115  1  0.32620000  0.34220000  0.75000000  1.0 0.1105034064
C  C116  1  0.90250000  0.26420000  0.75000000  1.0 -0.0095263282
C  C117  1  0.24060000  0.36600000  0.75000000  1.0 0.3006442489
C  C118  1  0.44150000  0.35770000  0.75000000  1.0 0.0103448827
C  C119  1  0.49290000  0.33220000  0.75000000  1.0 0.6175188738
C  C120  1  0.87330000  0.34650000  0.75000000  1.0 0.0724582765
C  C121  1  0.16760000  0.35430000  0.75000000  1.0 0.0310374131
C  C122  1  0.03350000  0.33720000  0.75000000  1.0 0.1290972585
C  C123  1  0.09050000  0.40340000  0.75000000  1.0 -0.1757418383
C  C124  1  0.15830000  0.41280000  0.75000000  1.0 -0.0866405871
C  C125  1  0.10970000  0.28760000  0.75000000  1.0 -0.1196307969
C  C126  1  0.04100000  0.27840000  0.75000000  1.0 -0.2212848645
C  C127  1  0.94260000  0.37510000  0.75000000  1.0 -0.0706018332
C  C128  1  0.37100000  0.31480000  0.75000000  1.0 -0.2101621113
C  C129  1  0.35310000  0.41500000  0.75000000  1.0 0.1290972585
C  C130  1  0.01600000  0.67380000  0.75000000  1.0 0.1105034064
C  C131  1  0.36170000  0.09750000  0.75000000  1.0 -0.0095263282
C  C132  1  0.12540000  0.75940000  0.75000000  1.0 0.3006442489
C  C133  1  0.91620000  0.55850000  0.75000000  1.0 0.0103448827
C  C134  1  0.83930000  0.50710000  0.75000000  1.0 0.6175188738
C  C135  1  0.47320000  0.12670000  0.75000000  1.0 0.0724582765
C  C136  1  0.18670000  0.83240000  0.75000000  1.0 0.0310374131
C  C137  1  0.30370000  0.96650000  0.75000000  1.0 0.1290972585
C  C138  1  0.31290000  0.90950000  0.75000000  1.0 -0.1757418383
C  C139  1  0.25450000  0.84170000  0.75000000  1.0 -0.0866405871
C  C140  1  0.17790000  0.89030000  0.75000000  1.0 -0.1196307969
C  C141  1  0.23740000  0.95900000  0.75000000  1.0 -0.2212848645
C  C142  1  0.43250000  0.05740000  0.75000000  1.0 -0.0706018332
C  C143  1  0.94380000  0.62900000  0.75000000  1.0 -0.2101621113
C  C144  1  0.06190000  0.64690000  0.75000000  1.0 0.1290972585
C  C145  1  0.65780000  0.98400000  0.75000000  1.0 0.1105034064
C  C146  1  0.73580000  0.63830000  0.75000000  1.0 -0.0095263282
C  C147  1  0.63400000  0.87460000  0.75000000  1.0 0.3006442489
C  C148  1  0.64230000  0.08380000  0.75000000  1.0 0.0103448827
C  C149  1  0.66780000  0.16070000  0.75000000  1.0 0.6175188738
C  C150  1  0.65350000  0.52680000  0.75000000  1.0 0.0724582765
C  C151  1  0.64570000  0.81330000  0.75000000  1.0 0.0310374131
C  C152  1  0.66280000  0.69630000  0.75000000  1.0 0.1290972585
C  C153  1  0.59660000  0.68710000  0.75000000  1.0 -0.1757418383
C  C154  1  0.58720000  0.74550000  0.75000000  1.0 -0.0866405871
C  C155  1  0.71240000  0.82210000  0.75000000  1.0 -0.1196307969
C  C156  1  0.72160000  0.76260000  0.75000000  1.0 -0.2212848645
C  C157  1  0.62490000  0.56750000  0.75000000  1.0 -0.0706018332
C  C158  1  0.68520000  0.05620000  0.75000000  1.0 -0.2101621113
C  C159  1  0.58500000  0.93810000  0.75000000  1.0 0.1290972585
C  C160  1  0.57820000  0.05560000  0.42460000  1.0 -0.1694999658
C  C161  1  0.92800000  0.29670000  0.41470000  1.0 -0.1694999658
C  C162  1  0.64820000  0.07190000  0.42210000  1.0 0.1391203728
C  C163  1  0.54380000  0.93130000  0.42520000  1.0 -0.0301528313
C  C164  1  0.61250000  0.94660000  0.42230000  1.0 -0.2101621113
C  C165  1  0.85690000  0.24550000  0.41580000  1.0 -0.0866405871
C  C166  1  0.83700000  0.17510000  0.42120000  1.0 0.0103448827
C  C167  1  0.52640000  0.98480000  0.42610000  1.0 -0.136733098
C  C168  1  0.97810000  0.27720000  0.41710000  1.0 0.1608442608
C  C169  1  0.08420000  0.39880000  0.41920000  1.0 0.1391203728
C  C170  1  0.66390000  0.01740000  0.42040000  1.0 0.1105034064
C  C171  1  0.48490000  0.85570000  0.42590000  1.0 0.6319340386
C  C172  1  0.76130000  0.12130000  0.42100000  1.0 0.3006442489
C  C173  1  0.95850000  0.20650000  0.42320000  1.0 -0.1869980898
C  C174  1  0.88860000  0.15610000  0.42530000  1.0 -0.1285229481
C  C175  1  0.53150000  0.57190000  0.28000000  1.0 -0.0706018332
C  C176  1  0.57580000  0.54270000  0.28190000  1.0 -0.016666848
C  C177  1  0.16430000  0.37730000  0.38930000  1.0 -0.0301528313
C  C178  1  0.10260000  0.31470000  0.39290000  1.0 -0.1055598315
C  C179  1  0.47740000  0.42180000  0.42460000  1.0 -0.1757418383
C  C180  1  0.36870000  0.07200000  0.41470000  1.0 -0.1694999658
C  C181  1  0.42370000  0.35180000  0.42210000  1.0 0.1391203728
C  C182  1  0.38750000  0.45620000  0.42520000  1.0 -0.0301528313
C  C183  1  0.33410000  0.38750000  0.42230000  1.0 -0.2101621113
C  C184  1  0.38860000  0.14310000  0.41580000  1.0 -0.0866405871
C  C185  1  0.33810000  0.16300000  0.42120000  1.0 0.0103448827
C  C186  1  0.45840000  0.47360000  0.42610000  1.0 -0.136733098
C  C187  1  0.29910000  0.02190000  0.41710000  1.0 0.1608442608
C  C188  1  0.31460000  0.91580000  0.41920000  1.0 0.1391203728
C  C189  1  0.35350000  0.33610000  0.42040000  1.0 0.1105034064
C  C190  1  0.37080000  0.51510000  0.42590000  1.0 0.6319340386
C  C191  1  0.36000000  0.23870000  0.42100000  1.0 0.3006442489
C  C192  1  0.24800000  0.04150000  0.42320000  1.0 -0.1869980898
C  C193  1  0.26750000  0.11140000  0.42530000  1.0 -0.1285229481
C  C194  1  0.04040000  0.46850000  0.28000000  1.0 -0.0706018332
C  C195  1  0.96690000  0.42420000  0.28190000  1.0 -0.016666848
C  C196  1  0.21300000  0.83570000  0.38930000  1.0 -0.0301528313
C  C197  1  0.21210000  0.89740000  0.39290000  1.0 -0.1055598315
C  C198  1  0.94440000  0.52260000  0.42460000  1.0 -0.1694999658
C  C199  1  0.70330000  0.63130000  0.41470000  1.0 -0.1694999658
C  C200  1  0.92810000  0.57630000  0.42210000  1.0 0.1391203728
C  C201  1  0.06870000  0.61250000  0.42520000  1.0 -0.0301528313
C  C202  1  0.05340000  0.66590000  0.42230000  1.0 -0.2101621113
C  C203  1  0.75450000  0.61140000  0.41580000  1.0 -0.0866405871
C  C204  1  0.82490000  0.66190000  0.42120000  1.0 0.0103448827
C  C205  1  0.01520000  0.54160000  0.42610000  1.0 -0.136733098
C  C206  1  0.72280000  0.70090000  0.41710000  1.0 0.1608442608
C  C207  1  0.60120000  0.68540000  0.41920000  1.0 0.1391203728
C  C208  1  0.98260000  0.64650000  0.42040000  1.0 0.1105034064
C  C209  1  0.14430000  0.62920000  0.42590000  1.0 0.6319340386
C  C210  1  0.87870000  0.64000000  0.42100000  1.0 0.3006442489
C  C211  1  0.79350000  0.75200000  0.42320000  1.0 -0.1869980898
C  C212  1  0.84390000  0.73250000  0.42530000  1.0 -0.1285229481
C  C213  1  0.42810000  0.95960000  0.28000000  1.0 -0.0706018332
C  C214  1  0.45730000  0.03310000  0.28190000  1.0 -0.016666848
C  C215  1  0.62270000  0.78700000  0.38930000  1.0 -0.0301528313
C  C216  1  0.68530000  0.78790000  0.39290000  1.0 -0.1055598315
C  C217  1  0.57820000  0.05560000  0.07540000  1.0 -0.1694999658
C  C218  1  0.92800000  0.29670000  0.08530000  1.0 -0.1694999658
C  C219  1  0.64820000  0.07190000  0.07790000  1.0 0.1391203728
C  C220  1  0.54380000  0.93130000  0.07480000  1.0 -0.0301528313
C  C221  1  0.61250000  0.94660000  0.07770000  1.0 -0.2101621113
C  C222  1  0.85690000  0.24550000  0.08420000  1.0 -0.0866405871
C  C223  1  0.83700000  0.17510000  0.07880000  1.0 0.0103448827
C  C224  1  0.52640000  0.98480000  0.07390000  1.0 -0.136733098
C  C225  1  0.97810000  0.27720000  0.08290000  1.0 0.1608442608
C  C226  1  0.08420000  0.39880000  0.08080000  1.0 0.1391203728
C  C227  1  0.66390000  0.01740000  0.07960000  1.0 0.1105034064
C  C228  1  0.48490000  0.85570000  0.07410000  1.0 0.6319340386
C  C229  1  0.76130000  0.12130000  0.07900000  1.0 0.3006442489
C  C230  1  0.95850000  0.20650000  0.07680000  1.0 -0.1869980898
C  C231  1  0.88860000  0.15610000  0.07470000  1.0 -0.1285229481
C  C232  1  0.53150000  0.57190000  0.22000000  1.0 -0.0706018332
C  C233  1  0.57580000  0.54270000  0.21810000  1.0 -0.016666848
C  C234  1  0.16430000  0.37730000  0.11070000  1.0 -0.0301528313
C  C235  1  0.10260000  0.31470000  0.10710000  1.0 -0.1055598315
C  C236  1  0.47740000  0.42180000  0.07540000  1.0 -0.1694999658
C  C237  1  0.36870000  0.07200000  0.08530000  1.0 -0.1694999658
C  C238  1  0.42370000  0.35180000  0.07790000  1.0 0.1391203728
C  C239  1  0.38750000  0.45620000  0.07480000  1.0 -0.0301528313
C  C240  1  0.33410000  0.38750000  0.07770000  1.0 -0.2101621113
C  C241  1  0.38860000  0.14310000  0.08420000  1.0 -0.0866405871
C  C242  1  0.33810000  0.16300000  0.07880000  1.0 0.0103448827
C  C243  1  0.45840000  0.47360000  0.07390000  1.0 -0.136733098
C  C244  1  0.29910000  0.02190000  0.08290000  1.0 0.1608442608
C  C245  1  0.31460000  0.91580000  0.08080000  1.0 0.1391203728
C  C246  1  0.35350000  0.33610000  0.07960000  1.0 0.1105034064
C  C247  1  0.37080000  0.51510000  0.07410000  1.0 0.6319340386
C  C248  1  0.36000000  0.23870000  0.07900000  1.0 0.3006442489
C  C249  1  0.24800000  0.04150000  0.07680000  1.0 -0.1869980898
C  C250  1  0.26750000  0.11140000  0.07470000  1.0 -0.1285229481
C  C251  1  0.04040000  0.46850000  0.22000000  1.0 -0.0706018332
C  C252  1  0.96690000  0.42420000  0.21810000  1.0 -0.016666848
C  C253  1  0.21300000  0.83570000  0.11070000  1.0 -0.0301528313
C  C254  1  0.21210000  0.89740000  0.10710000  1.0 -0.1055598315
C  C255  1  0.94440000  0.52260000  0.07540000  1.0 -0.1694999658
C  C256  1  0.70330000  0.63130000  0.08530000  1.0 -0.1694999658
C  C257  1  0.92810000  0.57630000  0.07790000  1.0 0.1391203728
C  C258  1  0.06870000  0.61250000  0.07480000  1.0 -0.0301528313
C  C259  1  0.05340000  0.66590000  0.07770000  1.0 -0.2101621113
C  C260  1  0.75450000  0.61140000  0.08420000  1.0 -0.0866405871
C  C261  1  0.82490000  0.66190000  0.07880000  1.0 0.0103448827
C  C262  1  0.01520000  0.54160000  0.07390000  1.0 -0.136733098
C  C263  1  0.72280000  0.70090000  0.08290000  1.0 0.1608442608
C  C264  1  0.60120000  0.68540000  0.08080000  1.0 0.1391203728
C  C265  1  0.98260000  0.64650000  0.07960000  1.0 0.1105034064
C  C266  1  0.14430000  0.62920000  0.07410000  1.0 0.6319340386
C  C267  1  0.87870000  0.64000000  0.07900000  1.0 0.3006442489
C  C268  1  0.79350000  0.75200000  0.07680000  1.0 -0.1869980898
C  C269  1  0.84390000  0.73250000  0.07470000  1.0 -0.1285229481
C  C270  1  0.42810000  0.95960000  0.22000000  1.0 -0.0706018332
C  C271  1  0.45730000  0.03310000  0.21810000  1.0 -0.016666848
C  C272  1  0.62270000  0.78700000  0.11070000  1.0 -0.0301528313
C  C273  1  0.68530000  0.78790000  0.10710000  1.0 -0.1055598315
C  C274  1  0.67380000  0.65780000  0.25000000  1.0 0.1105034064
C  C275  1  0.09750000  0.73580000  0.25000000  1.0 -0.0095263282
C  C276  1  0.75940000  0.63400000  0.25000000  1.0 0.3006442489
C  C277  1  0.55850000  0.64230000  0.25000000  1.0 0.0103448827
C  C278  1  0.50710000  0.66780000  0.25000000  1.0 0.6175188738
C  C279  1  0.12670000  0.65350000  0.25000000  1.0 0.0724582765
C  C280  1  0.83240000  0.64570000  0.25000000  1.0 0.0310374131
C  C281  1  0.96650000  0.66280000  0.25000000  1.0 0.1290972585
C  C282  1  0.90950000  0.59660000  0.25000000  1.0 -0.1757418383
C  C283  1  0.84170000  0.58720000  0.25000000  1.0 -0.0866405871
C  C284  1  0.89030000  0.71240000  0.25000000  1.0 -0.1196307969
C  C285  1  0.95900000  0.72160000  0.25000000  1.0 -0.2212848645
C  C286  1  0.05740000  0.62490000  0.25000000  1.0 -0.0706018332
C  C287  1  0.62900000  0.68520000  0.25000000  1.0 -0.2101621113
C  C288  1  0.64690000  0.58500000  0.25000000  1.0 0.1290972585
C  C289  1  0.98400000  0.32620000  0.25000000  1.0 0.1105034064
C  C290  1  0.63830000  0.90250000  0.25000000  1.0 -0.0095263282
C  C291  1  0.87460000  0.24060000  0.25000000  1.0 0.3006442489
C  C292  1  0.08380000  0.44150000  0.25000000  1.0 0.0103448827
C  C293  1  0.16070000  0.49290000  0.25000000  1.0 0.6175188738
C  C294  1  0.52680000  0.87330000  0.25000000  1.0 0.0724582765
C  C295  1  0.81330000  0.16760000  0.25000000  1.0 0.0310374131
C  C296  1  0.69630000  0.03350000  0.25000000  1.0 0.1290972585
C  C297  1  0.68710000  0.09050000  0.25000000  1.0 -0.1757418383
C  C298  1  0.74550000  0.15830000  0.25000000  1.0 -0.0866405871
C  C299  1  0.82210000  0.10970000  0.25000000  1.0 -0.1196307969
C  C300  1  0.76260000  0.04100000  0.25000000  1.0 -0.2212848645
C  C301  1  0.56750000  0.94260000  0.25000000  1.0 -0.0706018332
C  C302  1  0.05620000  0.37100000  0.25000000  1.0 -0.2101621113
C  C303  1  0.93810000  0.35310000  0.25000000  1.0 0.1290972585
C  C304  1  0.34220000  0.01600000  0.25000000  1.0 0.1105034064
C  C305  1  0.26420000  0.36170000  0.25000000  1.0 -0.0095263282
C  C306  1  0.36600000  0.12540000  0.25000000  1.0 0.3006442489
C  C307  1  0.35770000  0.91620000  0.25000000  1.0 0.0103448827
C  C308  1  0.33220000  0.83930000  0.25000000  1.0 0.6175188738
C  C309  1  0.34650000  0.47320000  0.25000000  1.0 0.0724582765
C  C310  1  0.35430000  0.18670000  0.25000000  1.0 0.0310374131
C  C311  1  0.33720000  0.30370000  0.25000000  1.0 0.1290972585
C  C312  1  0.40340000  0.31290000  0.25000000  1.0 -0.1757418383
C  C313  1  0.41280000  0.25450000  0.25000000  1.0 -0.0866405871
C  C314  1  0.28760000  0.17790000  0.25000000  1.0 -0.1196307969
C  C315  1  0.27840000  0.23740000  0.25000000  1.0 -0.2212848645
C  C316  1  0.37510000  0.43250000  0.25000000  1.0 -0.0706018332
C  C317  1  0.31480000  0.94380000  0.25000000  1.0 -0.2101621113
C  C318  1  0.41500000  0.06190000  0.25000000  1.0 0.1290972585
N  N1  1  0.94910000  0.67230000  0.91420000  1.0 -0.0006375793
N  N2  1  0.26340000  0.94920000  0.91920000  1.0 -0.3212436395
N  N3  1  0.29040000  0.86360000  0.92170000  1.0 -0.4088091561
N  N4  1  0.84860000  0.57040000  0.91410000  1.0 -0.387452392
N  N5  1  0.72320000  0.05090000  0.91420000  1.0 -0.0006375793
N  N6  1  0.68580000  0.73660000  0.91920000  1.0 -0.3212436395
N  N7  1  0.57320000  0.70960000  0.92170000  1.0 -0.4088091561
N  N8  1  0.72180000  0.15140000  0.91410000  1.0 -0.387452392
N  N9  1  0.32770000  0.27680000  0.91420000  1.0 -0.0006375793
N  N10  1  0.05080000  0.31420000  0.91920000  1.0 -0.3212436395
N  N11  1  0.13640000  0.42680000  0.92170000  1.0 -0.4045751375
N  N12  1  0.42960000  0.27820000  0.91410000  1.0 -0.387452392
N  N13  1  0.94910000  0.67230000  0.58580000  1.0 -0.0006375793
N  N14  1  0.26340000  0.94920000  0.58080000  1.0 -0.3212436395
N  N15  1  0.29040000  0.86360000  0.57830000  1.0 -0.4088091561
N  N16  1  0.84860000  0.57040000  0.58590000  1.0 -0.387452392
N  N17  1  0.72320000  0.05090000  0.58580000  1.0 -0.0006375793
N  N18  1  0.68580000  0.73660000  0.58080000  1.0 -0.3212436395
N  N19  1  0.57320000  0.70960000  0.57830000  1.0 -0.4045751375
N  N20  1  0.72180000  0.15140000  0.58590000  1.0 -0.387452392
N  N21  1  0.32770000  0.27680000  0.58580000  1.0 -0.0006375793
N  N22  1  0.05080000  0.31420000  0.58080000  1.0 -0.3212436395
N  N23  1  0.13640000  0.42680000  0.57830000  1.0 -0.4045751375
N  N24  1  0.42960000  0.27820000  0.58590000  1.0 -0.387452392
N  N25  1  0.25350000  0.31190000  0.75000000  1.0 -0.4366689604
N  N26  1  0.96240000  0.32630000  0.75000000  1.0 0.0103448827
N  N27  1  0.84990000  0.28250000  0.75000000  1.0 -0.0473530895
N  N28  1  0.29760000  0.42670000  0.75000000  1.0 -0.4088091561
N  N29  1  0.05840000  0.74650000  0.75000000  1.0 -0.4366689604
N  N30  1  0.36390000  0.03760000  0.75000000  1.0 0.0103448827
N  N31  1  0.43260000  0.15010000  0.75000000  1.0 -0.0473530895
N  N32  1  0.12910000  0.70240000  0.75000000  1.0 -0.4088091561
N  N33  1  0.68810000  0.94160000  0.75000000  1.0 -0.4366689604
N  N34  1  0.67370000  0.63610000  0.75000000  1.0 0.0103448827
N  N35  1  0.71750000  0.56740000  0.75000000  1.0 -0.0473530895
N  N36  1  0.57330000  0.87090000  0.75000000  1.0 -0.4088091561
N  N37  1  0.05090000  0.32770000  0.41420000  1.0 -0.0006375793
N  N38  1  0.73660000  0.05080000  0.41920000  1.0 -0.3212436395
N  N39  1  0.70960000  0.13640000  0.42170000  1.0 -0.4045751375
N  N40  1  0.15140000  0.42960000  0.41410000  1.0 -0.387452392
N  N41  1  0.27680000  0.94910000  0.41420000  1.0 -0.0006375793
N  N42  1  0.31420000  0.26340000  0.41920000  1.0 -0.3212436395
N  N43  1  0.42680000  0.29040000  0.42170000  1.0 -0.4088091561
N  N44  1  0.27820000  0.84860000  0.41410000  1.0 -0.387452392
N  N45  1  0.67230000  0.72320000  0.41420000  1.0 -0.0006375793
N  N46  1  0.94920000  0.68580000  0.41920000  1.0 -0.3212436395
N  N47  1  0.86360000  0.57320000  0.42170000  1.0 -0.4045751375
N  N48  1  0.57040000  0.72180000  0.41410000  1.0 -0.387452392
N  N49  1  0.05090000  0.32770000  0.08580000  1.0 -0.0006375793
N  N50  1  0.73660000  0.05080000  0.08080000  1.0 -0.3212436395
N  N51  1  0.70960000  0.13640000  0.07830000  1.0 -0.4045751375
N  N52  1  0.15140000  0.42960000  0.08590000  1.0 -0.387452392
N  N53  1  0.27680000  0.94910000  0.08580000  1.0 -0.0006375793
N  N54  1  0.31420000  0.26340000  0.08080000  1.0 -0.3212436395
N  N55  1  0.42680000  0.29040000  0.07830000  1.0 -0.4088091561
N  N56  1  0.27820000  0.84860000  0.08590000  1.0 -0.387452392
N  N57  1  0.67230000  0.72320000  0.08580000  1.0 -0.0006375793
N  N58  1  0.94920000  0.68580000  0.08080000  1.0 -0.3212436395
N  N59  1  0.86360000  0.57320000  0.07830000  1.0 -0.4045751375
N  N60  1  0.57040000  0.72180000  0.08590000  1.0 -0.387452392
N  N61  1  0.74650000  0.68810000  0.25000000  1.0 -0.4366689604
N  N62  1  0.03760000  0.67370000  0.25000000  1.0 0.0103448827
N  N63  1  0.15010000  0.71750000  0.25000000  1.0 -0.0473530895
N  N64  1  0.70240000  0.57330000  0.25000000  1.0 -0.4088091561
N  N65  1  0.94160000  0.25350000  0.25000000  1.0 -0.4366689604
N  N66  1  0.63610000  0.96240000  0.25000000  1.0 0.0103448827
N  N67  1  0.56740000  0.84990000  0.25000000  1.0 -0.0473530895
N  N68  1  0.87090000  0.29760000  0.25000000  1.0 -0.4088091561
N  N69  1  0.31190000  0.05840000  0.25000000  1.0 -0.4366689604
N  N70  1  0.32630000  0.36390000  0.25000000  1.0 0.0103448827
N  N71  1  0.28250000  0.43260000  0.25000000  1.0 -0.0473530895
N  N72  1  0.42670000  0.12910000  0.25000000  1.0 -0.4088091561
O  O1  1  0.57770000  0.15520000  0.92770000  1.0 -0.6447167676
O  O2  1  0.49950000  0.19200000  0.92470000  1.0 -0.6107920589
O  O3  1  0.59990000  0.25550000  0.82960000  1.0 -1.0672221563
O  O4  1  0.51200000  0.32100000  0.80080000  1.0 -0.5359225479
O  O5  1  0.57750000  0.42230000  0.92770000  1.0 -0.6447167676
O  O6  1  0.69250000  0.50050000  0.92470000  1.0 -0.6107920589
O  O7  1  0.65560000  0.40010000  0.82960000  1.0 -1.0672221563
O  O8  1  0.80900000  0.48800000  0.80080000  1.0 -0.5346989315
O  O9  1  0.84480000  0.42250000  0.92770000  1.0 -0.6447167676
O  O10  1  0.80800000  0.30750000  0.92470000  1.0 -0.6107920589
O  O11  1  0.74450000  0.34440000  0.82960000  1.0 -1.0672221563
O  O12  1  0.67900000  0.19100000  0.80080000  1.0 -0.5346989315
O  O13  1  0.57770000  0.15520000  0.57230000  1.0 -0.6447167676
O  O14  1  0.49950000  0.19200000  0.57530000  1.0 -0.6107920589
O  O15  1  0.59990000  0.25550000  0.67040000  1.0 -1.0672221563
O  O16  1  0.51200000  0.32100000  0.69920000  1.0 -0.5346989315
O  O17  1  0.57750000  0.42230000  0.57230000  1.0 -0.6447167676
O  O18  1  0.69250000  0.50050000  0.57530000  1.0 -0.6107920589
O  O19  1  0.65560000  0.40010000  0.67040000  1.0 -1.0672221563
O  O20  1  0.80900000  0.48800000  0.69920000  1.0 -0.5346989315
O  O21  1  0.84480000  0.42250000  0.57230000  1.0 -0.6447167676
O  O22  1  0.80800000  0.30750000  0.57530000  1.0 -0.6107920589
O  O23  1  0.74450000  0.34440000  0.67040000  1.0 -1.0672221563
O  O24  1  0.67900000  0.19100000  0.69920000  1.0 -0.5359225479
O  O25  1  0.66666667  0.33333333  0.94170000  1.0 -1.2008779925
O  O26  1  0.66666667  0.33333333  0.55830000  1.0 -1.2008779925
O  O27  1  0.42230000  0.84480000  0.42770000  1.0 -0.6450660509
O  O28  1  0.50050000  0.80800000  0.42470000  1.0 -0.6107920589
O  O29  1  0.40010000  0.74450000  0.32960000  1.0 -1.0672221563
O  O30  1  0.48800000  0.67900000  0.30080000  1.0 -0.5359225479
O  O31  1  0.42250000  0.57770000  0.42770000  1.0 -0.6450660509
O  O32  1  0.30750000  0.49950000  0.42470000  1.0 -0.6107920589
O  O33  1  0.34440000  0.59990000  0.32960000  1.0 -1.0672221563
O  O34  1  0.19100000  0.51200000  0.30080000  1.0 -0.5359225479
O  O35  1  0.15520000  0.57750000  0.42770000  1.0 -0.6447167676
O  O36  1  0.19200000  0.69250000  0.42470000  1.0 -0.6107920589
O  O37  1  0.25550000  0.65560000  0.32960000  1.0 -1.0672221563
O  O38  1  0.32100000  0.80900000  0.30080000  1.0 -0.5359225479
O  O39  1  0.42230000  0.84480000  0.07230000  1.0 -0.6447167676
O  O40  1  0.50050000  0.80800000  0.07530000  1.0 -0.6107920589
O  O41  1  0.40010000  0.74450000  0.17040000  1.0 -1.0672221563
O  O42  1  0.48800000  0.67900000  0.19920000  1.0 -0.5359225479
O  O43  1  0.42250000  0.57770000  0.07230000  1.0 -0.6447167676
O  O44  1  0.30750000  0.49950000  0.07530000  1.0 -0.6107920589
O  O45  1  0.34440000  0.59990000  0.17040000  1.0 -1.0672221563
O  O46  1  0.19100000  0.51200000  0.19920000  1.0 -0.5359225479
O  O47  1  0.15520000  0.57750000  0.07230000  1.0 -0.6447167676
O  O48  1  0.19200000  0.69250000  0.07530000  1.0 -0.6107920589
O  O49  1  0.25550000  0.65560000  0.17040000  1.0 -1.0672221563
O  O50  1  0.32100000  0.80900000  0.19920000  1.0 -0.5359225479
O  O51  1  0.33333333  0.66666667  0.44170000  1.0 -1.2008779925
O  O52  1  0.33333333  0.66666667  0.05830000  1.0 -1.2008779925
