# DDEC6 charges by PACMAN v1.1 (https://github.com/mtap-research/PACMAN-charge/)
data_AHIJOT_ion_pacman
_symmetry_space_group_name_H-M   'P 1'
_cell_length_a   21.96240000
_cell_length_b   21.96240000
_cell_length_c   20.86250000
_cell_angle_alpha   90.00000000
_cell_angle_beta   90.00000000
_cell_angle_gamma   120.00000000
_symmetry_Int_Tables_number   1
_chemical_formula_structural   Gd7H117C171N36(ClO16)2
_chemical_formula_sum   'Gd14 H234 C342 N72 Cl4 O64'
_cell_volume   8714.78295896
_cell_formula_units_Z   2
loop_
 _symmetry_equiv_pos_site_id
 _symmetry_equiv_pos_as_xyz
  1  'x, y, z'
loop_
 _atom_site_type_symbol
 _atom_site_label
 _atom_site_symmetry_multiplicity
 _atom_site_fract_x
 _atom_site_fract_y
 _atom_site_fract_z
 _atom_site_occupancy
 _atom_site_charge
Gd  Gd1  1  0.44382000  0.68776000  0.89783000  1.0 1.9944173261
Gd  Gd2  1  0.24394000  0.55618000  0.89783000  1.0 1.9944173261
Gd  Gd3  1  0.31224000  0.75606000  0.89783000  1.0 1.9944173261
Gd  Gd4  1  0.44382000  0.68776000  0.60217000  1.0 1.9944173261
Gd  Gd5  1  0.24394000  0.55618000  0.60217000  1.0 1.9944173261
Gd  Gd6  1  0.31224000  0.75606000  0.60217000  1.0 1.9944173261
Gd  Gd7  1  0.33333333  0.66666667  0.75000000  1.0 2.0807001157
Gd  Gd8  1  0.55618000  0.31224000  0.39783000  1.0 1.9944173261
Gd  Gd9  1  0.75606000  0.44382000  0.39783000  1.0 1.9944173261
Gd  Gd10  1  0.68776000  0.24394000  0.39783000  1.0 1.9944173261
Gd  Gd11  1  0.55618000  0.31224000  0.10217000  1.0 1.9944173261
Gd  Gd12  1  0.75606000  0.44382000  0.10217000  1.0 1.9944173261
Gd  Gd13  1  0.68776000  0.24394000  0.10217000  1.0 1.9944173261
Gd  Gd14  1  0.66666667  0.33333333  0.25000000  1.0 2.0807001157
H  H1  1  0.44823000  0.72781000  0.03407000  1.0 0.3944393261
H  H2  1  0.50327000  0.70962000  0.02887000  1.0 0.3501404687
H  H3  1  0.76257000  0.03142000  0.91758000  1.0 0.2894626659
H  H4  1  0.94109000  0.34505000  0.91178000  1.0 0.1413989267
H  H5  1  0.56603000  0.09142000  0.92466000  1.0 0.1413989267
H  H6  1  0.82130000  0.25933000  0.91198000  1.0 0.120648621
H  H7  1  0.47923000  0.97327000  0.92815000  1.0 0.120648621
H  H8  1  0.62501000  0.91176000  0.92162000  1.0 0.120648621
H  H9  1  0.05763000  0.42218000  0.92522000  1.0 0.120648621
H  H10  1  0.99223000  0.19333000  0.92463000  1.0 0.120648621
H  H11  1  0.87368000  0.10875000  0.93103000  1.0 0.120648621
H  H12  1  0.20486000  0.38372000  0.86737000  1.0 0.1124254531
H  H13  1  0.09542000  0.26916000  0.87453000  1.0 0.1124254531
H  H14  1  0.20574000  0.38346000  0.95383000  1.0 0.1124254531
H  H15  1  0.09289000  0.26815000  0.95696000  1.0 0.1124254531
H  H16  1  0.27958000  0.55177000  0.03407000  1.0 0.3944393261
H  H17  1  0.20635000  0.49673000  0.02887000  1.0 0.3501404687
H  H18  1  0.26885000  0.23743000  0.91758000  1.0 0.2894626659
H  H19  1  0.40396000  0.05891000  0.91178000  1.0 0.1413989267
H  H20  1  0.52539000  0.43397000  0.92466000  1.0 0.1413989267
H  H21  1  0.43803000  0.17870000  0.91198000  1.0 0.120648621
H  H22  1  0.49404000  0.52077000  0.92815000  1.0 0.120648621
H  H23  1  0.28675000  0.37499000  0.92162000  1.0 0.120648621
H  H24  1  0.36455000  0.94237000  0.92522000  1.0 0.120648621
H  H25  1  0.20110000  0.00777000  0.92463000  1.0 0.120648621
H  H26  1  0.23507000  0.12632000  0.93103000  1.0 0.120648621
H  H27  1  0.17886000  0.79514000  0.86737000  1.0 0.1124254531
H  H28  1  0.17374000  0.90458000  0.87453000  1.0 0.1124254531
H  H29  1  0.17772000  0.79426000  0.95383000  1.0 0.1124254531
H  H30  1  0.17526000  0.90711000  0.95696000  1.0 0.1124254531
H  H31  1  0.27219000  0.72042000  0.03407000  1.0 0.3944393261
H  H32  1  0.29038000  0.79365000  0.02887000  1.0 0.3501404687
H  H33  1  0.96858000  0.73115000  0.91758000  1.0 0.2894626659
H  H34  1  0.65495000  0.59604000  0.91178000  1.0 0.1413989267
H  H35  1  0.90858000  0.47461000  0.92466000  1.0 0.1413989267
H  H36  1  0.74067000  0.56197000  0.91198000  1.0 0.120648621
H  H37  1  0.02673000  0.50596000  0.92815000  1.0 0.120648621
H  H38  1  0.08824000  0.71325000  0.92162000  1.0 0.120648621
H  H39  1  0.57782000  0.63545000  0.92522000  1.0 0.120648621
H  H40  1  0.80667000  0.79890000  0.92463000  1.0 0.120648621
H  H41  1  0.89125000  0.76493000  0.93103000  1.0 0.120648621
H  H42  1  0.61628000  0.82114000  0.86737000  1.0 0.1124254531
H  H43  1  0.73084000  0.82626000  0.87453000  1.0 0.1124254531
H  H44  1  0.61654000  0.82228000  0.95383000  1.0 0.1124254531
H  H45  1  0.73185000  0.82474000  0.95696000  1.0 0.1124254531
H  H46  1  0.44823000  0.72781000  0.46593000  1.0 0.3944393261
H  H47  1  0.50327000  0.70962000  0.47113000  1.0 0.3501404687
H  H48  1  0.76257000  0.03142000  0.58242000  1.0 0.2894626659
H  H49  1  0.94109000  0.34505000  0.58822000  1.0 0.1413989267
H  H50  1  0.56603000  0.09142000  0.57534000  1.0 0.1413989267
H  H51  1  0.82130000  0.25933000  0.58802000  1.0 0.120648621
H  H52  1  0.47923000  0.97327000  0.57185000  1.0 0.120648621
H  H53  1  0.62501000  0.91176000  0.57838000  1.0 0.120648621
H  H54  1  0.05763000  0.42218000  0.57478000  1.0 0.120648621
H  H55  1  0.99223000  0.19333000  0.57537000  1.0 0.1302811056
H  H56  1  0.87368000  0.10875000  0.56897000  1.0 0.120648621
H  H57  1  0.20486000  0.38372000  0.63263000  1.0 0.1124254531
H  H58  1  0.09542000  0.26916000  0.62547000  1.0 0.1124254531
H  H59  1  0.20574000  0.38346000  0.54617000  1.0 0.1124254531
H  H60  1  0.09289000  0.26815000  0.54304000  1.0 0.1124254531
H  H61  1  0.27958000  0.55177000  0.46593000  1.0 0.3944393261
H  H62  1  0.20635000  0.49673000  0.47113000  1.0 0.3501404687
H  H63  1  0.26885000  0.23743000  0.58242000  1.0 0.2894626659
H  H64  1  0.40396000  0.05891000  0.58822000  1.0 0.1413989267
H  H65  1  0.52539000  0.43397000  0.57534000  1.0 0.1413989267
H  H66  1  0.43803000  0.17870000  0.58802000  1.0 0.120648621
H  H67  1  0.49404000  0.52077000  0.57185000  1.0 0.120648621
H  H68  1  0.28675000  0.37499000  0.57838000  1.0 0.120648621
H  H69  1  0.36455000  0.94237000  0.57478000  1.0 0.120648621
H  H70  1  0.20110000  0.00777000  0.57537000  1.0 0.1302811056
H  H71  1  0.23507000  0.12632000  0.56897000  1.0 0.120648621
H  H72  1  0.17886000  0.79514000  0.63263000  1.0 0.1124254531
H  H73  1  0.17374000  0.90458000  0.62547000  1.0 0.1124254531
H  H74  1  0.17772000  0.79426000  0.54617000  1.0 0.1124254531
H  H75  1  0.17526000  0.90711000  0.54304000  1.0 0.1124254531
H  H76  1  0.27219000  0.72042000  0.46593000  1.0 0.3944393261
H  H77  1  0.29038000  0.79365000  0.47113000  1.0 0.3501404687
H  H78  1  0.96858000  0.73115000  0.58242000  1.0 0.2894626659
H  H79  1  0.65495000  0.59604000  0.58822000  1.0 0.1413989267
H  H80  1  0.90858000  0.47461000  0.57534000  1.0 0.1413989267
H  H81  1  0.74067000  0.56197000  0.58802000  1.0 0.120648621
H  H82  1  0.02673000  0.50596000  0.57185000  1.0 0.120648621
H  H83  1  0.08824000  0.71325000  0.57838000  1.0 0.120648621
H  H84  1  0.57782000  0.63545000  0.57478000  1.0 0.120648621
H  H85  1  0.80667000  0.79890000  0.57537000  1.0 0.1302811056
H  H86  1  0.89125000  0.76493000  0.56897000  1.0 0.120648621
H  H87  1  0.61628000  0.82114000  0.63263000  1.0 0.1124254531
H  H88  1  0.73084000  0.82626000  0.62547000  1.0 0.1124254531
H  H89  1  0.61654000  0.82228000  0.54617000  1.0 0.1124254531
H  H90  1  0.73185000  0.82474000  0.54304000  1.0 0.1124254531
H  H91  1  0.10177000  0.78084000  0.75000000  1.0 0.1124254531
H  H92  1  0.77594000  0.73132000  0.75000000  1.0 0.2894626659
H  H93  1  0.64790000  0.73419000  0.75000000  1.0 0.120648621
H  H94  1  0.19755000  0.75389000  0.75000000  1.0 0.120648621
H  H95  1  0.91576000  0.55877000  0.75000000  1.0 0.1302811056
H  H96  1  0.80280000  0.54256000  0.75000000  1.0 0.1302811056
H  H97  1  0.99723000  0.76740000  0.75000000  1.0 0.1302811056
H  H98  1  0.88362000  0.75088000  0.75000000  1.0 0.1302811056
H  H99  1  0.02275000  0.57704000  0.75000000  1.0 0.102918969
H  H100  1  0.67907000  0.89823000  0.75000000  1.0 0.1124254531
H  H101  1  0.95538000  0.22406000  0.75000000  1.0 0.2894626659
H  H102  1  0.08629000  0.35210000  0.75000000  1.0 0.120648621
H  H103  1  0.55634000  0.80245000  0.75000000  1.0 0.120648621
H  H104  1  0.64301000  0.08424000  0.75000000  1.0 0.1302811056
H  H105  1  0.73976000  0.19720000  0.75000000  1.0 0.1302811056
H  H106  1  0.77017000  0.00277000  0.75000000  1.0 0.1302811056
H  H107  1  0.86726000  0.11638000  0.75000000  1.0 0.1302811056
H  H108  1  0.55429000  0.97725000  0.75000000  1.0 0.102918969
H  H109  1  0.21916000  0.32093000  0.75000000  1.0 0.1124254531
H  H110  1  0.26868000  0.04462000  0.75000000  1.0 0.2894626659
H  H111  1  0.26581000  0.91371000  0.75000000  1.0 0.120648621
H  H112  1  0.24611000  0.44366000  0.75000000  1.0 0.120648621
H  H113  1  0.44123000  0.35699000  0.75000000  1.0 0.1302811056
H  H114  1  0.45744000  0.26024000  0.75000000  1.0 0.1302811056
H  H115  1  0.23260000  0.22983000  0.75000000  1.0 0.1302811056
H  H116  1  0.24912000  0.13274000  0.75000000  1.0 0.1302811056
H  H117  1  0.42296000  0.44571000  0.75000000  1.0 0.102918969
H  H118  1  0.55177000  0.27219000  0.53407000  1.0 0.3944393261
H  H119  1  0.49673000  0.29038000  0.52887000  1.0 0.3501404687
H  H120  1  0.23743000  0.96858000  0.41758000  1.0 0.2894626659
H  H121  1  0.05891000  0.65495000  0.41178000  1.0 0.1413989267
H  H122  1  0.43397000  0.90858000  0.42466000  1.0 0.1413989267
H  H123  1  0.17870000  0.74067000  0.41198000  1.0 0.120648621
H  H124  1  0.52077000  0.02673000  0.42815000  1.0 0.120648621
H  H125  1  0.37499000  0.08824000  0.42162000  1.0 0.120648621
H  H126  1  0.94237000  0.57782000  0.42522000  1.0 0.120648621
H  H127  1  0.00777000  0.80667000  0.42463000  1.0 0.1302811056
H  H128  1  0.12632000  0.89125000  0.43103000  1.0 0.120648621
H  H129  1  0.79514000  0.61628000  0.36737000  1.0 0.1124254531
H  H130  1  0.90458000  0.73084000  0.37453000  1.0 0.1124254531
H  H131  1  0.79426000  0.61654000  0.45383000  1.0 0.1124254531
H  H132  1  0.90711000  0.73185000  0.45696000  1.0 0.1124254531
H  H133  1  0.72042000  0.44823000  0.53407000  1.0 0.3944393261
H  H134  1  0.79365000  0.50327000  0.52887000  1.0 0.3501404687
H  H135  1  0.73115000  0.76257000  0.41758000  1.0 0.2894626659
H  H136  1  0.59604000  0.94109000  0.41178000  1.0 0.1413989267
H  H137  1  0.47461000  0.56603000  0.42466000  1.0 0.1413989267
H  H138  1  0.56197000  0.82130000  0.41198000  1.0 0.120648621
H  H139  1  0.50596000  0.47923000  0.42815000  1.0 0.120648621
H  H140  1  0.71325000  0.62501000  0.42162000  1.0 0.120648621
H  H141  1  0.63545000  0.05763000  0.42522000  1.0 0.120648621
H  H142  1  0.79890000  0.99223000  0.42463000  1.0 0.1302811056
H  H143  1  0.76493000  0.87368000  0.43103000  1.0 0.120648621
H  H144  1  0.82114000  0.20486000  0.36737000  1.0 0.1124254531
H  H145  1  0.82626000  0.09542000  0.37453000  1.0 0.1124254531
H  H146  1  0.82228000  0.20574000  0.45383000  1.0 0.1124254531
H  H147  1  0.82474000  0.09289000  0.45696000  1.0 0.1124254531
H  H148  1  0.72781000  0.27958000  0.53407000  1.0 0.3944393261
H  H149  1  0.70962000  0.20635000  0.52887000  1.0 0.3501404687
H  H150  1  0.03142000  0.26885000  0.41758000  1.0 0.2894626659
H  H151  1  0.34505000  0.40396000  0.41178000  1.0 0.1413989267
H  H152  1  0.09142000  0.52539000  0.42466000  1.0 0.1413989267
H  H153  1  0.25933000  0.43803000  0.41198000  1.0 0.120648621
H  H154  1  0.97327000  0.49404000  0.42815000  1.0 0.120648621
H  H155  1  0.91176000  0.28675000  0.42162000  1.0 0.120648621
H  H156  1  0.42218000  0.36455000  0.42522000  1.0 0.120648621
H  H157  1  0.19333000  0.20110000  0.42463000  1.0 0.1302811056
H  H158  1  0.10875000  0.23507000  0.43103000  1.0 0.120648621
H  H159  1  0.38372000  0.17886000  0.36737000  1.0 0.1124254531
H  H160  1  0.26916000  0.17374000  0.37453000  1.0 0.1124254531
H  H161  1  0.38346000  0.17772000  0.45383000  1.0 0.1124254531
H  H162  1  0.26815000  0.17526000  0.45696000  1.0 0.1124254531
H  H163  1  0.55177000  0.27219000  0.96593000  1.0 0.3944393261
H  H164  1  0.49673000  0.29038000  0.97113000  1.0 0.3501404687
H  H165  1  0.23743000  0.96858000  0.08242000  1.0 0.2894626659
H  H166  1  0.05891000  0.65495000  0.08822000  1.0 0.1413989267
H  H167  1  0.43397000  0.90858000  0.07534000  1.0 0.1413989267
H  H168  1  0.17870000  0.74067000  0.08802000  1.0 0.120648621
H  H169  1  0.52077000  0.02673000  0.07185000  1.0 0.120648621
H  H170  1  0.37499000  0.08824000  0.07838000  1.0 0.120648621
H  H171  1  0.94237000  0.57782000  0.07478000  1.0 0.120648621
H  H172  1  0.00777000  0.80667000  0.07537000  1.0 0.120648621
H  H173  1  0.12632000  0.89125000  0.06897000  1.0 0.120648621
H  H174  1  0.79514000  0.61628000  0.13263000  1.0 0.1124254531
H  H175  1  0.90458000  0.73084000  0.12547000  1.0 0.1124254531
H  H176  1  0.79426000  0.61654000  0.04617000  1.0 0.1124254531
H  H177  1  0.90711000  0.73185000  0.04304000  1.0 0.1124254531
H  H178  1  0.72042000  0.44823000  0.96593000  1.0 0.3944393261
H  H179  1  0.79365000  0.50327000  0.97113000  1.0 0.3501404687
H  H180  1  0.73115000  0.76257000  0.08242000  1.0 0.2894626659
H  H181  1  0.59604000  0.94109000  0.08822000  1.0 0.1413989267
H  H182  1  0.47461000  0.56603000  0.07534000  1.0 0.1413989267
H  H183  1  0.56197000  0.82130000  0.08802000  1.0 0.120648621
H  H184  1  0.50596000  0.47923000  0.07185000  1.0 0.120648621
H  H185  1  0.71325000  0.62501000  0.07838000  1.0 0.120648621
H  H186  1  0.63545000  0.05763000  0.07478000  1.0 0.120648621
H  H187  1  0.79890000  0.99223000  0.07537000  1.0 0.120648621
H  H188  1  0.76493000  0.87368000  0.06897000  1.0 0.120648621
H  H189  1  0.82114000  0.20486000  0.13263000  1.0 0.1124254531
H  H190  1  0.82626000  0.09542000  0.12547000  1.0 0.1124254531
H  H191  1  0.82228000  0.20574000  0.04617000  1.0 0.1124254531
H  H192  1  0.82474000  0.09289000  0.04304000  1.0 0.1124254531
H  H193  1  0.72781000  0.27958000  0.96593000  1.0 0.3944393261
H  H194  1  0.70962000  0.20635000  0.97113000  1.0 0.3501404687
H  H195  1  0.03142000  0.26885000  0.08242000  1.0 0.2894626659
H  H196  1  0.34505000  0.40396000  0.08822000  1.0 0.1413989267
H  H197  1  0.09142000  0.52539000  0.07534000  1.0 0.1413989267
H  H198  1  0.25933000  0.43803000  0.08802000  1.0 0.120648621
H  H199  1  0.97327000  0.49404000  0.07185000  1.0 0.120648621
H  H200  1  0.91176000  0.28675000  0.07838000  1.0 0.120648621
H  H201  1  0.42218000  0.36455000  0.07478000  1.0 0.120648621
H  H202  1  0.19333000  0.20110000  0.07537000  1.0 0.120648621
H  H203  1  0.10875000  0.23507000  0.06897000  1.0 0.120648621
H  H204  1  0.38372000  0.17886000  0.13263000  1.0 0.1124254531
H  H205  1  0.26916000  0.17374000  0.12547000  1.0 0.1124254531
H  H206  1  0.38346000  0.17772000  0.04617000  1.0 0.1124254531
H  H207  1  0.26815000  0.17526000  0.04304000  1.0 0.1124254531
H  H208  1  0.89823000  0.21916000  0.25000000  1.0 0.1124254531
H  H209  1  0.22406000  0.26868000  0.25000000  1.0 0.2894626659
H  H210  1  0.35210000  0.26581000  0.25000000  1.0 0.120648621
H  H211  1  0.80245000  0.24611000  0.25000000  1.0 0.120648621
H  H212  1  0.08424000  0.44123000  0.25000000  1.0 0.1302811056
H  H213  1  0.19720000  0.45744000  0.25000000  1.0 0.1302811056
H  H214  1  0.00277000  0.23260000  0.25000000  1.0 0.1302811056
H  H215  1  0.11638000  0.24912000  0.25000000  1.0 0.1302811056
H  H216  1  0.97725000  0.42296000  0.25000000  1.0 0.102918969
H  H217  1  0.32093000  0.10177000  0.25000000  1.0 0.1124254531
H  H218  1  0.04462000  0.77594000  0.25000000  1.0 0.2894626659
H  H219  1  0.91371000  0.64790000  0.25000000  1.0 0.120648621
H  H220  1  0.44366000  0.19755000  0.25000000  1.0 0.120648621
H  H221  1  0.35699000  0.91576000  0.25000000  1.0 0.1302811056
H  H222  1  0.26024000  0.80280000  0.25000000  1.0 0.1302811056
H  H223  1  0.22983000  0.99723000  0.25000000  1.0 0.1302811056
H  H224  1  0.13274000  0.88362000  0.25000000  1.0 0.1302811056
H  H225  1  0.44571000  0.02275000  0.25000000  1.0 0.102918969
H  H226  1  0.78084000  0.67907000  0.25000000  1.0 0.1124254531
H  H227  1  0.73132000  0.95538000  0.25000000  1.0 0.2894626659
H  H228  1  0.73419000  0.08629000  0.25000000  1.0 0.120648621
H  H229  1  0.75389000  0.55634000  0.25000000  1.0 0.120648621
H  H230  1  0.55877000  0.64301000  0.25000000  1.0 0.1302811056
H  H231  1  0.54256000  0.73976000  0.25000000  1.0 0.1302811056
H  H232  1  0.76740000  0.77017000  0.25000000  1.0 0.1302811056
H  H233  1  0.75088000  0.86726000  0.25000000  1.0 0.1302811056
H  H234  1  0.57704000  0.55429000  0.25000000  1.0 0.102918969
C  C1  1  0.92720000  0.29660000  0.91430000  1.0 -0.180766149
C  C2  1  0.64820000  0.07220000  0.92190000  1.0 0.1413989267
C  C3  1  0.57830000  0.05560000  0.92430000  1.0 -0.1652627425
C  C4  1  0.76100000  0.12190000  0.92050000  1.0 0.276158297
C  C5  1  0.85600000  0.24570000  0.91500000  1.0 -0.1141800718
C  C6  1  0.54420000  0.93180000  0.92550000  1.0 -0.0218587074
C  C7  1  0.52730000  0.98560000  0.92620000  1.0 -0.1270833151
C  C8  1  0.66450000  0.01830000  0.91990000  1.0 0.1124254531
C  C9  1  0.61300000  0.94770000  0.92220000  1.0 -0.2247513643
C  C10  1  0.83610000  0.17520000  0.92000000  1.0 0.0030630949
C  C11  1  0.48640000  0.85690000  0.92680000  1.0 0.6240003272
C  C12  1  0.08230000  0.39730000  0.91920000  1.0 -0.004162733
C  C13  1  0.97730000  0.27670000  0.91730000  1.0 0.1302811056
C  C14  1  0.95750000  0.20700000  0.92270000  1.0 -0.2032979564
C  C15  1  0.88700000  0.15670000  0.92540000  1.0 -0.140483445
C  C16  1  0.53260000  0.57130000  0.77900000  1.0 -0.0334312939
C  C17  1  0.16180000  0.37580000  0.88540000  1.0 -0.0424069078
C  C18  1  0.10190000  0.31340000  0.88790000  1.0 -0.0496041326
C  C19  1  0.57560000  0.54130000  0.78060000  1.0 -0.0218587074
C  C20  1  0.16140000  0.37600000  0.93970000  1.0 0.0030630949
C  C21  1  0.09980000  0.31180000  0.94140000  1.0 -0.0635403375
C  C22  1  0.36940000  0.07280000  0.91430000  1.0 -0.180766149
C  C23  1  0.42400000  0.35180000  0.92190000  1.0 0.1413989267
C  C24  1  0.47730000  0.42170000  0.92430000  1.0 -0.1652627425
C  C25  1  0.36090000  0.23900000  0.92050000  1.0 0.276158297
C  C26  1  0.38970000  0.14400000  0.91500000  1.0 -0.1141800718
C  C27  1  0.38760000  0.45580000  0.92550000  1.0 -0.0218587074
C  C28  1  0.45830000  0.47270000  0.92620000  1.0 -0.1270833151
C  C29  1  0.35380000  0.33550000  0.91990000  1.0 0.1124254531
C  C30  1  0.33470000  0.38700000  0.92220000  1.0 -0.2247513643
C  C31  1  0.33910000  0.16390000  0.92000000  1.0 0.0030630949
C  C32  1  0.37050000  0.51360000  0.92680000  1.0 0.6240003272
C  C33  1  0.31500000  0.91770000  0.91920000  1.0 -0.004162733
C  C34  1  0.29940000  0.02270000  0.91730000  1.0 0.1302811056
C  C35  1  0.24950000  0.04250000  0.92270000  1.0 -0.2032979564
C  C36  1  0.26970000  0.11300000  0.92540000  1.0 -0.140483445
C  C37  1  0.03870000  0.46740000  0.77900000  1.0 -0.0334312939
C  C38  1  0.21400000  0.83820000  0.88540000  1.0 -0.0424069078
C  C39  1  0.21150000  0.89810000  0.88790000  1.0 -0.0496041326
C  C40  1  0.96570000  0.42440000  0.78060000  1.0 -0.0218587074
C  C41  1  0.21460000  0.83860000  0.93970000  1.0 0.0030630949
C  C42  1  0.21200000  0.90020000  0.94140000  1.0 -0.0635403375
C  C43  1  0.70340000  0.63060000  0.91430000  1.0 -0.180766149
C  C44  1  0.92780000  0.57600000  0.92190000  1.0 0.1413989267
C  C45  1  0.94440000  0.52270000  0.92430000  1.0 -0.1652627425
C  C46  1  0.87810000  0.63910000  0.92050000  1.0 0.276158297
C  C47  1  0.75430000  0.61030000  0.91500000  1.0 -0.1141800718
C  C48  1  0.06820000  0.61240000  0.92550000  1.0 -0.0218587074
C  C49  1  0.01440000  0.54170000  0.92620000  1.0 -0.1270833151
C  C50  1  0.98170000  0.64620000  0.91990000  1.0 0.1124254531
C  C51  1  0.05230000  0.66530000  0.92220000  1.0 -0.2247513643
C  C52  1  0.82480000  0.66090000  0.92000000  1.0 0.0030630949
C  C53  1  0.14310000  0.62950000  0.92680000  1.0 0.6240003272
C  C54  1  0.60270000  0.68500000  0.91920000  1.0 -0.004162733
C  C55  1  0.72330000  0.70060000  0.91730000  1.0 0.1302811056
C  C56  1  0.79300000  0.75050000  0.92270000  1.0 -0.2032979564
C  C57  1  0.84330000  0.73030000  0.92540000  1.0 -0.140483445
C  C58  1  0.42870000  0.96130000  0.77900000  1.0 -0.0334312939
C  C59  1  0.62420000  0.78600000  0.88540000  1.0 -0.0424069078
C  C60  1  0.68660000  0.78850000  0.88790000  1.0 -0.0496041326
C  C61  1  0.45870000  0.03430000  0.78060000  1.0 -0.0218587074
C  C62  1  0.62400000  0.78540000  0.93970000  1.0 0.0030630949
C  C63  1  0.68820000  0.78800000  0.94140000  1.0 -0.0635403375
C  C64  1  0.92720000  0.29660000  0.58570000  1.0 -0.180766149
C  C65  1  0.64820000  0.07220000  0.57810000  1.0 0.1413989267
C  C66  1  0.57830000  0.05560000  0.57570000  1.0 -0.1652627425
C  C67  1  0.76100000  0.12190000  0.57950000  1.0 0.276158297
C  C68  1  0.85600000  0.24570000  0.58500000  1.0 -0.1141800718
C  C69  1  0.54420000  0.93180000  0.57450000  1.0 -0.0218587074
C  C70  1  0.52730000  0.98560000  0.57380000  1.0 -0.1270833151
C  C71  1  0.66450000  0.01830000  0.58010000  1.0 0.1124254531
C  C72  1  0.61300000  0.94770000  0.57780000  1.0 -0.2247513643
C  C73  1  0.83610000  0.17520000  0.58000000  1.0 0.0030630949
C  C74  1  0.48640000  0.85690000  0.57320000  1.0 0.6240003272
C  C75  1  0.08230000  0.39730000  0.58080000  1.0 -0.004162733
C  C76  1  0.97730000  0.27670000  0.58270000  1.0 0.1302811056
C  C77  1  0.95750000  0.20700000  0.57730000  1.0 -0.2032979564
C  C78  1  0.88700000  0.15670000  0.57460000  1.0 -0.140483445
C  C79  1  0.53260000  0.57130000  0.72100000  1.0 -0.0334312939
C  C80  1  0.16180000  0.37580000  0.61460000  1.0 -0.0424069078
C  C81  1  0.10190000  0.31340000  0.61210000  1.0 -0.0496041326
C  C82  1  0.57560000  0.54130000  0.71940000  1.0 -0.0218587074
C  C83  1  0.16140000  0.37600000  0.56030000  1.0 0.0030630949
C  C84  1  0.09980000  0.31180000  0.55860000  1.0 -0.0635403375
C  C85  1  0.36940000  0.07280000  0.58570000  1.0 -0.180766149
C  C86  1  0.42400000  0.35180000  0.57810000  1.0 0.1413989267
C  C87  1  0.47730000  0.42170000  0.57570000  1.0 -0.1652627425
C  C88  1  0.36090000  0.23900000  0.57950000  1.0 0.276158297
C  C89  1  0.38970000  0.14400000  0.58500000  1.0 -0.1141800718
C  C90  1  0.38760000  0.45580000  0.57450000  1.0 -0.0218587074
C  C91  1  0.45830000  0.47270000  0.57380000  1.0 -0.1270833151
C  C92  1  0.35380000  0.33550000  0.58010000  1.0 0.1124254531
C  C93  1  0.33470000  0.38700000  0.57780000  1.0 -0.2247513643
C  C94  1  0.33910000  0.16390000  0.58000000  1.0 0.0030630949
C  C95  1  0.37050000  0.51360000  0.57320000  1.0 0.6240003272
C  C96  1  0.31500000  0.91770000  0.58080000  1.0 -0.004162733
C  C97  1  0.29940000  0.02270000  0.58270000  1.0 0.1302811056
C  C98  1  0.24950000  0.04250000  0.57730000  1.0 -0.2032979564
C  C99  1  0.26970000  0.11300000  0.57460000  1.0 -0.140483445
C  C100  1  0.03870000  0.46740000  0.72100000  1.0 -0.0334312939
C  C101  1  0.21400000  0.83820000  0.61460000  1.0 -0.0424069078
C  C102  1  0.21150000  0.89810000  0.61210000  1.0 -0.0496041326
C  C103  1  0.96570000  0.42440000  0.71940000  1.0 -0.0218587074
C  C104  1  0.21460000  0.83860000  0.56030000  1.0 0.0030630949
C  C105  1  0.21200000  0.90020000  0.55860000  1.0 -0.0635403375
C  C106  1  0.70340000  0.63060000  0.58570000  1.0 -0.180766149
C  C107  1  0.92780000  0.57600000  0.57810000  1.0 0.1413989267
C  C108  1  0.94440000  0.52270000  0.57570000  1.0 -0.1652627425
C  C109  1  0.87810000  0.63910000  0.57950000  1.0 0.276158297
C  C110  1  0.75430000  0.61030000  0.58500000  1.0 -0.1141800718
C  C111  1  0.06820000  0.61240000  0.57450000  1.0 -0.0218587074
C  C112  1  0.01440000  0.54170000  0.57380000  1.0 -0.1270833151
C  C113  1  0.98170000  0.64620000  0.58010000  1.0 0.1124254531
C  C114  1  0.05230000  0.66530000  0.57780000  1.0 -0.2247513643
C  C115  1  0.82480000  0.66090000  0.58000000  1.0 0.0030630949
C  C116  1  0.14310000  0.62950000  0.57320000  1.0 0.6240003272
C  C117  1  0.60270000  0.68500000  0.58080000  1.0 -0.004162733
C  C118  1  0.72330000  0.70060000  0.58270000  1.0 0.1302811056
C  C119  1  0.79300000  0.75050000  0.57730000  1.0 -0.2032979564
C  C120  1  0.84330000  0.73030000  0.57460000  1.0 -0.140483445
C  C121  1  0.42870000  0.96130000  0.72100000  1.0 -0.0334312939
C  C122  1  0.62420000  0.78600000  0.61460000  1.0 -0.0424069078
C  C123  1  0.68660000  0.78850000  0.61210000  1.0 -0.0496041326
C  C124  1  0.45870000  0.03430000  0.71940000  1.0 -0.0218587074
C  C125  1  0.62400000  0.78540000  0.56030000  1.0 0.0030630949
C  C126  1  0.68820000  0.78800000  0.55860000  1.0 -0.0635403375
C  C127  1  0.09640000  0.73510000  0.75000000  1.0 -0.1237404929
C  C128  1  0.55860000  0.64060000  0.75000000  1.0 0.0112874399
C  C129  1  0.76050000  0.63460000  0.75000000  1.0 0.2894626659
C  C130  1  0.96730000  0.66470000  0.75000000  1.0 0.1413989267
C  C131  1  0.62910000  0.68470000  0.75000000  1.0 -0.2389135719
C  C132  1  0.50840000  0.66730000  0.75000000  1.0 0.5877975984
C  C133  1  0.67320000  0.65690000  0.75000000  1.0 0.0385572874
C  C134  1  0.83270000  0.64560000  0.75000000  1.0 0.0207947605
C  C135  1  0.14900000  0.71950000  0.75000000  1.0 0.0112874399
C  C136  1  0.90950000  0.59850000  0.75000000  1.0 -0.180766149
C  C137  1  0.84230000  0.58880000  0.75000000  1.0 -0.0857118913
C  C138  1  0.64760000  0.58500000  0.75000000  1.0 0.1413989267
C  C139  1  0.95780000  0.72120000  0.75000000  1.0 -0.193040608
C  C140  1  0.88990000  0.71110000  0.75000000  1.0 -0.140483445
C  C141  1  0.05550000  0.62600000  0.75000000  1.0 0.0894164159
C  C142  1  0.63870000  0.90360000  0.75000000  1.0 -0.1237404929
C  C143  1  0.08200000  0.44140000  0.75000000  1.0 0.0112874399
C  C144  1  0.87410000  0.23950000  0.75000000  1.0 0.2894626659
C  C145  1  0.69740000  0.03270000  0.75000000  1.0 0.1413989267
C  C146  1  0.05560000  0.37090000  0.75000000  1.0 -0.2389135719
C  C147  1  0.15890000  0.49160000  0.75000000  1.0 0.5877975984
C  C148  1  0.98370000  0.32680000  0.75000000  1.0 0.0385572874
C  C149  1  0.81290000  0.16730000  0.75000000  1.0 0.0207947605
C  C150  1  0.57050000  0.85100000  0.75000000  1.0 0.0112874399
C  C151  1  0.68900000  0.09050000  0.75000000  1.0 -0.180766149
C  C152  1  0.74650000  0.15770000  0.75000000  1.0 -0.0857118913
C  C153  1  0.93740000  0.35240000  0.75000000  1.0 0.1413989267
C  C154  1  0.76340000  0.04220000  0.75000000  1.0 -0.193040608
C  C155  1  0.82120000  0.11010000  0.75000000  1.0 -0.140483445
C  C156  1  0.57050000  0.94450000  0.75000000  1.0 0.0894164159
C  C157  1  0.26490000  0.36130000  0.75000000  1.0 -0.1237404929
C  C158  1  0.35940000  0.91800000  0.75000000  1.0 0.0112874399
C  C159  1  0.36540000  0.12590000  0.75000000  1.0 0.2894626659
C  C160  1  0.33530000  0.30260000  0.75000000  1.0 0.1413989267
C  C161  1  0.31530000  0.94440000  0.75000000  1.0 -0.2389135719
C  C162  1  0.33270000  0.84110000  0.75000000  1.0 0.5877975984
C  C163  1  0.34310000  0.01630000  0.75000000  1.0 0.0385572874
C  C164  1  0.35440000  0.18710000  0.75000000  1.0 0.0207947605
C  C165  1  0.28050000  0.42950000  0.75000000  1.0 0.0112874399
C  C166  1  0.40150000  0.31100000  0.75000000  1.0 -0.180766149
C  C167  1  0.41120000  0.25350000  0.75000000  1.0 -0.0857118913
C  C168  1  0.41500000  0.06260000  0.75000000  1.0 0.1413989267
C  C169  1  0.27880000  0.23660000  0.75000000  1.0 -0.193040608
C  C170  1  0.28890000  0.17880000  0.75000000  1.0 -0.140483445
C  C171  1  0.37400000  0.42950000  0.75000000  1.0 0.0894164159
C  C172  1  0.07280000  0.70340000  0.41430000  1.0 -0.180766149
C  C173  1  0.35180000  0.92780000  0.42190000  1.0 0.1413989267
C  C174  1  0.42170000  0.94440000  0.42430000  1.0 -0.1652627425
C  C175  1  0.23900000  0.87810000  0.42050000  1.0 0.276158297
C  C176  1  0.14400000  0.75430000  0.41500000  1.0 -0.1141800718
C  C177  1  0.45580000  0.06820000  0.42550000  1.0 -0.0218587074
C  C178  1  0.47270000  0.01440000  0.42620000  1.0 -0.1270833151
C  C179  1  0.33550000  0.98170000  0.41990000  1.0 0.1124254531
C  C180  1  0.38700000  0.05230000  0.42220000  1.0 -0.2247513643
C  C181  1  0.16390000  0.82480000  0.42000000  1.0 0.0030630949
C  C182  1  0.51360000  0.14310000  0.42680000  1.0 0.6240003272
C  C183  1  0.91770000  0.60270000  0.41920000  1.0 -0.004162733
C  C184  1  0.02270000  0.72330000  0.41730000  1.0 0.1302811056
C  C185  1  0.04250000  0.79300000  0.42270000  1.0 -0.2032979564
C  C186  1  0.11300000  0.84330000  0.42540000  1.0 -0.140483445
C  C187  1  0.46740000  0.42870000  0.27900000  1.0 -0.0334312939
C  C188  1  0.83820000  0.62420000  0.38540000  1.0 -0.0424069078
C  C189  1  0.89810000  0.68660000  0.38790000  1.0 -0.0496041326
C  C190  1  0.42440000  0.45870000  0.28060000  1.0 -0.0218587074
C  C191  1  0.83860000  0.62400000  0.43970000  1.0 0.0030630949
C  C192  1  0.90020000  0.68820000  0.44140000  1.0 -0.0635403375
C  C193  1  0.63060000  0.92720000  0.41430000  1.0 -0.180766149
C  C194  1  0.57600000  0.64820000  0.42190000  1.0 0.1413989267
C  C195  1  0.52270000  0.57830000  0.42430000  1.0 -0.1652627425
C  C196  1  0.63910000  0.76100000  0.42050000  1.0 0.276158297
C  C197  1  0.61030000  0.85600000  0.41500000  1.0 -0.1141800718
C  C198  1  0.61240000  0.54420000  0.42550000  1.0 -0.0218587074
C  C199  1  0.54170000  0.52730000  0.42620000  1.0 -0.1270833151
C  C200  1  0.64620000  0.66450000  0.41990000  1.0 0.1124254531
C  C201  1  0.66530000  0.61300000  0.42220000  1.0 -0.2247513643
C  C202  1  0.66090000  0.83610000  0.42000000  1.0 0.0030630949
C  C203  1  0.62950000  0.48640000  0.42680000  1.0 0.6240003272
C  C204  1  0.68500000  0.08230000  0.41920000  1.0 -0.004162733
C  C205  1  0.70060000  0.97730000  0.41730000  1.0 0.1302811056
C  C206  1  0.75050000  0.95750000  0.42270000  1.0 -0.2032979564
C  C207  1  0.73030000  0.88700000  0.42540000  1.0 -0.140483445
C  C208  1  0.96130000  0.53260000  0.27900000  1.0 -0.0334312939
C  C209  1  0.78600000  0.16180000  0.38540000  1.0 -0.0424069078
C  C210  1  0.78850000  0.10190000  0.38790000  1.0 -0.0496041326
C  C211  1  0.03430000  0.57560000  0.28060000  1.0 -0.0218587074
C  C212  1  0.78540000  0.16140000  0.43970000  1.0 0.0030630949
C  C213  1  0.78800000  0.09980000  0.44140000  1.0 -0.0635403375
C  C214  1  0.29660000  0.36940000  0.41430000  1.0 -0.180766149
C  C215  1  0.07220000  0.42400000  0.42190000  1.0 0.1413989267
C  C216  1  0.05560000  0.47730000  0.42430000  1.0 -0.1652627425
C  C217  1  0.12190000  0.36090000  0.42050000  1.0 0.276158297
C  C218  1  0.24570000  0.38970000  0.41500000  1.0 -0.1141800718
C  C219  1  0.93180000  0.38760000  0.42550000  1.0 -0.0218587074
C  C220  1  0.98560000  0.45830000  0.42620000  1.0 -0.1270833151
C  C221  1  0.01830000  0.35380000  0.41990000  1.0 0.1124254531
C  C222  1  0.94770000  0.33470000  0.42220000  1.0 -0.2247513643
C  C223  1  0.17520000  0.33910000  0.42000000  1.0 0.0030630949
C  C224  1  0.85690000  0.37050000  0.42680000  1.0 0.6240003272
C  C225  1  0.39730000  0.31500000  0.41920000  1.0 -0.004162733
C  C226  1  0.27670000  0.29940000  0.41730000  1.0 0.1302811056
C  C227  1  0.20700000  0.24950000  0.42270000  1.0 -0.2032979564
C  C228  1  0.15670000  0.26970000  0.42540000  1.0 -0.140483445
C  C229  1  0.57130000  0.03870000  0.27900000  1.0 -0.0334312939
C  C230  1  0.37580000  0.21400000  0.38540000  1.0 -0.0424069078
C  C231  1  0.31340000  0.21150000  0.38790000  1.0 -0.0496041326
C  C232  1  0.54130000  0.96570000  0.28060000  1.0 -0.0218587074
C  C233  1  0.37600000  0.21460000  0.43970000  1.0 0.0030630949
C  C234  1  0.31180000  0.21200000  0.44140000  1.0 -0.0635403375
C  C235  1  0.07280000  0.70340000  0.08570000  1.0 -0.180766149
C  C236  1  0.35180000  0.92780000  0.07810000  1.0 0.1413989267
C  C237  1  0.42170000  0.94440000  0.07570000  1.0 -0.1652627425
C  C238  1  0.23900000  0.87810000  0.07950000  1.0 0.276158297
C  C239  1  0.14400000  0.75430000  0.08500000  1.0 -0.1141800718
C  C240  1  0.45580000  0.06820000  0.07450000  1.0 -0.0218587074
C  C241  1  0.47270000  0.01440000  0.07380000  1.0 -0.1270833151
C  C242  1  0.33550000  0.98170000  0.08010000  1.0 0.1124254531
C  C243  1  0.38700000  0.05230000  0.07780000  1.0 -0.2247513643
C  C244  1  0.16390000  0.82480000  0.08000000  1.0 0.0030630949
C  C245  1  0.51360000  0.14310000  0.07320000  1.0 0.6240003272
C  C246  1  0.91770000  0.60270000  0.08080000  1.0 -0.004162733
C  C247  1  0.02270000  0.72330000  0.08270000  1.0 0.1302811056
C  C248  1  0.04250000  0.79300000  0.07730000  1.0 -0.2032979564
C  C249  1  0.11300000  0.84330000  0.07460000  1.0 -0.140483445
C  C250  1  0.46740000  0.42870000  0.22100000  1.0 -0.0334312939
C  C251  1  0.83820000  0.62420000  0.11460000  1.0 -0.0424069078
C  C252  1  0.89810000  0.68660000  0.11210000  1.0 -0.0496041326
C  C253  1  0.42440000  0.45870000  0.21940000  1.0 -0.0218587074
C  C254  1  0.83860000  0.62400000  0.06030000  1.0 0.0030630949
C  C255  1  0.90020000  0.68820000  0.05860000  1.0 -0.0635403375
C  C256  1  0.63060000  0.92720000  0.08570000  1.0 -0.180766149
C  C257  1  0.57600000  0.64820000  0.07810000  1.0 0.1413989267
C  C258  1  0.52270000  0.57830000  0.07570000  1.0 -0.1652627425
C  C259  1  0.63910000  0.76100000  0.07950000  1.0 0.276158297
C  C260  1  0.61030000  0.85600000  0.08500000  1.0 -0.1141800718
C  C261  1  0.61240000  0.54420000  0.07450000  1.0 -0.0218587074
C  C262  1  0.54170000  0.52730000  0.07380000  1.0 -0.1270833151
C  C263  1  0.64620000  0.66450000  0.08010000  1.0 0.1124254531
C  C264  1  0.66530000  0.61300000  0.07780000  1.0 -0.2247513643
C  C265  1  0.66090000  0.83610000  0.08000000  1.0 0.0030630949
C  C266  1  0.62950000  0.48640000  0.07320000  1.0 0.6240003272
C  C267  1  0.68500000  0.08230000  0.08080000  1.0 -0.004162733
C  C268  1  0.70060000  0.97730000  0.08270000  1.0 0.1302811056
C  C269  1  0.75050000  0.95750000  0.07730000  1.0 -0.2032979564
C  C270  1  0.73030000  0.88700000  0.07460000  1.0 -0.140483445
C  C271  1  0.96130000  0.53260000  0.22100000  1.0 -0.0334312939
C  C272  1  0.78600000  0.16180000  0.11460000  1.0 -0.0424069078
C  C273  1  0.78850000  0.10190000  0.11210000  1.0 -0.0496041326
C  C274  1  0.03430000  0.57560000  0.21940000  1.0 -0.0218587074
C  C275  1  0.78540000  0.16140000  0.06030000  1.0 0.0030630949
C  C276  1  0.78800000  0.09980000  0.05860000  1.0 -0.0635403375
C  C277  1  0.29660000  0.36940000  0.08570000  1.0 -0.180766149
C  C278  1  0.07220000  0.42400000  0.07810000  1.0 0.1413989267
C  C279  1  0.05560000  0.47730000  0.07570000  1.0 -0.1652627425
C  C280  1  0.12190000  0.36090000  0.07950000  1.0 0.276158297
C  C281  1  0.24570000  0.38970000  0.08500000  1.0 -0.1141800718
C  C282  1  0.93180000  0.38760000  0.07450000  1.0 -0.0218587074
C  C283  1  0.98560000  0.45830000  0.07380000  1.0 -0.1270833151
C  C284  1  0.01830000  0.35380000  0.08010000  1.0 0.1124254531
C  C285  1  0.94770000  0.33470000  0.07780000  1.0 -0.2247513643
C  C286  1  0.17520000  0.33910000  0.08000000  1.0 0.0030630949
C  C287  1  0.85690000  0.37050000  0.07320000  1.0 0.6240003272
C  C288  1  0.39730000  0.31500000  0.08080000  1.0 -0.004162733
C  C289  1  0.27670000  0.29940000  0.08270000  1.0 0.1302811056
C  C290  1  0.20700000  0.24950000  0.07730000  1.0 -0.2032979564
C  C291  1  0.15670000  0.26970000  0.07460000  1.0 -0.140483445
C  C292  1  0.57130000  0.03870000  0.22100000  1.0 -0.0334312939
C  C293  1  0.37580000  0.21400000  0.11460000  1.0 -0.0424069078
C  C294  1  0.31340000  0.21150000  0.11210000  1.0 -0.0496041326
C  C295  1  0.54130000  0.96570000  0.21940000  1.0 -0.0218587074
C  C296  1  0.37600000  0.21460000  0.06030000  1.0 0.0030630949
C  C297  1  0.31180000  0.21200000  0.05860000  1.0 -0.0635403375
C  C298  1  0.90360000  0.26490000  0.25000000  1.0 -0.1237404929
C  C299  1  0.44140000  0.35940000  0.25000000  1.0 0.0112874399
C  C300  1  0.23950000  0.36540000  0.25000000  1.0 0.2894626659
C  C301  1  0.03270000  0.33530000  0.25000000  1.0 0.1413989267
C  C302  1  0.37090000  0.31530000  0.25000000  1.0 -0.2389135719
C  C303  1  0.49160000  0.33270000  0.25000000  1.0 0.5877975984
C  C304  1  0.32680000  0.34310000  0.25000000  1.0 0.0385572874
C  C305  1  0.16730000  0.35440000  0.25000000  1.0 0.0207947605
C  C306  1  0.85100000  0.28050000  0.25000000  1.0 0.0112874399
C  C307  1  0.09050000  0.40150000  0.25000000  1.0 -0.180766149
C  C308  1  0.15770000  0.41120000  0.25000000  1.0 -0.0857118913
C  C309  1  0.35240000  0.41500000  0.25000000  1.0 0.1413989267
C  C310  1  0.04220000  0.27880000  0.25000000  1.0 -0.193040608
C  C311  1  0.11010000  0.28890000  0.25000000  1.0 -0.140483445
C  C312  1  0.94450000  0.37400000  0.25000000  1.0 0.0894164159
C  C313  1  0.36130000  0.09640000  0.25000000  1.0 -0.1237404929
C  C314  1  0.91800000  0.55860000  0.25000000  1.0 0.0112874399
C  C315  1  0.12590000  0.76050000  0.25000000  1.0 0.2894626659
C  C316  1  0.30260000  0.96730000  0.25000000  1.0 0.1413989267
C  C317  1  0.94440000  0.62910000  0.25000000  1.0 -0.2389135719
C  C318  1  0.84110000  0.50840000  0.25000000  1.0 0.5877975984
C  C319  1  0.01630000  0.67320000  0.25000000  1.0 0.0385572874
C  C320  1  0.18710000  0.83270000  0.25000000  1.0 0.0207947605
C  C321  1  0.42950000  0.14900000  0.25000000  1.0 0.0112874399
C  C322  1  0.31100000  0.90950000  0.25000000  1.0 -0.180766149
C  C323  1  0.25350000  0.84230000  0.25000000  1.0 -0.0857118913
C  C324  1  0.06260000  0.64760000  0.25000000  1.0 0.1413989267
C  C325  1  0.23660000  0.95780000  0.25000000  1.0 -0.193040608
C  C326  1  0.17880000  0.88990000  0.25000000  1.0 -0.140483445
C  C327  1  0.42950000  0.05550000  0.25000000  1.0 0.0894164159
C  C328  1  0.73510000  0.63870000  0.25000000  1.0 -0.1237404929
C  C329  1  0.64060000  0.08200000  0.25000000  1.0 0.0112874399
C  C330  1  0.63460000  0.87410000  0.25000000  1.0 0.2894626659
C  C331  1  0.66470000  0.69740000  0.25000000  1.0 0.1413989267
C  C332  1  0.68470000  0.05560000  0.25000000  1.0 -0.2389135719
C  C333  1  0.66730000  0.15890000  0.25000000  1.0 0.5877975984
C  C334  1  0.65690000  0.98370000  0.25000000  1.0 0.0385572874
C  C335  1  0.64560000  0.81290000  0.25000000  1.0 0.0207947605
C  C336  1  0.71950000  0.57050000  0.25000000  1.0 0.0112874399
C  C337  1  0.59850000  0.68900000  0.25000000  1.0 -0.180766149
C  C338  1  0.58880000  0.74650000  0.25000000  1.0 -0.0857118913
C  C339  1  0.58500000  0.93740000  0.25000000  1.0 0.1413989267
C  C340  1  0.72120000  0.76340000  0.25000000  1.0 -0.193040608
C  C341  1  0.71110000  0.82120000  0.25000000  1.0 -0.140483445
C  C342  1  0.62600000  0.57050000  0.25000000  1.0 0.0894164159
N  N1  1  0.70950000  0.13660000  0.92150000  1.0 -0.3896826442
N  N2  1  0.04980000  0.32680000  0.91460000  1.0 0.0207947605
N  N3  1  0.73680000  0.05180000  0.91890000  1.0 -0.3259025749
N  N4  1  0.15010000  0.42820000  0.91450000  1.0 -0.3157873587
N  N5  1  0.42710000  0.29050000  0.92150000  1.0 -0.3896826442
N  N6  1  0.27700000  0.95020000  0.91460000  1.0 0.0207947605
N  N7  1  0.31500000  0.26320000  0.91890000  1.0 -0.3259025749
N  N8  1  0.27810000  0.84990000  0.91450000  1.0 -0.3157873587
N  N9  1  0.86340000  0.57290000  0.92150000  1.0 -0.3896826442
N  N10  1  0.67320000  0.72300000  0.91460000  1.0 0.0207947605
N  N11  1  0.94820000  0.68500000  0.91890000  1.0 -0.3259025749
N  N12  1  0.57180000  0.72190000  0.91450000  1.0 -0.3157873587
N  N13  1  0.70950000  0.13660000  0.57850000  1.0 -0.3896826442
N  N14  1  0.04980000  0.32680000  0.58540000  1.0 0.0207947605
N  N15  1  0.73680000  0.05180000  0.58110000  1.0 -0.3259025749
N  N16  1  0.15010000  0.42820000  0.58550000  1.0 -0.3157873587
N  N17  1  0.42710000  0.29050000  0.57850000  1.0 -0.3896826442
N  N18  1  0.27700000  0.95020000  0.58540000  1.0 0.0207947605
N  N19  1  0.31500000  0.26320000  0.58110000  1.0 -0.3259025749
N  N20  1  0.27810000  0.84990000  0.58550000  1.0 -0.3157873587
N  N21  1  0.86340000  0.57290000  0.57850000  1.0 -0.3896826442
N  N22  1  0.67320000  0.72300000  0.58540000  1.0 0.0207947605
N  N23  1  0.94820000  0.68500000  0.58110000  1.0 -0.3259025749
N  N24  1  0.57180000  0.72190000  0.58550000  1.0 -0.3157873587
N  N25  1  0.03720000  0.67550000  0.75000000  1.0 0.0112874399
N  N26  1  0.74510000  0.68600000  0.75000000  1.0 -0.2950918214
N  N27  1  0.12560000  0.65340000  0.75000000  1.0 -0.1500772348
N  N28  1  0.70330000  0.57300000  0.75000000  1.0 -0.3896826442
N  N29  1  0.63830000  0.96280000  0.75000000  1.0 0.0112874399
N  N30  1  0.94090000  0.25490000  0.75000000  1.0 -0.2950918214
N  N31  1  0.52780000  0.87440000  0.75000000  1.0 -0.1500772348
N  N32  1  0.86970000  0.29670000  0.75000000  1.0 -0.3896826442
N  N33  1  0.32450000  0.36170000  0.75000000  1.0 0.0112874399
N  N34  1  0.31400000  0.05910000  0.75000000  1.0 -0.2950918214
N  N35  1  0.34660000  0.47220000  0.75000000  1.0 -0.1500772348
N  N36  1  0.42700000  0.13030000  0.75000000  1.0 -0.3896826442
N  N37  1  0.29050000  0.86340000  0.42150000  1.0 -0.3896826442
N  N38  1  0.95020000  0.67320000  0.41460000  1.0 0.0207947605
N  N39  1  0.26320000  0.94820000  0.41890000  1.0 -0.3259025749
N  N40  1  0.84990000  0.57180000  0.41450000  1.0 -0.3157873587
N  N41  1  0.57290000  0.70950000  0.42150000  1.0 -0.3896826442
N  N42  1  0.72300000  0.04980000  0.41460000  1.0 0.0207947605
N  N43  1  0.68500000  0.73680000  0.41890000  1.0 -0.3259025749
N  N44  1  0.72190000  0.15010000  0.41450000  1.0 -0.3157873587
N  N45  1  0.13660000  0.42710000  0.42150000  1.0 -0.3896826442
N  N46  1  0.32680000  0.27700000  0.41460000  1.0 0.0207947605
N  N47  1  0.05180000  0.31500000  0.41890000  1.0 -0.3259025749
N  N48  1  0.42820000  0.27810000  0.41450000  1.0 -0.3157873587
N  N49  1  0.29050000  0.86340000  0.07850000  1.0 -0.3896826442
N  N50  1  0.95020000  0.67320000  0.08540000  1.0 0.0207947605
N  N51  1  0.26320000  0.94820000  0.08110000  1.0 -0.3259025749
N  N52  1  0.84990000  0.57180000  0.08550000  1.0 -0.3157873587
N  N53  1  0.57290000  0.70950000  0.07850000  1.0 -0.3896826442
N  N54  1  0.72300000  0.04980000  0.08540000  1.0 0.0207947605
N  N55  1  0.68500000  0.73680000  0.08110000  1.0 -0.3259025749
N  N56  1  0.72190000  0.15010000  0.08550000  1.0 -0.3157873587
N  N57  1  0.13660000  0.42710000  0.07850000  1.0 -0.3896826442
N  N58  1  0.32680000  0.27700000  0.08540000  1.0 0.0207947605
N  N59  1  0.05180000  0.31500000  0.08110000  1.0 -0.3259025749
N  N60  1  0.42820000  0.27810000  0.08550000  1.0 -0.3157873587
N  N61  1  0.96280000  0.32450000  0.25000000  1.0 0.0112874399
N  N62  1  0.25490000  0.31400000  0.25000000  1.0 -0.2950918214
N  N63  1  0.87440000  0.34660000  0.25000000  1.0 -0.1500772348
N  N64  1  0.29670000  0.42700000  0.25000000  1.0 -0.3896826442
N  N65  1  0.36170000  0.03720000  0.25000000  1.0 0.0112874399
N  N66  1  0.05910000  0.74510000  0.25000000  1.0 -0.2950918214
N  N67  1  0.47220000  0.12560000  0.25000000  1.0 -0.1500772348
N  N68  1  0.13030000  0.70330000  0.25000000  1.0 -0.3896826442
N  N69  1  0.67550000  0.63830000  0.25000000  1.0 0.0112874399
N  N70  1  0.68600000  0.94090000  0.25000000  1.0 -0.2950918214
N  N71  1  0.65340000  0.52780000  0.25000000  1.0 -0.1500772348
N  N72  1  0.57300000  0.86970000  0.25000000  1.0 -0.3896826442
Cl  Cl1  1  0.00000000  0.00000000  0.10841000  1.0 -0.8667260245
Cl  Cl2  1  0.00000000  0.00000000  0.60841000  1.0 -0.89583288
Cl  Cl3  1  0.00000000  0.00000000  0.89159000  1.0 -0.8667260245
Cl  Cl4  1  0.00000000  0.00000000  0.39159000  1.0 -0.89583288
O  O1  1  0.40058000  0.74514000  0.83018000  1.0 -1.0171196819
O  O2  1  0.45681000  0.69374000  0.01600000  1.0 -0.7430931167
O  O3  1  0.42357000  0.84503000  0.92930000  1.0 -0.6155534224
O  O4  1  0.50222000  0.80934000  0.92560000  1.0 -0.6155534224
O  O5  1  0.48900000  0.67820000  0.80020000  1.0 -0.5056609349
O  O6  1  0.34456000  0.59942000  0.83018000  1.0 -1.0171196819
O  O7  1  0.23693000  0.54319000  0.01600000  1.0 -0.7430931167
O  O8  1  0.42146000  0.57643000  0.92930000  1.0 -0.6155534224
O  O9  1  0.30712000  0.49778000  0.92560000  1.0 -0.6155534224
O  O10  1  0.18920000  0.51100000  0.80020000  1.0 -0.5056609349
O  O11  1  0.25486000  0.65544000  0.83018000  1.0 -1.0171196819
O  O12  1  0.30626000  0.76307000  0.01600000  1.0 -0.7430931167
O  O13  1  0.15497000  0.57854000  0.92930000  1.0 -0.6155534224
O  O14  1  0.19066000  0.69288000  0.92560000  1.0 -0.6155534224
O  O15  1  0.32180000  0.81080000  0.80020000  1.0 -0.5056609349
O  O16  1  0.40058000  0.74514000  0.66982000  1.0 -1.0171196819
O  O17  1  0.45681000  0.69374000  0.48400000  1.0 -0.7430931167
O  O18  1  0.42357000  0.84503000  0.57070000  1.0 -0.6155534224
O  O19  1  0.50222000  0.80934000  0.57440000  1.0 -0.6155534224
O  O20  1  0.48900000  0.67820000  0.69980000  1.0 -0.5056609349
O  O21  1  0.34456000  0.59942000  0.66982000  1.0 -1.0171196819
O  O22  1  0.23693000  0.54319000  0.48400000  1.0 -0.7430931167
O  O23  1  0.42146000  0.57643000  0.57070000  1.0 -0.6155534224
O  O24  1  0.30712000  0.49778000  0.57440000  1.0 -0.6155534224
O  O25  1  0.18920000  0.51100000  0.69980000  1.0 -0.5056609349
O  O26  1  0.25486000  0.65544000  0.66982000  1.0 -1.0171196819
O  O27  1  0.30626000  0.76307000  0.48400000  1.0 -0.7430931167
O  O28  1  0.15497000  0.57854000  0.57070000  1.0 -0.6155534224
O  O29  1  0.19066000  0.69288000  0.57440000  1.0 -0.6155534224
O  O30  1  0.32180000  0.81080000  0.69980000  1.0 -0.5056609349
O  O31  1  0.33333333  0.66666667  0.94240000  1.0 -1.0171196819
O  O32  1  0.33333333  0.66666667  0.55760000  1.0 -1.0171196819
O  O33  1  0.59942000  0.25486000  0.33018000  1.0 -1.0171196819
O  O34  1  0.54319000  0.30626000  0.51600000  1.0 -0.7430931167
O  O35  1  0.57643000  0.15497000  0.42930000  1.0 -0.6155534224
O  O36  1  0.49778000  0.19066000  0.42560000  1.0 -0.6155534224
O  O37  1  0.51100000  0.32180000  0.30020000  1.0 -0.5056609349
O  O38  1  0.65544000  0.40058000  0.33018000  1.0 -1.0171196819
O  O39  1  0.76307000  0.45681000  0.51600000  1.0 -0.7430931167
O  O40  1  0.57854000  0.42357000  0.42930000  1.0 -0.6155534224
O  O41  1  0.69288000  0.50222000  0.42560000  1.0 -0.6155534224
O  O42  1  0.81080000  0.48900000  0.30020000  1.0 -0.5056609349
O  O43  1  0.74514000  0.34456000  0.33018000  1.0 -1.0171196819
O  O44  1  0.69374000  0.23693000  0.51600000  1.0 -0.7430931167
O  O45  1  0.84503000  0.42146000  0.42930000  1.0 -0.6155534224
O  O46  1  0.80934000  0.30712000  0.42560000  1.0 -0.6155534224
O  O47  1  0.67820000  0.18920000  0.30020000  1.0 -0.5056609349
O  O48  1  0.59942000  0.25486000  0.16982000  1.0 -1.0171196819
O  O49  1  0.54319000  0.30626000  0.98400000  1.0 -0.7430931167
O  O50  1  0.57643000  0.15497000  0.07070000  1.0 -0.6155534224
O  O51  1  0.49778000  0.19066000  0.07440000  1.0 -0.6155534224
O  O52  1  0.51100000  0.32180000  0.19980000  1.0 -0.5056609349
O  O53  1  0.65544000  0.40058000  0.16982000  1.0 -1.0171196819
O  O54  1  0.76307000  0.45681000  0.98400000  1.0 -0.7430931167
O  O55  1  0.57854000  0.42357000  0.07070000  1.0 -0.6155534224
O  O56  1  0.69288000  0.50222000  0.07440000  1.0 -0.6155534224
O  O57  1  0.81080000  0.48900000  0.19980000  1.0 -0.5056609349
O  O58  1  0.74514000  0.34456000  0.16982000  1.0 -1.0171196819
O  O59  1  0.69374000  0.23693000  0.98400000  1.0 -0.7430931167
O  O60  1  0.84503000  0.42146000  0.07070000  1.0 -0.6155534224
O  O61  1  0.80934000  0.30712000  0.07440000  1.0 -0.6155534224
O  O62  1  0.67820000  0.18920000  0.19980000  1.0 -0.5056609349
O  O63  1  0.66666667  0.33333333  0.44240000  1.0 -1.0171196819
O  O64  1  0.66666667  0.33333333  0.05760000  1.0 -1.0171196819
