# DDEC6 charges by PACMAN v1.1 (https://github.com/mtap-research/PACMAN-charge/)
data_AHIKAG_ASR_pacman
_symmetry_space_group_name_H-M   'P 1'
_cell_length_a   21.82890000
_cell_length_b   21.82890000
_cell_length_c   20.84770000
_cell_angle_alpha   90.00000000
_cell_angle_beta   90.00000000
_cell_angle_gamma   120.00000000
_symmetry_Int_Tables_number   1
_chemical_formula_structural   Ho7H152C198N45O32
_chemical_formula_sum   'Ho14 H304 C396 N90 O64'
_cell_volume   8603.05071829
_cell_formula_units_Z   2
loop_
 _symmetry_equiv_pos_site_id
 _symmetry_equiv_pos_as_xyz
  1  'x, y, z'
loop_
 _atom_site_type_symbol
 _atom_site_label
 _atom_site_symmetry_multiplicity
 _atom_site_fract_x
 _atom_site_fract_y
 _atom_site_fract_z
 _atom_site_occupancy
 _atom_site_charge
Ho  Ho1  1  0.44266000  0.68782000  0.89560000  1.0 1.9926643505
Ho  Ho2  1  0.24516000  0.55734000  0.89560000  1.0 1.9926643505
Ho  Ho3  1  0.31218000  0.75484000  0.89560000  1.0 1.9926643505
Ho  Ho4  1  0.44266000  0.68782000  0.60440000  1.0 1.9926643505
Ho  Ho5  1  0.24516000  0.55734000  0.60440000  1.0 1.9926643505
Ho  Ho6  1  0.31218000  0.75484000  0.60440000  1.0 1.9926643505
Ho  Ho7  1  0.33333333  0.66666667  0.75000000  1.0 2.0183885827
Ho  Ho8  1  0.55734000  0.31218000  0.39560000  1.0 1.9926643505
Ho  Ho9  1  0.75484000  0.44266000  0.39560000  1.0 1.9926643505
Ho  Ho10  1  0.68782000  0.24516000  0.39560000  1.0 1.9926643505
Ho  Ho11  1  0.55734000  0.31218000  0.10440000  1.0 1.9926643505
Ho  Ho12  1  0.75484000  0.44266000  0.10440000  1.0 1.9926643505
Ho  Ho13  1  0.68782000  0.24516000  0.10440000  1.0 1.9926643505
Ho  Ho14  1  0.66666667  0.33333333  0.25000000  1.0 2.0183885827
H  H1  1  0.43710000  0.79010000  0.81170000  1.0 0.3628208174
H  H2  1  0.70120000  0.53450000  0.71590000  1.0 0.1724934372
H  H3  1  0.76290000  0.02770000  0.93270000  1.0 0.1528669629
H  H4  1  0.55800000  0.49630000  0.69850000  1.0 0.100781353
H  H5  1  0.48670000  0.54890000  0.69990000  1.0 0.100781353
H  H6  1  0.62450000  0.90990000  0.91930000  1.0 0.1094473174
H  H7  1  0.56710000  0.09280000  0.92930000  1.0 0.1281895317
H  H8  1  0.47840000  0.97330000  0.92910000  1.0 0.1094473174
H  H9  1  0.82250000  0.25890000  0.90960000  1.0 0.1177390155
H  H10  1  0.94300000  0.34640000  0.91440000  1.0 0.1094473174
H  H11  1  0.99740000  0.19500000  0.93140000  1.0 0.0740190188
H  H12  1  0.87790000  0.10820000  0.94200000  1.0 0.0617965511
H  H13  1  0.06000000  0.42410000  0.92080000  1.0 0.1177390155
H  H14  1  0.09830000  0.27140000  0.86770000  1.0 0.1094473174
H  H15  1  0.20920000  0.38840000  0.86090000  1.0 0.100781353
H  H16  1  0.76090000  0.03490000  0.88710000  1.0 0.1762013643
H  H17  1  0.82380000  0.26010000  0.92550000  1.0 0.1177390155
H  H18  1  0.99320000  0.19320000  0.89520000  1.0 0.0895459323
H  H19  1  0.87300000  0.10780000  0.89370000  1.0 0.0617965511
H  H20  1  0.09380000  0.27010000  0.96090000  1.0 0.0798407628
H  H21  1  0.20620000  0.38420000  0.96310000  1.0 0.100781353
H  H22  1  0.35300000  0.56290000  0.81170000  1.0 0.3628208174
H  H23  1  0.83330000  0.29880000  0.71590000  1.0 0.1724934372
H  H24  1  0.26480000  0.23710000  0.93270000  1.0 0.1528669629
H  H25  1  0.93830000  0.44200000  0.69850000  1.0 0.100781353
H  H26  1  0.06220000  0.51330000  0.69990000  1.0 0.100781353
H  H27  1  0.28540000  0.37550000  0.91930000  1.0 0.1094473174
H  H28  1  0.52570000  0.43290000  0.92930000  1.0 0.1281895317
H  H29  1  0.49490000  0.52160000  0.92910000  1.0 0.1094473174
H  H30  1  0.43640000  0.17750000  0.90960000  1.0 0.1177390155
H  H31  1  0.40340000  0.05700000  0.91440000  1.0 0.1094473174
H  H32  1  0.19760000  0.00260000  0.93140000  1.0 0.0740190188
H  H33  1  0.23030000  0.12210000  0.94200000  1.0 0.0617965511
H  H34  1  0.36410000  0.94000000  0.92080000  1.0 0.1177390155
H  H35  1  0.17310000  0.90170000  0.86770000  1.0 0.1094473174
H  H36  1  0.17920000  0.79080000  0.86090000  1.0 0.100781353
H  H37  1  0.27400000  0.23910000  0.88710000  1.0 0.1762013643
H  H38  1  0.43630000  0.17620000  0.92550000  1.0 0.1177390155
H  H39  1  0.20000000  0.00680000  0.89520000  1.0 0.0895459323
H  H40  1  0.23480000  0.12700000  0.89370000  1.0 0.0617965511
H  H41  1  0.17630000  0.90620000  0.96090000  1.0 0.0798407628
H  H42  1  0.17800000  0.79380000  0.96310000  1.0 0.100781353
H  H43  1  0.20990000  0.64700000  0.81170000  1.0 0.3628208174
H  H44  1  0.46550000  0.16670000  0.71590000  1.0 0.1724934372
H  H45  1  0.97230000  0.73520000  0.93270000  1.0 0.1528669629
H  H46  1  0.50370000  0.06170000  0.69850000  1.0 0.100781353
H  H47  1  0.45110000  0.93780000  0.69990000  1.0 0.100781353
H  H48  1  0.09010000  0.71460000  0.91930000  1.0 0.1094473174
H  H49  1  0.90720000  0.47430000  0.92930000  1.0 0.1281895317
H  H50  1  0.02670000  0.50510000  0.92910000  1.0 0.1094473174
H  H51  1  0.74110000  0.56360000  0.90960000  1.0 0.1177390155
H  H52  1  0.65360000  0.59660000  0.91440000  1.0 0.1094473174
H  H53  1  0.80500000  0.80240000  0.93140000  1.0 0.0740190188
H  H54  1  0.89180000  0.76970000  0.94200000  1.0 0.0617965511
H  H55  1  0.57590000  0.63590000  0.92080000  1.0 0.1177390155
H  H56  1  0.72860000  0.82690000  0.86770000  1.0 0.1094473174
H  H57  1  0.61160000  0.82080000  0.86090000  1.0 0.100781353
H  H58  1  0.96510000  0.72600000  0.88710000  1.0 0.1762013643
H  H59  1  0.73990000  0.56370000  0.92550000  1.0 0.1177390155
H  H60  1  0.80680000  0.80000000  0.89520000  1.0 0.0895459323
H  H61  1  0.89220000  0.76520000  0.89370000  1.0 0.0617965511
H  H62  1  0.72990000  0.82370000  0.96090000  1.0 0.0798407628
H  H63  1  0.61580000  0.82200000  0.96310000  1.0 0.100781353
H  H64  1  0.43710000  0.79010000  0.68830000  1.0 0.3628208174
H  H65  1  0.70120000  0.53450000  0.78410000  1.0 0.1724934372
H  H66  1  0.76290000  0.02770000  0.56730000  1.0 0.1528669629
H  H67  1  0.55800000  0.49630000  0.80150000  1.0 0.100781353
H  H68  1  0.48670000  0.54890000  0.80010000  1.0 0.100781353
H  H69  1  0.62450000  0.90990000  0.58070000  1.0 0.1094473174
H  H70  1  0.56710000  0.09280000  0.57070000  1.0 0.1281895317
H  H71  1  0.47840000  0.97330000  0.57090000  1.0 0.1094473174
H  H72  1  0.82250000  0.25890000  0.59040000  1.0 0.1177390155
H  H73  1  0.94300000  0.34640000  0.58560000  1.0 0.1094473174
H  H74  1  0.99740000  0.19500000  0.56860000  1.0 0.0740190188
H  H75  1  0.87790000  0.10820000  0.55800000  1.0 0.0617965511
H  H76  1  0.06000000  0.42410000  0.57920000  1.0 0.1177390155
H  H77  1  0.09830000  0.27140000  0.63230000  1.0 0.1094473174
H  H78  1  0.20920000  0.38840000  0.63910000  1.0 0.100781353
H  H79  1  0.76090000  0.03490000  0.61290000  1.0 0.1762013643
H  H80  1  0.82380000  0.26010000  0.57450000  1.0 0.1177390155
H  H81  1  0.99320000  0.19320000  0.60480000  1.0 0.0895459323
H  H82  1  0.87300000  0.10780000  0.60630000  1.0 0.0617965511
H  H83  1  0.09380000  0.27010000  0.53910000  1.0 0.0798407628
H  H84  1  0.20620000  0.38420000  0.53690000  1.0 0.100781353
H  H85  1  0.35300000  0.56290000  0.68830000  1.0 0.3628208174
H  H86  1  0.83330000  0.29880000  0.78410000  1.0 0.1724934372
H  H87  1  0.26480000  0.23710000  0.56730000  1.0 0.1528669629
H  H88  1  0.93830000  0.44200000  0.80150000  1.0 0.100781353
H  H89  1  0.06220000  0.51330000  0.80010000  1.0 0.100781353
H  H90  1  0.28540000  0.37550000  0.58070000  1.0 0.1094473174
H  H91  1  0.52570000  0.43290000  0.57070000  1.0 0.1281895317
H  H92  1  0.49490000  0.52160000  0.57090000  1.0 0.1094473174
H  H93  1  0.43640000  0.17750000  0.59040000  1.0 0.1177390155
H  H94  1  0.40340000  0.05700000  0.58560000  1.0 0.1094473174
H  H95  1  0.19760000  0.00260000  0.56860000  1.0 0.0740190188
H  H96  1  0.23030000  0.12210000  0.55800000  1.0 0.0617965511
H  H97  1  0.36410000  0.94000000  0.57920000  1.0 0.1177390155
H  H98  1  0.17310000  0.90170000  0.63230000  1.0 0.1094473174
H  H99  1  0.17920000  0.79080000  0.63910000  1.0 0.100781353
H  H100  1  0.27400000  0.23910000  0.61290000  1.0 0.1762013643
H  H101  1  0.43630000  0.17620000  0.57450000  1.0 0.1177390155
H  H102  1  0.20000000  0.00680000  0.60480000  1.0 0.0895459323
H  H103  1  0.23480000  0.12700000  0.60630000  1.0 0.0617965511
H  H104  1  0.17630000  0.90620000  0.53910000  1.0 0.0798407628
H  H105  1  0.17800000  0.79380000  0.53690000  1.0 0.100781353
H  H106  1  0.20990000  0.64700000  0.68830000  1.0 0.3628208174
H  H107  1  0.46550000  0.16670000  0.78410000  1.0 0.1724934372
H  H108  1  0.97230000  0.73520000  0.56730000  1.0 0.1528669629
H  H109  1  0.50370000  0.06170000  0.80150000  1.0 0.100781353
H  H110  1  0.45110000  0.93780000  0.80010000  1.0 0.100781353
H  H111  1  0.09010000  0.71460000  0.58070000  1.0 0.1094473174
H  H112  1  0.90720000  0.47430000  0.57070000  1.0 0.1281895317
H  H113  1  0.02670000  0.50510000  0.57090000  1.0 0.1094473174
H  H114  1  0.74110000  0.56360000  0.59040000  1.0 0.1177390155
H  H115  1  0.65360000  0.59660000  0.58560000  1.0 0.1094473174
H  H116  1  0.80500000  0.80240000  0.56860000  1.0 0.0740190188
H  H117  1  0.89180000  0.76970000  0.55800000  1.0 0.0617965511
H  H118  1  0.57590000  0.63590000  0.57920000  1.0 0.1177390155
H  H119  1  0.72860000  0.82690000  0.63230000  1.0 0.1094473174
H  H120  1  0.61160000  0.82080000  0.63910000  1.0 0.100781353
H  H121  1  0.96510000  0.72600000  0.61290000  1.0 0.1762013643
H  H122  1  0.73990000  0.56370000  0.57450000  1.0 0.1177390155
H  H123  1  0.80680000  0.80000000  0.60480000  1.0 0.0895459323
H  H124  1  0.89220000  0.76520000  0.60630000  1.0 0.0617965511
H  H125  1  0.72990000  0.82370000  0.53910000  1.0 0.0798407628
H  H126  1  0.61580000  0.82200000  0.53690000  1.0 0.100781353
H  H127  1  0.33333333  0.66666667  0.98610000  1.0 0.3965571358
H  H128  1  0.33333333  0.66666667  0.51390000  1.0 0.3965571358
H  H129  1  0.64800000  0.73440000  0.75000000  1.0 0.1094473174
H  H130  1  0.88380000  0.75160000  0.75000000  1.0 0.1094473174
H  H131  1  0.99940000  0.76700000  0.75000000  1.0 0.100781353
H  H132  1  0.91610000  0.55620000  0.75000000  1.0 0.1177390155
H  H133  1  0.80310000  0.54160000  0.75000000  1.0 0.0895459323
H  H134  1  0.02450000  0.57100000  0.75000000  1.0 0.0895459323
H  H135  1  0.10470000  0.78440000  0.75000000  1.0 0.1177390155
H  H136  1  0.20100000  0.75740000  0.75000000  1.0 0.0895459323
H  H137  1  0.08640000  0.35200000  0.75000000  1.0 0.1094473174
H  H138  1  0.86780000  0.11620000  0.75000000  1.0 0.1094473174
H  H139  1  0.76760000  0.00060000  0.75000000  1.0 0.100781353
H  H140  1  0.64010000  0.08390000  0.75000000  1.0 0.1177390155
H  H141  1  0.73850000  0.19690000  0.75000000  1.0 0.0895459323
H  H142  1  0.54650000  0.97550000  0.75000000  1.0 0.0895459323
H  H143  1  0.67970000  0.89530000  0.75000000  1.0 0.1177390155
H  H144  1  0.55640000  0.79900000  0.75000000  1.0 0.0895459323
H  H145  1  0.26560000  0.91360000  0.75000000  1.0 0.1094473174
H  H146  1  0.24840000  0.13220000  0.75000000  1.0 0.1094473174
H  H147  1  0.23300000  0.23240000  0.75000000  1.0 0.100781353
H  H148  1  0.44380000  0.35990000  0.75000000  1.0 0.1177390155
H  H149  1  0.45840000  0.26150000  0.75000000  1.0 0.0895459323
H  H150  1  0.42900000  0.45350000  0.75000000  1.0 0.0895459323
H  H151  1  0.21560000  0.32030000  0.75000000  1.0 0.1177390155
H  H152  1  0.24260000  0.44360000  0.75000000  1.0 0.0895459323
H  H153  1  0.56290000  0.20990000  0.31170000  1.0 0.3628208174
H  H154  1  0.29880000  0.46550000  0.21590000  1.0 0.1724934372
H  H155  1  0.23710000  0.97230000  0.43270000  1.0 0.1528669629
H  H156  1  0.44200000  0.50370000  0.19850000  1.0 0.100781353
H  H157  1  0.51330000  0.45110000  0.19990000  1.0 0.100781353
H  H158  1  0.37550000  0.09010000  0.41930000  1.0 0.1094473174
H  H159  1  0.43290000  0.90720000  0.42930000  1.0 0.1281895317
H  H160  1  0.52160000  0.02670000  0.42910000  1.0 0.1094473174
H  H161  1  0.17750000  0.74110000  0.40960000  1.0 0.1177390155
H  H162  1  0.05700000  0.65360000  0.41440000  1.0 0.1094473174
H  H163  1  0.00260000  0.80500000  0.43140000  1.0 0.0740190188
H  H164  1  0.12210000  0.89180000  0.44200000  1.0 0.0617965511
H  H165  1  0.94000000  0.57590000  0.42080000  1.0 0.1177390155
H  H166  1  0.90170000  0.72860000  0.36770000  1.0 0.1094473174
H  H167  1  0.79080000  0.61160000  0.36090000  1.0 0.100781353
H  H168  1  0.23910000  0.96510000  0.38710000  1.0 0.1762013643
H  H169  1  0.17620000  0.73990000  0.42550000  1.0 0.1177390155
H  H170  1  0.00680000  0.80680000  0.39520000  1.0 0.0895459323
H  H171  1  0.12700000  0.89220000  0.39370000  1.0 0.0617965511
H  H172  1  0.90620000  0.72990000  0.46090000  1.0 0.0798407628
H  H173  1  0.79380000  0.61580000  0.46310000  1.0 0.100781353
H  H174  1  0.64700000  0.43710000  0.31170000  1.0 0.3628208174
H  H175  1  0.16670000  0.70120000  0.21590000  1.0 0.1724934372
H  H176  1  0.73520000  0.76290000  0.43270000  1.0 0.1528669629
H  H177  1  0.06170000  0.55800000  0.19850000  1.0 0.100781353
H  H178  1  0.93780000  0.48670000  0.19990000  1.0 0.100781353
H  H179  1  0.71460000  0.62450000  0.41930000  1.0 0.1094473174
H  H180  1  0.47430000  0.56710000  0.42930000  1.0 0.1281895317
H  H181  1  0.50510000  0.47840000  0.42910000  1.0 0.1094473174
H  H182  1  0.56360000  0.82250000  0.40960000  1.0 0.1177390155
H  H183  1  0.59660000  0.94300000  0.41440000  1.0 0.1094473174
H  H184  1  0.80240000  0.99740000  0.43140000  1.0 0.0740190188
H  H185  1  0.76970000  0.87790000  0.44200000  1.0 0.0617965511
H  H186  1  0.63590000  0.06000000  0.42080000  1.0 0.1177390155
H  H187  1  0.82690000  0.09830000  0.36770000  1.0 0.1094473174
H  H188  1  0.82080000  0.20920000  0.36090000  1.0 0.100781353
H  H189  1  0.72600000  0.76090000  0.38710000  1.0 0.1762013643
H  H190  1  0.56370000  0.82380000  0.42550000  1.0 0.1177390155
H  H191  1  0.80000000  0.99320000  0.39520000  1.0 0.0895459323
H  H192  1  0.76520000  0.87300000  0.39370000  1.0 0.0617965511
H  H193  1  0.82370000  0.09380000  0.46090000  1.0 0.0798407628
H  H194  1  0.82200000  0.20620000  0.46310000  1.0 0.100781353
H  H195  1  0.79010000  0.35300000  0.31170000  1.0 0.3628208174
H  H196  1  0.53450000  0.83330000  0.21590000  1.0 0.1724934372
H  H197  1  0.02770000  0.26480000  0.43270000  1.0 0.1528669629
H  H198  1  0.49630000  0.93830000  0.19850000  1.0 0.100781353
H  H199  1  0.54890000  0.06220000  0.19990000  1.0 0.100781353
H  H200  1  0.90990000  0.28540000  0.41930000  1.0 0.1094473174
H  H201  1  0.09280000  0.52570000  0.42930000  1.0 0.1281895317
H  H202  1  0.97330000  0.49490000  0.42910000  1.0 0.1094473174
H  H203  1  0.25890000  0.43640000  0.40960000  1.0 0.1177390155
H  H204  1  0.34640000  0.40340000  0.41440000  1.0 0.1094473174
H  H205  1  0.19500000  0.19760000  0.43140000  1.0 0.0740190188
H  H206  1  0.10820000  0.23030000  0.44200000  1.0 0.0617965511
H  H207  1  0.42410000  0.36410000  0.42080000  1.0 0.1177390155
H  H208  1  0.27140000  0.17310000  0.36770000  1.0 0.1094473174
H  H209  1  0.38840000  0.17920000  0.36090000  1.0 0.100781353
H  H210  1  0.03490000  0.27400000  0.38710000  1.0 0.1762013643
H  H211  1  0.26010000  0.43630000  0.42550000  1.0 0.1177390155
H  H212  1  0.19320000  0.20000000  0.39520000  1.0 0.0895459323
H  H213  1  0.10780000  0.23480000  0.39370000  1.0 0.0617965511
H  H214  1  0.27010000  0.17630000  0.46090000  1.0 0.0798407628
H  H215  1  0.38420000  0.17800000  0.46310000  1.0 0.100781353
H  H216  1  0.56290000  0.20990000  0.18830000  1.0 0.3628208174
H  H217  1  0.29880000  0.46550000  0.28410000  1.0 0.1724934372
H  H218  1  0.23710000  0.97230000  0.06730000  1.0 0.1528669629
H  H219  1  0.44200000  0.50370000  0.30150000  1.0 0.100781353
H  H220  1  0.51330000  0.45110000  0.30010000  1.0 0.100781353
H  H221  1  0.37550000  0.09010000  0.08070000  1.0 0.1094473174
H  H222  1  0.43290000  0.90720000  0.07070000  1.0 0.1281895317
H  H223  1  0.52160000  0.02670000  0.07090000  1.0 0.1094473174
H  H224  1  0.17750000  0.74110000  0.09040000  1.0 0.1177390155
H  H225  1  0.05700000  0.65360000  0.08560000  1.0 0.1094473174
H  H226  1  0.00260000  0.80500000  0.06860000  1.0 0.0740190188
H  H227  1  0.12210000  0.89180000  0.05800000  1.0 0.0617965511
H  H228  1  0.94000000  0.57590000  0.07920000  1.0 0.1177390155
H  H229  1  0.90170000  0.72860000  0.13230000  1.0 0.1094473174
H  H230  1  0.79080000  0.61160000  0.13910000  1.0 0.100781353
H  H231  1  0.23910000  0.96510000  0.11290000  1.0 0.1762013643
H  H232  1  0.17620000  0.73990000  0.07450000  1.0 0.1177390155
H  H233  1  0.00680000  0.80680000  0.10480000  1.0 0.0895459323
H  H234  1  0.12700000  0.89220000  0.10630000  1.0 0.0617965511
H  H235  1  0.90620000  0.72990000  0.03910000  1.0 0.0798407628
H  H236  1  0.79380000  0.61580000  0.03690000  1.0 0.100781353
H  H237  1  0.64700000  0.43710000  0.18830000  1.0 0.3628208174
H  H238  1  0.16670000  0.70120000  0.28410000  1.0 0.1724934372
H  H239  1  0.73520000  0.76290000  0.06730000  1.0 0.1528669629
H  H240  1  0.06170000  0.55800000  0.30150000  1.0 0.100781353
H  H241  1  0.93780000  0.48670000  0.30010000  1.0 0.100781353
H  H242  1  0.71460000  0.62450000  0.08070000  1.0 0.1094473174
H  H243  1  0.47430000  0.56710000  0.07070000  1.0 0.1281895317
H  H244  1  0.50510000  0.47840000  0.07090000  1.0 0.1094473174
H  H245  1  0.56360000  0.82250000  0.09040000  1.0 0.1177390155
H  H246  1  0.59660000  0.94300000  0.08560000  1.0 0.1094473174
H  H247  1  0.80240000  0.99740000  0.06860000  1.0 0.0740190188
H  H248  1  0.76970000  0.87790000  0.05800000  1.0 0.0617965511
H  H249  1  0.63590000  0.06000000  0.07920000  1.0 0.1177390155
H  H250  1  0.82690000  0.09830000  0.13230000  1.0 0.1094473174
H  H251  1  0.82080000  0.20920000  0.13910000  1.0 0.100781353
H  H252  1  0.72600000  0.76090000  0.11290000  1.0 0.1762013643
H  H253  1  0.56370000  0.82380000  0.07450000  1.0 0.1177390155
H  H254  1  0.80000000  0.99320000  0.10480000  1.0 0.0895459323
H  H255  1  0.76520000  0.87300000  0.10630000  1.0 0.0617965511
H  H256  1  0.82370000  0.09380000  0.03910000  1.0 0.0798407628
H  H257  1  0.82200000  0.20620000  0.03690000  1.0 0.100781353
H  H258  1  0.79010000  0.35300000  0.18830000  1.0 0.3628208174
H  H259  1  0.53450000  0.83330000  0.28410000  1.0 0.1724934372
H  H260  1  0.02770000  0.26480000  0.06730000  1.0 0.1528669629
H  H261  1  0.49630000  0.93830000  0.30150000  1.0 0.100781353
H  H262  1  0.54890000  0.06220000  0.30010000  1.0 0.100781353
H  H263  1  0.90990000  0.28540000  0.08070000  1.0 0.1094473174
H  H264  1  0.09280000  0.52570000  0.07070000  1.0 0.1281895317
H  H265  1  0.97330000  0.49490000  0.07090000  1.0 0.1094473174
H  H266  1  0.25890000  0.43640000  0.09040000  1.0 0.1177390155
H  H267  1  0.34640000  0.40340000  0.08560000  1.0 0.1094473174
H  H268  1  0.19500000  0.19760000  0.06860000  1.0 0.0740190188
H  H269  1  0.10820000  0.23030000  0.05800000  1.0 0.0617965511
H  H270  1  0.42410000  0.36410000  0.07920000  1.0 0.1177390155
H  H271  1  0.27140000  0.17310000  0.13230000  1.0 0.1094473174
H  H272  1  0.38840000  0.17920000  0.13910000  1.0 0.100781353
H  H273  1  0.03490000  0.27400000  0.11290000  1.0 0.1762013643
H  H274  1  0.26010000  0.43630000  0.07450000  1.0 0.1177390155
H  H275  1  0.19320000  0.20000000  0.10480000  1.0 0.0895459323
H  H276  1  0.10780000  0.23480000  0.10630000  1.0 0.0617965511
H  H277  1  0.27010000  0.17630000  0.03910000  1.0 0.0798407628
H  H278  1  0.38420000  0.17800000  0.03690000  1.0 0.100781353
H  H279  1  0.66666667  0.33333333  0.48610000  1.0 0.3965571358
H  H280  1  0.66666667  0.33333333  0.01390000  1.0 0.3965571358
H  H281  1  0.35200000  0.26560000  0.25000000  1.0 0.1094473174
H  H282  1  0.11620000  0.24840000  0.25000000  1.0 0.1094473174
H  H283  1  0.00060000  0.23300000  0.25000000  1.0 0.100781353
H  H284  1  0.08390000  0.44380000  0.25000000  1.0 0.1177390155
H  H285  1  0.19690000  0.45840000  0.25000000  1.0 0.0895459323
H  H286  1  0.97550000  0.42900000  0.25000000  1.0 0.0895459323
H  H287  1  0.89530000  0.21560000  0.25000000  1.0 0.1177390155
H  H288  1  0.79900000  0.24260000  0.25000000  1.0 0.0895459323
H  H289  1  0.91360000  0.64800000  0.25000000  1.0 0.1094473174
H  H290  1  0.13220000  0.88380000  0.25000000  1.0 0.1094473174
H  H291  1  0.23240000  0.99940000  0.25000000  1.0 0.100781353
H  H292  1  0.35990000  0.91610000  0.25000000  1.0 0.1177390155
H  H293  1  0.26150000  0.80310000  0.25000000  1.0 0.0895459323
H  H294  1  0.45350000  0.02450000  0.25000000  1.0 0.0895459323
H  H295  1  0.32030000  0.10470000  0.25000000  1.0 0.1177390155
H  H296  1  0.44360000  0.20100000  0.25000000  1.0 0.0895459323
H  H297  1  0.73440000  0.08640000  0.25000000  1.0 0.1094473174
H  H298  1  0.75160000  0.86780000  0.25000000  1.0 0.1094473174
H  H299  1  0.76700000  0.76760000  0.25000000  1.0 0.100781353
H  H300  1  0.55620000  0.64010000  0.25000000  1.0 0.1177390155
H  H301  1  0.54160000  0.73850000  0.25000000  1.0 0.0895459323
H  H302  1  0.57100000  0.54650000  0.25000000  1.0 0.0895459323
H  H303  1  0.78440000  0.67970000  0.25000000  1.0 0.1177390155
H  H304  1  0.75740000  0.55640000  0.25000000  1.0 0.0895459323
C  C1  1  0.64670000  0.58610000  0.73100000  1.0 0.1094473174
C  C2  1  0.57580000  0.54350000  0.71320000  1.0 -0.0892375373
C  C3  1  0.53290000  0.57300000  0.71780000  1.0 -0.0892375373
C  C4  1  0.48400000  0.85560000  0.92420000  1.0 0.6356888646
C  C5  1  0.54280000  0.93090000  0.92400000  1.0 -0.0199388028
C  C6  1  0.61270000  0.94630000  0.92060000  1.0 -0.2859658069
C  C7  1  0.66430000  0.01730000  0.91920000  1.0 0.1094473174
C  C8  1  0.64850000  0.07190000  0.92300000  1.0 0.0251648091
C  C9  1  0.57880000  0.05630000  0.92690000  1.0 -0.1627595739
C  C10  1  0.52660000  0.98530000  0.92700000  1.0 -0.1183655194
C  C11  1  0.76400000  0.12060000  0.92870000  1.0 0.100781353
C  C12  1  0.83890000  0.17480000  0.92790000  1.0 0.0023418228
C  C13  1  0.85790000  0.24640000  0.91650000  1.0 -0.1691425608
C  C14  1  0.92920000  0.29770000  0.91560000  1.0 -0.3011913017
C  C15  1  0.97950000  0.27750000  0.91630000  1.0 0.0798407628
C  C16  1  0.96150000  0.20730000  0.92780000  1.0 -0.0798374356
C  C17  1  0.89080000  0.15590000  0.93390000  1.0 -0.0798374356
C  C18  1  0.08520000  0.39920000  0.91650000  1.0 0.0023418228
C  C19  1  0.10520000  0.31540000  0.88300000  1.0 -0.037071062
C  C20  1  0.16600000  0.37910000  0.88020000  1.0 -0.0495060673
C  C21  1  0.75970000  0.12460000  0.90560000  1.0 0.1281895317
C  C22  1  0.83510000  0.17580000  0.90460000  1.0 0.0023418228
C  C23  1  0.95860000  0.20670000  0.90250000  1.0 -0.0615575516
C  C24  1  0.88690000  0.15620000  0.89940000  1.0 -0.065938005
C  C25  1  0.10190000  0.31410000  0.94440000  1.0 -0.1123561928
C  C26  1  0.16300000  0.37640000  0.94480000  1.0 -0.0199388028
C  C27  1  0.93940000  0.35330000  0.73100000  1.0 0.100781353
C  C28  1  0.96770000  0.42420000  0.71320000  1.0 -0.0892375373
C  C29  1  0.04010000  0.46710000  0.71780000  1.0 -0.0892375373
C  C30  1  0.37160000  0.51600000  0.92420000  1.0 0.6356888646
C  C31  1  0.38810000  0.45720000  0.92400000  1.0 -0.0199388028
C  C32  1  0.33360000  0.38730000  0.92060000  1.0 -0.2844632135
C  C33  1  0.35300000  0.33570000  0.91920000  1.0 0.1094473174
C  C34  1  0.42340000  0.35150000  0.92300000  1.0 0.0239111597
C  C35  1  0.47750000  0.42120000  0.92690000  1.0 -0.1627595739
C  C36  1  0.45870000  0.47340000  0.92700000  1.0 -0.1183655194
C  C37  1  0.35660000  0.23600000  0.92870000  1.0 0.100781353
C  C38  1  0.33590000  0.16110000  0.92790000  1.0 0.0023418228
C  C39  1  0.38850000  0.14210000  0.91650000  1.0 -0.1691425608
C  C40  1  0.36850000  0.07080000  0.91560000  1.0 -0.3011913017
C  C41  1  0.29800000  0.02050000  0.91630000  1.0 0.0798407628
C  C42  1  0.24580000  0.03850000  0.92780000  1.0 -0.0798374356
C  C43  1  0.26510000  0.10920000  0.93390000  1.0 -0.0798374356
C  C44  1  0.31400000  0.91480000  0.91650000  1.0 -0.0008766267
C  C45  1  0.21020000  0.89480000  0.88300000  1.0 -0.037071062
C  C46  1  0.21310000  0.83400000  0.88020000  1.0 -0.0495060673
C  C47  1  0.36490000  0.24030000  0.90560000  1.0 0.1281895317
C  C48  1  0.34070000  0.16490000  0.90460000  1.0 0.0023418228
C  C49  1  0.24810000  0.04140000  0.90250000  1.0 -0.0615575516
C  C50  1  0.26930000  0.11310000  0.89940000  1.0 -0.065938005
C  C51  1  0.21220000  0.89810000  0.94440000  1.0 -0.1123561928
C  C52  1  0.21340000  0.83700000  0.94480000  1.0 -0.0199388028
C  C53  1  0.41390000  0.06060000  0.73100000  1.0 0.100781353
C  C54  1  0.45650000  0.03230000  0.71320000  1.0 -0.0892375373
C  C55  1  0.42700000  0.95990000  0.71780000  1.0 -0.0892375373
C  C56  1  0.14440000  0.62840000  0.92420000  1.0 0.6356888646
C  C57  1  0.06910000  0.61190000  0.92400000  1.0 -0.0199388028
C  C58  1  0.05370000  0.66640000  0.92060000  1.0 -0.2859658069
C  C59  1  0.98270000  0.64700000  0.91920000  1.0 0.1094473174
C  C60  1  0.92810000  0.57660000  0.92300000  1.0 0.0239111597
C  C61  1  0.94370000  0.52250000  0.92690000  1.0 -0.1627595739
C  C62  1  0.01470000  0.54130000  0.92700000  1.0 -0.1183655194
C  C63  1  0.87940000  0.64340000  0.92870000  1.0 0.100781353
C  C64  1  0.82520000  0.66410000  0.92790000  1.0 0.0023418228
C  C65  1  0.75360000  0.61150000  0.91650000  1.0 -0.1691425608
C  C66  1  0.70230000  0.63150000  0.91560000  1.0 -0.3011913017
C  C67  1  0.72250000  0.70200000  0.91630000  1.0 0.0798407628
C  C68  1  0.79270000  0.75420000  0.92780000  1.0 -0.0798374356
C  C69  1  0.84410000  0.73490000  0.93390000  1.0 -0.0798374356
C  C70  1  0.60080000  0.68600000  0.91650000  1.0 -0.0008766267
C  C71  1  0.68460000  0.78980000  0.88300000  1.0 -0.037071062
C  C72  1  0.62090000  0.78690000  0.88020000  1.0 -0.0495060673
C  C73  1  0.87540000  0.63510000  0.90560000  1.0 0.1281895317
C  C74  1  0.82420000  0.65930000  0.90460000  1.0 0.0023418228
C  C75  1  0.79330000  0.75190000  0.90250000  1.0 -0.0615575516
C  C76  1  0.84380000  0.73070000  0.89940000  1.0 -0.065938005
C  C77  1  0.68590000  0.78780000  0.94440000  1.0 -0.1123561928
C  C78  1  0.62360000  0.78660000  0.94480000  1.0 -0.0199388028
C  C79  1  0.64670000  0.58610000  0.76900000  1.0 0.1094473174
C  C80  1  0.57580000  0.54350000  0.78680000  1.0 -0.0892375373
C  C81  1  0.53290000  0.57300000  0.78220000  1.0 -0.0892375373
C  C82  1  0.48400000  0.85560000  0.57580000  1.0 0.6356888646
C  C83  1  0.54280000  0.93090000  0.57600000  1.0 -0.0199388028
C  C84  1  0.61270000  0.94630000  0.57940000  1.0 -0.2859658069
C  C85  1  0.66430000  0.01730000  0.58080000  1.0 0.1094473174
C  C86  1  0.64850000  0.07190000  0.57700000  1.0 0.0251648091
C  C87  1  0.57880000  0.05630000  0.57310000  1.0 -0.1627595739
C  C88  1  0.52660000  0.98530000  0.57300000  1.0 -0.1183655194
C  C89  1  0.76400000  0.12060000  0.57130000  1.0 0.100781353
C  C90  1  0.83890000  0.17480000  0.57210000  1.0 0.0023418228
C  C91  1  0.85790000  0.24640000  0.58350000  1.0 -0.1691425608
C  C92  1  0.92920000  0.29770000  0.58440000  1.0 -0.3011913017
C  C93  1  0.97950000  0.27750000  0.58370000  1.0 0.0798407628
C  C94  1  0.96150000  0.20730000  0.57220000  1.0 -0.0798374356
C  C95  1  0.89080000  0.15590000  0.56610000  1.0 -0.0798374356
C  C96  1  0.08520000  0.39920000  0.58350000  1.0 0.0023418228
C  C97  1  0.10520000  0.31540000  0.61700000  1.0 -0.037071062
C  C98  1  0.16600000  0.37910000  0.61980000  1.0 -0.0495060673
C  C99  1  0.75970000  0.12460000  0.59440000  1.0 0.1281895317
C  C100  1  0.83510000  0.17580000  0.59540000  1.0 0.0023418228
C  C101  1  0.95860000  0.20670000  0.59750000  1.0 -0.0615575516
C  C102  1  0.88690000  0.15620000  0.60060000  1.0 -0.065938005
C  C103  1  0.10190000  0.31410000  0.55560000  1.0 -0.1123561928
C  C104  1  0.16300000  0.37640000  0.55520000  1.0 -0.0199388028
C  C105  1  0.93940000  0.35330000  0.76900000  1.0 0.100781353
C  C106  1  0.96770000  0.42420000  0.78680000  1.0 -0.0892375373
C  C107  1  0.04010000  0.46710000  0.78220000  1.0 -0.0892375373
C  C108  1  0.37160000  0.51600000  0.57580000  1.0 0.6356888646
C  C109  1  0.38810000  0.45720000  0.57600000  1.0 -0.0199388028
C  C110  1  0.33360000  0.38730000  0.57940000  1.0 -0.2844632135
C  C111  1  0.35300000  0.33570000  0.58080000  1.0 0.1094473174
C  C112  1  0.42340000  0.35150000  0.57700000  1.0 0.0251648091
C  C113  1  0.47750000  0.42120000  0.57310000  1.0 -0.1627595739
C  C114  1  0.45870000  0.47340000  0.57300000  1.0 -0.1183655194
C  C115  1  0.35660000  0.23600000  0.57130000  1.0 0.100781353
C  C116  1  0.33590000  0.16110000  0.57210000  1.0 0.0023418228
C  C117  1  0.38850000  0.14210000  0.58350000  1.0 -0.1691425608
C  C118  1  0.36850000  0.07080000  0.58440000  1.0 -0.3011913017
C  C119  1  0.29800000  0.02050000  0.58370000  1.0 0.0798407628
C  C120  1  0.24580000  0.03850000  0.57220000  1.0 -0.0798374356
C  C121  1  0.26510000  0.10920000  0.56610000  1.0 -0.0798374356
C  C122  1  0.31400000  0.91480000  0.58350000  1.0 -0.0008766267
C  C123  1  0.21020000  0.89480000  0.61700000  1.0 -0.037071062
C  C124  1  0.21310000  0.83400000  0.61980000  1.0 -0.0495060673
C  C125  1  0.36490000  0.24030000  0.59440000  1.0 0.1281895317
C  C126  1  0.34070000  0.16490000  0.59540000  1.0 0.0023418228
C  C127  1  0.24810000  0.04140000  0.59750000  1.0 -0.0615575516
C  C128  1  0.26930000  0.11310000  0.60060000  1.0 -0.065938005
C  C129  1  0.21220000  0.89810000  0.55560000  1.0 -0.1123561928
C  C130  1  0.21340000  0.83700000  0.55520000  1.0 -0.0199388028
C  C131  1  0.41390000  0.06060000  0.76900000  1.0 0.1094473174
C  C132  1  0.45650000  0.03230000  0.78680000  1.0 -0.0892375373
C  C133  1  0.42700000  0.95990000  0.78220000  1.0 -0.0892375373
C  C134  1  0.14440000  0.62840000  0.57580000  1.0 0.6356888646
C  C135  1  0.06910000  0.61190000  0.57600000  1.0 -0.0199388028
C  C136  1  0.05370000  0.66640000  0.57940000  1.0 -0.2859658069
C  C137  1  0.98270000  0.64700000  0.58080000  1.0 0.1094473174
C  C138  1  0.92810000  0.57660000  0.57700000  1.0 0.0239111597
C  C139  1  0.94370000  0.52250000  0.57310000  1.0 -0.1627595739
C  C140  1  0.01470000  0.54130000  0.57300000  1.0 -0.1183655194
C  C141  1  0.87940000  0.64340000  0.57130000  1.0 0.100781353
C  C142  1  0.82520000  0.66410000  0.57210000  1.0 0.0023418228
C  C143  1  0.75360000  0.61150000  0.58350000  1.0 -0.1691425608
C  C144  1  0.70230000  0.63150000  0.58440000  1.0 -0.3011913017
C  C145  1  0.72250000  0.70200000  0.58370000  1.0 0.0798407628
C  C146  1  0.79270000  0.75420000  0.57220000  1.0 -0.0798374356
C  C147  1  0.84410000  0.73490000  0.56610000  1.0 -0.0798374356
C  C148  1  0.60080000  0.68600000  0.58350000  1.0 -0.0008766267
C  C149  1  0.68460000  0.78980000  0.61700000  1.0 -0.037071062
C  C150  1  0.62090000  0.78690000  0.61980000  1.0 -0.0495060673
C  C151  1  0.87540000  0.63510000  0.59440000  1.0 0.1281895317
C  C152  1  0.82420000  0.65930000  0.59540000  1.0 0.0023418228
C  C153  1  0.79330000  0.75190000  0.59750000  1.0 -0.0615575516
C  C154  1  0.84380000  0.73070000  0.60060000  1.0 -0.065938005
C  C155  1  0.68590000  0.78780000  0.55560000  1.0 -0.1123561928
C  C156  1  0.62360000  0.78660000  0.55520000  1.0 -0.0199388028
C  C157  1  0.50710000  0.66720000  0.75000000  1.0 0.4535136157
C  C158  1  0.55790000  0.64110000  0.75000000  1.0 -0.0615575516
C  C159  1  0.62860000  0.68450000  0.75000000  1.0 -0.2506799232
C  C160  1  0.67280000  0.65620000  0.75000000  1.0 0.0524438554
C  C161  1  0.75960000  0.63280000  0.75000000  1.0 0.1724934372
C  C162  1  0.83240000  0.64420000  0.75000000  1.0 -0.0798374356
C  C163  1  0.89020000  0.71160000  0.75000000  1.0 -0.2253780046
C  C164  1  0.95910000  0.72070000  0.75000000  1.0 -0.2609489775
C  C165  1  0.96740000  0.66280000  0.75000000  1.0 0.1393747985
C  C166  1  0.91010000  0.59640000  0.75000000  1.0 -0.1627595739
C  C167  1  0.84300000  0.58810000  0.75000000  1.0 -0.1820762323
C  C168  1  0.05670000  0.62050000  0.75000000  1.0 0.0617965511
C  C169  1  0.09980000  0.73860000  0.75000000  1.0 -0.1288797598
C  C170  1  0.15210000  0.72260000  0.75000000  1.0 -0.0798374356
C  C171  1  0.16010000  0.49290000  0.75000000  1.0 0.4535136157
C  C172  1  0.08320000  0.44210000  0.75000000  1.0 -0.0615575516
C  C173  1  0.05590000  0.37140000  0.75000000  1.0 -0.2442424164
C  C174  1  0.98340000  0.32720000  0.75000000  1.0 0.0524438554
C  C175  1  0.87320000  0.24040000  0.75000000  1.0 0.1724934372
C  C176  1  0.81180000  0.16760000  0.75000000  1.0 -0.0798374356
C  C177  1  0.82140000  0.10980000  0.75000000  1.0 -0.2245462106
C  C178  1  0.76160000  0.04090000  0.75000000  1.0 -0.2609489775
C  C179  1  0.69540000  0.03260000  0.75000000  1.0 0.1393747985
C  C180  1  0.68630000  0.08990000  0.75000000  1.0 -0.1627595739
C  C181  1  0.74510000  0.15700000  0.75000000  1.0 -0.1820762323
C  C182  1  0.56380000  0.94330000  0.75000000  1.0 0.0617965511
C  C183  1  0.63880000  0.90020000  0.75000000  1.0 -0.1288797598
C  C184  1  0.57050000  0.84790000  0.75000000  1.0 -0.0798374356
C  C185  1  0.33280000  0.83990000  0.75000000  1.0 0.4535136157
C  C186  1  0.35890000  0.91680000  0.75000000  1.0 -0.0615575516
C  C187  1  0.31550000  0.94410000  0.75000000  1.0 -0.2506799232
C  C188  1  0.34380000  0.01660000  0.75000000  1.0 0.0524438554
C  C189  1  0.36720000  0.12680000  0.75000000  1.0 0.1724934372
C  C190  1  0.35580000  0.18820000  0.75000000  1.0 -0.0798374356
C  C191  1  0.28840000  0.17860000  0.75000000  1.0 -0.2253780046
C  C192  1  0.27930000  0.23840000  0.75000000  1.0 -0.2609489775
C  C193  1  0.33720000  0.30460000  0.75000000  1.0 0.1393747985
C  C194  1  0.40360000  0.31370000  0.75000000  1.0 -0.1627595739
C  C195  1  0.41190000  0.25490000  0.75000000  1.0 -0.1820762323
C  C196  1  0.37950000  0.43620000  0.75000000  1.0 0.0617965511
C  C197  1  0.26140000  0.36120000  0.75000000  1.0 -0.1288797598
C  C198  1  0.27740000  0.42950000  0.75000000  1.0 -0.0798374356
C  C199  1  0.35330000  0.41390000  0.23100000  1.0 0.100781353
C  C200  1  0.42420000  0.45650000  0.21320000  1.0 -0.0892375373
C  C201  1  0.46710000  0.42700000  0.21780000  1.0 -0.0892375373
C  C202  1  0.51600000  0.14440000  0.42420000  1.0 0.6356888646
C  C203  1  0.45720000  0.06910000  0.42400000  1.0 -0.0199388028
C  C204  1  0.38730000  0.05370000  0.42060000  1.0 -0.2859658069
C  C205  1  0.33570000  0.98270000  0.41920000  1.0 0.1094473174
C  C206  1  0.35150000  0.92810000  0.42300000  1.0 0.0239111597
C  C207  1  0.42120000  0.94370000  0.42690000  1.0 -0.1627595739
C  C208  1  0.47340000  0.01470000  0.42700000  1.0 -0.1183655194
C  C209  1  0.23600000  0.87940000  0.42870000  1.0 0.100781353
C  C210  1  0.16110000  0.82520000  0.42790000  1.0 0.0023418228
C  C211  1  0.14210000  0.75360000  0.41650000  1.0 -0.1691425608
C  C212  1  0.07080000  0.70230000  0.41560000  1.0 -0.3011913017
C  C213  1  0.02050000  0.72250000  0.41630000  1.0 0.0798407628
C  C214  1  0.03850000  0.79270000  0.42780000  1.0 -0.0798374356
C  C215  1  0.10920000  0.84410000  0.43390000  1.0 -0.0798374356
C  C216  1  0.91480000  0.60080000  0.41650000  1.0 -0.0008766267
C  C217  1  0.89480000  0.68460000  0.38300000  1.0 -0.037071062
C  C218  1  0.83400000  0.62090000  0.38020000  1.0 -0.0495060673
C  C219  1  0.24030000  0.87540000  0.40560000  1.0 0.1281895317
C  C220  1  0.16490000  0.82420000  0.40460000  1.0 0.0023418228
C  C221  1  0.04140000  0.79330000  0.40250000  1.0 -0.0615575516
C  C222  1  0.11310000  0.84380000  0.39940000  1.0 -0.065938005
C  C223  1  0.89810000  0.68590000  0.44440000  1.0 -0.1123561928
C  C224  1  0.83700000  0.62360000  0.44480000  1.0 -0.0199388028
C  C225  1  0.06060000  0.64670000  0.23100000  1.0 0.1094473174
C  C226  1  0.03230000  0.57580000  0.21320000  1.0 -0.0892375373
C  C227  1  0.95990000  0.53290000  0.21780000  1.0 -0.0892375373
C  C228  1  0.62840000  0.48400000  0.42420000  1.0 0.6356888646
C  C229  1  0.61190000  0.54280000  0.42400000  1.0 -0.0199388028
C  C230  1  0.66640000  0.61270000  0.42060000  1.0 -0.2859658069
C  C231  1  0.64700000  0.66430000  0.41920000  1.0 0.1094473174
C  C232  1  0.57660000  0.64850000  0.42300000  1.0 0.0251648091
C  C233  1  0.52250000  0.57880000  0.42690000  1.0 -0.1627595739
C  C234  1  0.54130000  0.52660000  0.42700000  1.0 -0.1183655194
C  C235  1  0.64340000  0.76400000  0.42870000  1.0 0.100781353
C  C236  1  0.66410000  0.83890000  0.42790000  1.0 0.0023418228
C  C237  1  0.61150000  0.85790000  0.41650000  1.0 -0.1691425608
C  C238  1  0.63150000  0.92920000  0.41560000  1.0 -0.3011913017
C  C239  1  0.70200000  0.97950000  0.41630000  1.0 0.0798407628
C  C240  1  0.75420000  0.96150000  0.42780000  1.0 -0.0798374356
C  C241  1  0.73490000  0.89080000  0.43390000  1.0 -0.0798374356
C  C242  1  0.68600000  0.08520000  0.41650000  1.0 -0.0008766267
C  C243  1  0.78980000  0.10520000  0.38300000  1.0 -0.037071062
C  C244  1  0.78690000  0.16600000  0.38020000  1.0 -0.0495060673
C  C245  1  0.63510000  0.75970000  0.40560000  1.0 0.1281895317
C  C246  1  0.65930000  0.83510000  0.40460000  1.0 0.0023418228
C  C247  1  0.75190000  0.95860000  0.40250000  1.0 -0.0615575516
C  C248  1  0.73070000  0.88690000  0.39940000  1.0 -0.065938005
C  C249  1  0.78780000  0.10190000  0.44440000  1.0 -0.1123561928
C  C250  1  0.78660000  0.16300000  0.44480000  1.0 -0.0199388028
C  C251  1  0.58610000  0.93940000  0.23100000  1.0 0.1094473174
C  C252  1  0.54350000  0.96770000  0.21320000  1.0 -0.0892375373
C  C253  1  0.57300000  0.04010000  0.21780000  1.0 -0.0892375373
C  C254  1  0.85560000  0.37160000  0.42420000  1.0 0.6356888646
C  C255  1  0.93090000  0.38810000  0.42400000  1.0 -0.0199388028
C  C256  1  0.94630000  0.33360000  0.42060000  1.0 -0.2859658069
C  C257  1  0.01730000  0.35300000  0.41920000  1.0 0.1094473174
C  C258  1  0.07190000  0.42340000  0.42300000  1.0 0.0251648091
C  C259  1  0.05630000  0.47750000  0.42690000  1.0 -0.1627595739
C  C260  1  0.98530000  0.45870000  0.42700000  1.0 -0.1183655194
C  C261  1  0.12060000  0.35660000  0.42870000  1.0 0.100781353
C  C262  1  0.17480000  0.33590000  0.42790000  1.0 0.0023418228
C  C263  1  0.24640000  0.38850000  0.41650000  1.0 -0.1691425608
C  C264  1  0.29770000  0.36850000  0.41560000  1.0 -0.3011913017
C  C265  1  0.27750000  0.29800000  0.41630000  1.0 0.0798407628
C  C266  1  0.20730000  0.24580000  0.42780000  1.0 -0.0798374356
C  C267  1  0.15590000  0.26510000  0.43390000  1.0 -0.0798374356
C  C268  1  0.39920000  0.31400000  0.41650000  1.0 0.0023418228
C  C269  1  0.31540000  0.21020000  0.38300000  1.0 -0.037071062
C  C270  1  0.37910000  0.21310000  0.38020000  1.0 -0.0495060673
C  C271  1  0.12460000  0.36490000  0.40560000  1.0 0.1281895317
C  C272  1  0.17580000  0.34070000  0.40460000  1.0 0.0023418228
C  C273  1  0.20670000  0.24810000  0.40250000  1.0 -0.0615575516
C  C274  1  0.15620000  0.26930000  0.39940000  1.0 -0.065938005
C  C275  1  0.31410000  0.21220000  0.44440000  1.0 -0.1123561928
C  C276  1  0.37640000  0.21340000  0.44480000  1.0 -0.0199388028
C  C277  1  0.35330000  0.41390000  0.26900000  1.0 0.100781353
C  C278  1  0.42420000  0.45650000  0.28680000  1.0 -0.0892375373
C  C279  1  0.46710000  0.42700000  0.28220000  1.0 -0.0892375373
C  C280  1  0.51600000  0.14440000  0.07580000  1.0 0.6356888646
C  C281  1  0.45720000  0.06910000  0.07600000  1.0 -0.0199388028
C  C282  1  0.38730000  0.05370000  0.07940000  1.0 -0.2844632135
C  C283  1  0.33570000  0.98270000  0.08080000  1.0 0.1094473174
C  C284  1  0.35150000  0.92810000  0.07700000  1.0 0.0239111597
C  C285  1  0.42120000  0.94370000  0.07310000  1.0 -0.1627595739
C  C286  1  0.47340000  0.01470000  0.07300000  1.0 -0.1183655194
C  C287  1  0.23600000  0.87940000  0.07130000  1.0 0.100781353
C  C288  1  0.16110000  0.82520000  0.07210000  1.0 0.0023418228
C  C289  1  0.14210000  0.75360000  0.08350000  1.0 -0.1691425608
C  C290  1  0.07080000  0.70230000  0.08440000  1.0 -0.3011913017
C  C291  1  0.02050000  0.72250000  0.08370000  1.0 0.0798407628
C  C292  1  0.03850000  0.79270000  0.07220000  1.0 -0.0798374356
C  C293  1  0.10920000  0.84410000  0.06610000  1.0 -0.0798374356
C  C294  1  0.91480000  0.60080000  0.08350000  1.0 -0.0008766267
C  C295  1  0.89480000  0.68460000  0.11700000  1.0 -0.037071062
C  C296  1  0.83400000  0.62090000  0.11980000  1.0 -0.0495060673
C  C297  1  0.24030000  0.87540000  0.09440000  1.0 0.1281895317
C  C298  1  0.16490000  0.82420000  0.09540000  1.0 0.0023418228
C  C299  1  0.04140000  0.79330000  0.09750000  1.0 -0.0615575516
C  C300  1  0.11310000  0.84380000  0.10060000  1.0 -0.065938005
C  C301  1  0.89810000  0.68590000  0.05560000  1.0 -0.1123561928
C  C302  1  0.83700000  0.62360000  0.05520000  1.0 -0.0199388028
C  C303  1  0.06060000  0.64670000  0.26900000  1.0 0.1094473174
C  C304  1  0.03230000  0.57580000  0.28680000  1.0 -0.0892375373
C  C305  1  0.95990000  0.53290000  0.28220000  1.0 -0.0892375373
C  C306  1  0.62840000  0.48400000  0.07580000  1.0 0.6356888646
C  C307  1  0.61190000  0.54280000  0.07600000  1.0 -0.0199388028
C  C308  1  0.66640000  0.61270000  0.07940000  1.0 -0.2859658069
C  C309  1  0.64700000  0.66430000  0.08080000  1.0 0.1094473174
C  C310  1  0.57660000  0.64850000  0.07700000  1.0 0.0251648091
C  C311  1  0.52250000  0.57880000  0.07310000  1.0 -0.1627595739
C  C312  1  0.54130000  0.52660000  0.07300000  1.0 -0.1183655194
C  C313  1  0.64340000  0.76400000  0.07130000  1.0 0.100781353
C  C314  1  0.66410000  0.83890000  0.07210000  1.0 0.0023418228
C  C315  1  0.61150000  0.85790000  0.08350000  1.0 -0.1691425608
C  C316  1  0.63150000  0.92920000  0.08440000  1.0 -0.3011913017
C  C317  1  0.70200000  0.97950000  0.08370000  1.0 0.0798407628
C  C318  1  0.75420000  0.96150000  0.07220000  1.0 -0.0798374356
C  C319  1  0.73490000  0.89080000  0.06610000  1.0 -0.0798374356
C  C320  1  0.68600000  0.08520000  0.08350000  1.0 -0.0008766267
C  C321  1  0.78980000  0.10520000  0.11700000  1.0 -0.037071062
C  C322  1  0.78690000  0.16600000  0.11980000  1.0 -0.0495060673
C  C323  1  0.63510000  0.75970000  0.09440000  1.0 0.1281895317
C  C324  1  0.65930000  0.83510000  0.09540000  1.0 0.0023418228
C  C325  1  0.75190000  0.95860000  0.09750000  1.0 -0.0615575516
C  C326  1  0.73070000  0.88690000  0.10060000  1.0 -0.065938005
C  C327  1  0.78780000  0.10190000  0.05560000  1.0 -0.1123561928
C  C328  1  0.78660000  0.16300000  0.05520000  1.0 -0.0199388028
C  C329  1  0.58610000  0.93940000  0.26900000  1.0 0.1094473174
C  C330  1  0.54350000  0.96770000  0.28680000  1.0 -0.0892375373
C  C331  1  0.57300000  0.04010000  0.28220000  1.0 -0.0892375373
C  C332  1  0.85560000  0.37160000  0.07580000  1.0 0.6356888646
C  C333  1  0.93090000  0.38810000  0.07600000  1.0 -0.0199388028
C  C334  1  0.94630000  0.33360000  0.07940000  1.0 -0.2859658069
C  C335  1  0.01730000  0.35300000  0.08080000  1.0 0.1094473174
C  C336  1  0.07190000  0.42340000  0.07700000  1.0 0.0251648091
C  C337  1  0.05630000  0.47750000  0.07310000  1.0 -0.1627595739
C  C338  1  0.98530000  0.45870000  0.07300000  1.0 -0.1183655194
C  C339  1  0.12060000  0.35660000  0.07130000  1.0 0.100781353
C  C340  1  0.17480000  0.33590000  0.07210000  1.0 0.0023418228
C  C341  1  0.24640000  0.38850000  0.08350000  1.0 -0.1691425608
C  C342  1  0.29770000  0.36850000  0.08440000  1.0 -0.3011913017
C  C343  1  0.27750000  0.29800000  0.08370000  1.0 0.0798407628
C  C344  1  0.20730000  0.24580000  0.07220000  1.0 -0.0798374356
C  C345  1  0.15590000  0.26510000  0.06610000  1.0 -0.0798374356
C  C346  1  0.39920000  0.31400000  0.08350000  1.0 0.0023418228
C  C347  1  0.31540000  0.21020000  0.11700000  1.0 -0.037071062
C  C348  1  0.37910000  0.21310000  0.11980000  1.0 -0.0495060673
C  C349  1  0.12460000  0.36490000  0.09440000  1.0 0.1281895317
C  C350  1  0.17580000  0.34070000  0.09540000  1.0 0.0023418228
C  C351  1  0.20670000  0.24810000  0.09750000  1.0 -0.0615575516
C  C352  1  0.15620000  0.26930000  0.10060000  1.0 -0.065938005
C  C353  1  0.31410000  0.21220000  0.05560000  1.0 -0.1123561928
C  C354  1  0.37640000  0.21340000  0.05520000  1.0 -0.0199388028
C  C355  1  0.49290000  0.33280000  0.25000000  1.0 0.4535136157
C  C356  1  0.44210000  0.35890000  0.25000000  1.0 -0.0615575516
C  C357  1  0.37140000  0.31550000  0.25000000  1.0 -0.2506799232
C  C358  1  0.32720000  0.34380000  0.25000000  1.0 0.0524438554
C  C359  1  0.24040000  0.36720000  0.25000000  1.0 0.1724934372
C  C360  1  0.16760000  0.35580000  0.25000000  1.0 -0.0798374356
C  C361  1  0.10980000  0.28840000  0.25000000  1.0 -0.2253780046
C  C362  1  0.04090000  0.27930000  0.25000000  1.0 -0.2609489775
C  C363  1  0.03260000  0.33720000  0.25000000  1.0 0.1393747985
C  C364  1  0.08990000  0.40360000  0.25000000  1.0 -0.1627595739
C  C365  1  0.15700000  0.41190000  0.25000000  1.0 -0.1820762323
C  C366  1  0.94330000  0.37950000  0.25000000  1.0 0.0617965511
C  C367  1  0.90020000  0.26140000  0.25000000  1.0 -0.1288797598
C  C368  1  0.84790000  0.27740000  0.25000000  1.0 -0.0798374356
C  C369  1  0.83990000  0.50710000  0.25000000  1.0 0.4535136157
C  C370  1  0.91680000  0.55790000  0.25000000  1.0 -0.0615575516
C  C371  1  0.94410000  0.62860000  0.25000000  1.0 -0.2506799232
C  C372  1  0.01660000  0.67280000  0.25000000  1.0 0.0524438554
C  C373  1  0.12680000  0.75960000  0.25000000  1.0 0.1724934372
C  C374  1  0.18820000  0.83240000  0.25000000  1.0 -0.0798374356
C  C375  1  0.17860000  0.89020000  0.25000000  1.0 -0.2253780046
C  C376  1  0.23840000  0.95910000  0.25000000  1.0 -0.2609489775
C  C377  1  0.30460000  0.96740000  0.25000000  1.0 0.1393747985
C  C378  1  0.31370000  0.91010000  0.25000000  1.0 -0.1627595739
C  C379  1  0.25490000  0.84300000  0.25000000  1.0 -0.1820762323
C  C380  1  0.43620000  0.05670000  0.25000000  1.0 0.0617965511
C  C381  1  0.36120000  0.09980000  0.25000000  1.0 -0.1288797598
C  C382  1  0.42950000  0.15210000  0.25000000  1.0 -0.0798374356
C  C383  1  0.66720000  0.16010000  0.25000000  1.0 0.4535136157
C  C384  1  0.64110000  0.08320000  0.25000000  1.0 -0.0615575516
C  C385  1  0.68450000  0.05590000  0.25000000  1.0 -0.2506799232
C  C386  1  0.65620000  0.98340000  0.25000000  1.0 0.0524438554
C  C387  1  0.63280000  0.87320000  0.25000000  1.0 0.1724934372
C  C388  1  0.64420000  0.81180000  0.25000000  1.0 -0.0798374356
C  C389  1  0.71160000  0.82140000  0.25000000  1.0 -0.2245462106
C  C390  1  0.72070000  0.76160000  0.25000000  1.0 -0.2609489775
C  C391  1  0.66280000  0.69540000  0.25000000  1.0 0.1393747985
C  C392  1  0.59640000  0.68630000  0.25000000  1.0 -0.1627595739
C  C393  1  0.58810000  0.74510000  0.25000000  1.0 -0.1820762323
C  C394  1  0.62050000  0.56380000  0.25000000  1.0 0.0617965511
C  C395  1  0.73860000  0.63880000  0.25000000  1.0 -0.1288797598
C  C396  1  0.72260000  0.57050000  0.25000000  1.0 -0.0798374356
N  N1  1  0.70250000  0.57350000  0.72870000  1.0 -0.1183655194
N  N2  1  0.71090000  0.13670000  0.92360000  1.0 -0.3139415846
N  N3  1  0.73840000  0.04940000  0.92830000  1.0 -0.1123561928
N  N4  1  0.05260000  0.32830000  0.91420000  1.0 -0.0109815631
N  N5  1  0.15270000  0.43070000  0.91260000  1.0 -0.3399497883
N  N6  1  0.73600000  0.05410000  0.90020000  1.0 -0.1026332432
N  N7  1  0.87100000  0.29750000  0.72870000  1.0 -0.1183655194
N  N8  1  0.42580000  0.28910000  0.92360000  1.0 -0.3139415846
N  N9  1  0.31100000  0.26160000  0.92830000  1.0 -0.1123561928
N  N10  1  0.27570000  0.94740000  0.91420000  1.0 -0.0109815631
N  N11  1  0.27800000  0.84730000  0.91260000  1.0 -0.3399497883
N  N12  1  0.31810000  0.26400000  0.90020000  1.0 -0.1026332432
N  N13  1  0.42650000  0.12900000  0.72870000  1.0 -0.1183655194
N  N14  1  0.86330000  0.57420000  0.92360000  1.0 -0.3139415846
N  N15  1  0.95060000  0.68900000  0.92830000  1.0 -0.1123561928
N  N16  1  0.67170000  0.72430000  0.91420000  1.0 -0.0109815631
N  N17  1  0.56930000  0.72200000  0.91260000  1.0 -0.3399497883
N  N18  1  0.94590000  0.68190000  0.90020000  1.0 -0.1026332432
N  N19  1  0.70250000  0.57350000  0.77130000  1.0 -0.1183655194
N  N20  1  0.71090000  0.13670000  0.57640000  1.0 -0.3139415846
N  N21  1  0.73840000  0.04940000  0.57170000  1.0 -0.1123561928
N  N22  1  0.05260000  0.32830000  0.58580000  1.0 -0.0109815631
N  N23  1  0.15270000  0.43070000  0.58740000  1.0 -0.3399497883
N  N24  1  0.73600000  0.05410000  0.59980000  1.0 -0.1026332432
N  N25  1  0.87100000  0.29750000  0.77130000  1.0 -0.1183655194
N  N26  1  0.42580000  0.28910000  0.57640000  1.0 -0.3139415846
N  N27  1  0.31100000  0.26160000  0.57170000  1.0 -0.1123561928
N  N28  1  0.27570000  0.94740000  0.58580000  1.0 -0.0109815631
N  N29  1  0.27800000  0.84730000  0.58740000  1.0 -0.3399497883
N  N30  1  0.31810000  0.26400000  0.59980000  1.0 -0.1026332432
N  N31  1  0.42650000  0.12900000  0.77130000  1.0 -0.1183655194
N  N32  1  0.86330000  0.57420000  0.57640000  1.0 -0.3139415846
N  N33  1  0.95060000  0.68900000  0.57170000  1.0 -0.1123561928
N  N34  1  0.67170000  0.72430000  0.58580000  1.0 -0.0109815631
N  N35  1  0.56930000  0.72200000  0.58740000  1.0 -0.3399497883
N  N36  1  0.94590000  0.68190000  0.59980000  1.0 -0.1026332432
N  N37  1  0.74560000  0.68620000  0.75000000  1.0 -0.4686032102
N  N38  1  0.03650000  0.67290000  0.75000000  1.0 -0.0271841788
N  N39  1  0.12710000  0.64990000  0.75000000  1.0 -0.364533873
N  N40  1  0.94060000  0.25440000  0.75000000  1.0 -0.4686032102
N  N41  1  0.63640000  0.96350000  0.75000000  1.0 -0.0271841788
N  N42  1  0.52280000  0.87290000  0.75000000  1.0 -0.364533873
N  N43  1  0.31380000  0.05940000  0.75000000  1.0 -0.4686032102
N  N44  1  0.32710000  0.36360000  0.75000000  1.0 -0.0271841788
N  N45  1  0.35010000  0.47720000  0.75000000  1.0 -0.364533873
N  N46  1  0.29750000  0.42650000  0.22870000  1.0 -0.1183655194
N  N47  1  0.28910000  0.86330000  0.42360000  1.0 -0.3139415846
N  N48  1  0.26160000  0.95060000  0.42830000  1.0 -0.1123561928
N  N49  1  0.94740000  0.67170000  0.41420000  1.0 -0.0109815631
N  N50  1  0.84730000  0.56930000  0.41260000  1.0 -0.3399497883
N  N51  1  0.26400000  0.94590000  0.40020000  1.0 -0.1026332432
N  N52  1  0.12900000  0.70250000  0.22870000  1.0 -0.1183655194
N  N53  1  0.57420000  0.71090000  0.42360000  1.0 -0.3139415846
N  N54  1  0.68900000  0.73840000  0.42830000  1.0 -0.1123561928
N  N55  1  0.72430000  0.05260000  0.41420000  1.0 -0.0109815631
N  N56  1  0.72200000  0.15270000  0.41260000  1.0 -0.3399497883
N  N57  1  0.68190000  0.73600000  0.40020000  1.0 -0.1026332432
N  N58  1  0.57350000  0.87100000  0.22870000  1.0 -0.1183655194
N  N59  1  0.13670000  0.42580000  0.42360000  1.0 -0.3139415846
N  N60  1  0.04940000  0.31100000  0.42830000  1.0 -0.1123561928
N  N61  1  0.32830000  0.27570000  0.41420000  1.0 -0.0109815631
N  N62  1  0.43070000  0.27800000  0.41260000  1.0 -0.3399497883
N  N63  1  0.05410000  0.31810000  0.40020000  1.0 -0.1026332432
N  N64  1  0.29750000  0.42650000  0.27130000  1.0 -0.1183655194
N  N65  1  0.28910000  0.86330000  0.07640000  1.0 -0.3139415846
N  N66  1  0.26160000  0.95060000  0.07170000  1.0 -0.1123561928
N  N67  1  0.94740000  0.67170000  0.08580000  1.0 -0.0109815631
N  N68  1  0.84730000  0.56930000  0.08740000  1.0 -0.3399497883
N  N69  1  0.26400000  0.94590000  0.09980000  1.0 -0.1026332432
N  N70  1  0.12900000  0.70250000  0.27130000  1.0 -0.1183655194
N  N71  1  0.57420000  0.71090000  0.07640000  1.0 -0.3139415846
N  N72  1  0.68900000  0.73840000  0.07170000  1.0 -0.1123561928
N  N73  1  0.72430000  0.05260000  0.08580000  1.0 -0.0109815631
N  N74  1  0.72200000  0.15270000  0.08740000  1.0 -0.3399497883
N  N75  1  0.68190000  0.73600000  0.09980000  1.0 -0.1026332432
N  N76  1  0.57350000  0.87100000  0.27130000  1.0 -0.1183655194
N  N77  1  0.13670000  0.42580000  0.07640000  1.0 -0.3139415846
N  N78  1  0.04940000  0.31100000  0.07170000  1.0 -0.1123561928
N  N79  1  0.32830000  0.27570000  0.08580000  1.0 -0.0109815631
N  N80  1  0.43070000  0.27800000  0.08740000  1.0 -0.3399497883
N  N81  1  0.05410000  0.31810000  0.09980000  1.0 -0.1026332432
N  N82  1  0.25440000  0.31380000  0.25000000  1.0 -0.4686032102
N  N83  1  0.96350000  0.32710000  0.25000000  1.0 -0.0271841788
N  N84  1  0.87290000  0.35010000  0.25000000  1.0 -0.364533873
N  N85  1  0.05940000  0.74560000  0.25000000  1.0 -0.4686032102
N  N86  1  0.36360000  0.03650000  0.25000000  1.0 -0.0271841788
N  N87  1  0.47720000  0.12710000  0.25000000  1.0 -0.364533873
N  N88  1  0.68620000  0.94060000  0.25000000  1.0 -0.4686032102
N  N89  1  0.67290000  0.63640000  0.25000000  1.0 -0.0271841788
N  N90  1  0.64990000  0.52280000  0.25000000  1.0 -0.364533873
O  O1  1  0.47100000  0.67300000  0.79090000  1.0 -0.0495060673
O  O2  1  0.50034000  0.80768000  0.92304000  1.0 -0.6767785813
O  O3  1  0.42151000  0.84457000  0.92575000  1.0 -0.698765344
O  O4  1  0.39909000  0.74368000  0.82874000  1.0 -1.094836627
O  O5  1  0.50310000  0.68290000  0.68960000  1.0 -0.2506799232
O  O6  1  0.20200000  0.52900000  0.79090000  1.0 -0.0495060673
O  O7  1  0.30734000  0.49966000  0.92304000  1.0 -0.6767785813
O  O8  1  0.42306000  0.57849000  0.92575000  1.0 -0.698765344
O  O9  1  0.34459000  0.60091000  0.82874000  1.0 -1.094836627
O  O10  1  0.17980000  0.49690000  0.68960000  1.0 -0.2506799232
O  O11  1  0.32700000  0.79800000  0.79090000  1.0 -0.0615575516
O  O12  1  0.19232000  0.69266000  0.92304000  1.0 -0.6767785813
O  O13  1  0.15543000  0.57694000  0.92575000  1.0 -0.698765344
O  O14  1  0.25632000  0.65541000  0.82874000  1.0 -1.094836627
O  O15  1  0.31710000  0.82020000  0.68960000  1.0 -0.2506799232
O  O16  1  0.47100000  0.67300000  0.70910000  1.0 -0.0495060673
O  O17  1  0.50034000  0.80768000  0.57696000  1.0 -0.6767785813
O  O18  1  0.42151000  0.84457000  0.57425000  1.0 -0.698765344
O  O19  1  0.39909000  0.74368000  0.67126000  1.0 -1.094836627
O  O20  1  0.50310000  0.68290000  0.81040000  1.0 -0.2506799232
O  O21  1  0.20200000  0.52900000  0.70910000  1.0 -0.0495060673
O  O22  1  0.30734000  0.49966000  0.57696000  1.0 -0.6767785813
O  O23  1  0.42306000  0.57849000  0.57425000  1.0 -0.698765344
O  O24  1  0.34459000  0.60091000  0.67126000  1.0 -1.094836627
O  O25  1  0.17980000  0.49690000  0.81040000  1.0 -0.2506799232
O  O26  1  0.32700000  0.79800000  0.70910000  1.0 -0.0615575516
O  O27  1  0.19232000  0.69266000  0.57696000  1.0 -0.6767785813
O  O28  1  0.15543000  0.57694000  0.57425000  1.0 -0.698765344
O  O29  1  0.25632000  0.65541000  0.67126000  1.0 -1.094836627
O  O30  1  0.31710000  0.82020000  0.81040000  1.0 -0.2506799232
O  O31  1  0.33333333  0.66666667  0.93810000  1.0 -1.1816820369
O  O32  1  0.33333333  0.66666667  0.56190000  1.0 -1.1816820369
O  O33  1  0.52900000  0.32700000  0.29090000  1.0 -0.0615575516
O  O34  1  0.49966000  0.19232000  0.42304000  1.0 -0.6767785813
O  O35  1  0.57849000  0.15543000  0.42575000  1.0 -0.698765344
O  O36  1  0.60091000  0.25632000  0.32874000  1.0 -1.094836627
O  O37  1  0.49690000  0.31710000  0.18960000  1.0 -0.2506799232
O  O38  1  0.79800000  0.47100000  0.29090000  1.0 -0.0615575516
O  O39  1  0.69266000  0.50034000  0.42304000  1.0 -0.6767785813
O  O40  1  0.57694000  0.42151000  0.42575000  1.0 -0.698765344
O  O41  1  0.65541000  0.39909000  0.32874000  1.0 -1.094836627
O  O42  1  0.82020000  0.50310000  0.18960000  1.0 -0.2506799232
O  O43  1  0.67300000  0.20200000  0.29090000  1.0 -0.0495060673
O  O44  1  0.80768000  0.30734000  0.42304000  1.0 -0.6767785813
O  O45  1  0.84457000  0.42306000  0.42575000  1.0 -0.698765344
O  O46  1  0.74368000  0.34459000  0.32874000  1.0 -1.0965271459
O  O47  1  0.68290000  0.17980000  0.18960000  1.0 -0.2506799232
O  O48  1  0.52900000  0.32700000  0.20910000  1.0 -0.0615575516
O  O49  1  0.49966000  0.19232000  0.07696000  1.0 -0.6767785813
O  O50  1  0.57849000  0.15543000  0.07425000  1.0 -0.698765344
O  O51  1  0.60091000  0.25632000  0.17126000  1.0 -1.094836627
O  O52  1  0.49690000  0.31710000  0.31040000  1.0 -0.2506799232
O  O53  1  0.79800000  0.47100000  0.20910000  1.0 -0.0615575516
O  O54  1  0.69266000  0.50034000  0.07696000  1.0 -0.6767785813
O  O55  1  0.57694000  0.42151000  0.07425000  1.0 -0.698765344
O  O56  1  0.65541000  0.39909000  0.17126000  1.0 -1.094836627
O  O57  1  0.82020000  0.50310000  0.31040000  1.0 -0.2506799232
O  O58  1  0.67300000  0.20200000  0.20910000  1.0 -0.0495060673
O  O59  1  0.80768000  0.30734000  0.07696000  1.0 -0.6767785813
O  O60  1  0.84457000  0.42306000  0.07425000  1.0 -0.698765344
O  O61  1  0.74368000  0.34459000  0.17126000  1.0 -1.0965271459
O  O62  1  0.68290000  0.17980000  0.31040000  1.0 -0.2506799232
O  O63  1  0.66666667  0.33333333  0.43810000  1.0 -1.1816820369
O  O64  1  0.66666667  0.33333333  0.06190000  1.0 -1.1816820369
