# DDEC6 charges by PACMAN v1.1 (https://github.com/mtap-research/PACMAN-charge/)
data_AHIKEK_ASR_pacman
_symmetry_space_group_name_H-M   'P 1'
_cell_length_a   21.79530000
_cell_length_b   21.79530000
_cell_length_c   20.97120000
_cell_angle_alpha   90.00000000
_cell_angle_beta   90.00000000
_cell_angle_gamma   120.00000000
_symmetry_Int_Tables_number   1
_chemical_formula_structural   Er7H105C171(N18O13)2
_chemical_formula_sum   'Er14 H210 C342 N72 O52'
_cell_volume   8627.39368506
_cell_formula_units_Z   2
loop_
 _symmetry_equiv_pos_site_id
 _symmetry_equiv_pos_as_xyz
  1  'x, y, z'
loop_
 _atom_site_type_symbol
 _atom_site_label
 _atom_site_symmetry_multiplicity
 _atom_site_fract_x
 _atom_site_fract_y
 _atom_site_fract_z
 _atom_site_occupancy
 _atom_site_charge
Er  Er1  1  0.55764000  0.31223000  0.10568000  1.0 2.0748790452
Er  Er2  1  0.75459000  0.44236000  0.10568000  1.0 2.0748790452
Er  Er3  1  0.68777000  0.24541000  0.10568000  1.0 2.0756325804
Er  Er4  1  0.55764000  0.31223000  0.39432000  1.0 2.0748790452
Er  Er5  1  0.75459000  0.44236000  0.39432000  1.0 2.0748790452
Er  Er6  1  0.68777000  0.24541000  0.39432000  1.0 2.0748790452
Er  Er7  1  0.66666667  0.33333333  0.25000000  1.0 2.2278634391
Er  Er8  1  0.44236000  0.68777000  0.60568000  1.0 2.0756325804
Er  Er9  1  0.24541000  0.55764000  0.60568000  1.0 2.0748790452
Er  Er10  1  0.31223000  0.75459000  0.60568000  1.0 2.0748790452
Er  Er11  1  0.44236000  0.68777000  0.89432000  1.0 2.0756325804
Er  Er12  1  0.24541000  0.55764000  0.89432000  1.0 2.0748790452
Er  Er13  1  0.31223000  0.75459000  0.89432000  1.0 2.0748790452
Er  Er14  1  0.33333333  0.66666667  0.75000000  1.0 2.2278634391
H  H1  1  0.23814000  0.96890000  0.08821000  1.0 0.2792085938
H  H2  1  0.05602000  0.65380000  0.08350000  1.0 0.1300181183
H  H3  1  0.43310000  0.90832000  0.06804000  1.0 0.1386909737
H  H4  1  0.17594000  0.73894000  0.08347000  1.0 0.120336049
H  H5  1  0.37567000  0.08884000  0.08322000  1.0 0.1109346462
H  H6  1  0.93777000  0.57438000  0.08191000  1.0 0.120336049
H  H7  1  0.52081000  0.02655000  0.07139000  1.0 0.1109346462
H  H8  1  0.00517000  0.80585000  0.08384000  1.0 0.1109346462
H  H9  1  0.12169000  0.88971000  0.07431000  1.0 0.1109346462
H  H10  1  0.79255000  0.61186000  0.14208000  1.0 0.1109346462
H  H11  1  0.90045000  0.72689000  0.13300000  1.0 0.120336049
H  H12  1  0.90406000  0.72645000  0.03743000  1.0 0.1015932663
H  H13  1  0.79248000  0.61349000  0.04173000  1.0 0.1109346462
H  H14  1  0.73076000  0.76186000  0.08821000  1.0 0.2792085938
H  H15  1  0.59778000  0.94398000  0.08350000  1.0 0.1300181183
H  H16  1  0.47522000  0.56690000  0.06804000  1.0 0.1386909737
H  H17  1  0.56300000  0.82406000  0.08347000  1.0 0.120336049
H  H18  1  0.71317000  0.62433000  0.08322000  1.0 0.1109346462
H  H19  1  0.63661000  0.06223000  0.08191000  1.0 0.120336049
H  H20  1  0.50574000  0.47919000  0.07139000  1.0 0.1109346462
H  H21  1  0.80068000  0.99483000  0.08384000  1.0 0.1109346462
H  H22  1  0.76802000  0.87831000  0.07431000  1.0 0.1109346462
H  H23  1  0.81931000  0.20745000  0.14208000  1.0 0.1109346462
H  H24  1  0.82644000  0.09955000  0.13300000  1.0 0.120336049
H  H25  1  0.82239000  0.09594000  0.03743000  1.0 0.1015932663
H  H26  1  0.82101000  0.20752000  0.04173000  1.0 0.1109346462
H  H27  1  0.03110000  0.26924000  0.08821000  1.0 0.2792085938
H  H28  1  0.34620000  0.40222000  0.08350000  1.0 0.1300181183
H  H29  1  0.09168000  0.52478000  0.06804000  1.0 0.1386909737
H  H30  1  0.26106000  0.43700000  0.08347000  1.0 0.120336049
H  H31  1  0.91116000  0.28683000  0.08322000  1.0 0.1109346462
H  H32  1  0.42562000  0.36339000  0.08191000  1.0 0.120336049
H  H33  1  0.97345000  0.49426000  0.07139000  1.0 0.1109346462
H  H34  1  0.19415000  0.19932000  0.08384000  1.0 0.1109346462
H  H35  1  0.11029000  0.23198000  0.07431000  1.0 0.1109346462
H  H36  1  0.38814000  0.18069000  0.14208000  1.0 0.1109346462
H  H37  1  0.27311000  0.17356000  0.13300000  1.0 0.120336049
H  H38  1  0.27355000  0.17761000  0.03743000  1.0 0.1015932663
H  H39  1  0.38651000  0.17899000  0.04173000  1.0 0.1109346462
H  H40  1  0.23814000  0.96890000  0.41179000  1.0 0.2792085938
H  H41  1  0.05602000  0.65380000  0.41650000  1.0 0.1300181183
H  H42  1  0.43310000  0.90832000  0.43196000  1.0 0.1386909737
H  H43  1  0.17594000  0.73894000  0.41653000  1.0 0.120336049
H  H44  1  0.37567000  0.08884000  0.41678000  1.0 0.1109346462
H  H45  1  0.93777000  0.57438000  0.41809000  1.0 0.120336049
H  H46  1  0.52081000  0.02655000  0.42861000  1.0 0.1109346462
H  H47  1  0.00517000  0.80585000  0.41616000  1.0 0.1109346462
H  H48  1  0.12169000  0.88971000  0.42569000  1.0 0.1109346462
H  H49  1  0.79255000  0.61186000  0.35792000  1.0 0.1109346462
H  H50  1  0.90045000  0.72689000  0.36700000  1.0 0.120336049
H  H51  1  0.90406000  0.72645000  0.46257000  1.0 0.1015932663
H  H52  1  0.79248000  0.61349000  0.45827000  1.0 0.1109346462
H  H53  1  0.73076000  0.76186000  0.41179000  1.0 0.2792085938
H  H54  1  0.59778000  0.94398000  0.41650000  1.0 0.1300181183
H  H55  1  0.47522000  0.56690000  0.43196000  1.0 0.1386909737
H  H56  1  0.56300000  0.82406000  0.41653000  1.0 0.120336049
H  H57  1  0.71317000  0.62433000  0.41678000  1.0 0.1109346462
H  H58  1  0.63661000  0.06223000  0.41809000  1.0 0.120336049
H  H59  1  0.50574000  0.47919000  0.42861000  1.0 0.1109346462
H  H60  1  0.80068000  0.99483000  0.41616000  1.0 0.1109346462
H  H61  1  0.76802000  0.87831000  0.42569000  1.0 0.1109346462
H  H62  1  0.81931000  0.20745000  0.35792000  1.0 0.1109346462
H  H63  1  0.82644000  0.09955000  0.36700000  1.0 0.120336049
H  H64  1  0.82239000  0.09594000  0.46257000  1.0 0.1015932663
H  H65  1  0.82101000  0.20752000  0.45827000  1.0 0.1109346462
H  H66  1  0.03110000  0.26924000  0.41179000  1.0 0.2792085938
H  H67  1  0.34620000  0.40222000  0.41650000  1.0 0.1300181183
H  H68  1  0.09168000  0.52478000  0.43196000  1.0 0.1386909737
H  H69  1  0.26106000  0.43700000  0.41653000  1.0 0.120336049
H  H70  1  0.91116000  0.28683000  0.41678000  1.0 0.1109346462
H  H71  1  0.42562000  0.36339000  0.41809000  1.0 0.120336049
H  H72  1  0.97345000  0.49426000  0.42861000  1.0 0.1109346462
H  H73  1  0.19415000  0.19932000  0.41616000  1.0 0.1109346462
H  H74  1  0.11029000  0.23198000  0.42569000  1.0 0.1109346462
H  H75  1  0.38814000  0.18069000  0.35792000  1.0 0.1109346462
H  H76  1  0.27311000  0.17356000  0.36700000  1.0 0.120336049
H  H77  1  0.27355000  0.17761000  0.46257000  1.0 0.1015932663
H  H78  1  0.38651000  0.17899000  0.45827000  1.0 0.1109346462
H  H79  1  0.35298000  0.26765000  0.25000000  1.0 0.120336049
H  H80  1  0.19665000  0.45818000  0.25000000  1.0 0.1109346462
H  H81  1  0.08420000  0.44378000  0.25000000  1.0 0.1300181183
H  H82  1  0.80239000  0.24667000  0.25000000  1.0 0.1109346462
H  H83  1  0.89877000  0.22039000  0.25000000  1.0 0.1109346462
H  H84  1  0.29865000  0.46761000  0.25000000  1.0 0.2717796182
H  H85  1  0.11650000  0.25023000  0.25000000  1.0 0.1300181183
H  H86  1  0.00268000  0.23466000  0.25000000  1.0 0.120336049
H  H87  1  0.97551000  0.42568000  0.25000000  1.0 0.1015932663
H  H88  1  0.91467000  0.64702000  0.25000000  1.0 0.120336049
H  H89  1  0.26153000  0.80335000  0.25000000  1.0 0.1109346462
H  H90  1  0.35958000  0.91580000  0.25000000  1.0 0.1300181183
H  H91  1  0.44428000  0.19761000  0.25000000  1.0 0.1109346462
H  H92  1  0.32162000  0.10123000  0.25000000  1.0 0.1109346462
H  H93  1  0.16896000  0.70135000  0.25000000  1.0 0.2717796182
H  H94  1  0.13373000  0.88350000  0.25000000  1.0 0.1300181183
H  H95  1  0.23198000  0.99732000  0.25000000  1.0 0.120336049
H  H96  1  0.45017000  0.02449000  0.25000000  1.0 0.1015932663
H  H97  1  0.73235000  0.08533000  0.25000000  1.0 0.120336049
H  H98  1  0.54182000  0.73847000  0.25000000  1.0 0.1109346462
H  H99  1  0.55622000  0.64042000  0.25000000  1.0 0.1300181183
H  H100  1  0.75333000  0.55572000  0.25000000  1.0 0.1109346462
H  H101  1  0.77961000  0.67838000  0.25000000  1.0 0.1109346462
H  H102  1  0.53239000  0.83104000  0.25000000  1.0 0.2717796182
H  H103  1  0.74977000  0.86627000  0.25000000  1.0 0.1300181183
H  H104  1  0.76534000  0.76802000  0.25000000  1.0 0.120336049
H  H105  1  0.57432000  0.54983000  0.25000000  1.0 0.1015932663
H  H106  1  0.76186000  0.03110000  0.58821000  1.0 0.2792085938
H  H107  1  0.94398000  0.34620000  0.58350000  1.0 0.1300181183
H  H108  1  0.56690000  0.09168000  0.56804000  1.0 0.1386909737
H  H109  1  0.82406000  0.26106000  0.58347000  1.0 0.120336049
H  H110  1  0.62433000  0.91116000  0.58322000  1.0 0.1109346462
H  H111  1  0.06223000  0.42562000  0.58191000  1.0 0.120336049
H  H112  1  0.47919000  0.97345000  0.57139000  1.0 0.1109346462
H  H113  1  0.99483000  0.19415000  0.58384000  1.0 0.1109346462
H  H114  1  0.87831000  0.11029000  0.57431000  1.0 0.1109346462
H  H115  1  0.20745000  0.38814000  0.64208000  1.0 0.1109346462
H  H116  1  0.09955000  0.27311000  0.63300000  1.0 0.120336049
H  H117  1  0.09594000  0.27355000  0.53743000  1.0 0.1015932663
H  H118  1  0.20752000  0.38651000  0.54173000  1.0 0.1109346462
H  H119  1  0.26924000  0.23814000  0.58821000  1.0 0.2792085938
H  H120  1  0.40222000  0.05602000  0.58350000  1.0 0.1300181183
H  H121  1  0.52478000  0.43310000  0.56804000  1.0 0.1386909737
H  H122  1  0.43700000  0.17594000  0.58347000  1.0 0.120336049
H  H123  1  0.28683000  0.37567000  0.58322000  1.0 0.1109346462
H  H124  1  0.36339000  0.93777000  0.58191000  1.0 0.120336049
H  H125  1  0.49426000  0.52081000  0.57139000  1.0 0.1109346462
H  H126  1  0.19932000  0.00517000  0.58384000  1.0 0.1109346462
H  H127  1  0.23198000  0.12169000  0.57431000  1.0 0.1109346462
H  H128  1  0.18069000  0.79255000  0.64208000  1.0 0.1109346462
H  H129  1  0.17356000  0.90045000  0.63300000  1.0 0.120336049
H  H130  1  0.17761000  0.90406000  0.53743000  1.0 0.1015932663
H  H131  1  0.17899000  0.79248000  0.54173000  1.0 0.1109346462
H  H132  1  0.96890000  0.73076000  0.58821000  1.0 0.2792085938
H  H133  1  0.65380000  0.59778000  0.58350000  1.0 0.1300181183
H  H134  1  0.90832000  0.47522000  0.56804000  1.0 0.1386909737
H  H135  1  0.73894000  0.56300000  0.58347000  1.0 0.120336049
H  H136  1  0.08884000  0.71317000  0.58322000  1.0 0.1109346462
H  H137  1  0.57438000  0.63661000  0.58191000  1.0 0.120336049
H  H138  1  0.02655000  0.50574000  0.57139000  1.0 0.1109346462
H  H139  1  0.80585000  0.80068000  0.58384000  1.0 0.1109346462
H  H140  1  0.88971000  0.76802000  0.57431000  1.0 0.1109346462
H  H141  1  0.61186000  0.81931000  0.64208000  1.0 0.1109346462
H  H142  1  0.72689000  0.82644000  0.63300000  1.0 0.120336049
H  H143  1  0.72645000  0.82239000  0.53743000  1.0 0.1015932663
H  H144  1  0.61349000  0.82101000  0.54173000  1.0 0.1109346462
H  H145  1  0.76186000  0.03110000  0.91179000  1.0 0.2792085938
H  H146  1  0.94398000  0.34620000  0.91650000  1.0 0.1300181183
H  H147  1  0.56690000  0.09168000  0.93196000  1.0 0.1386909737
H  H148  1  0.82406000  0.26106000  0.91653000  1.0 0.120336049
H  H149  1  0.62433000  0.91116000  0.91678000  1.0 0.1109346462
H  H150  1  0.06223000  0.42562000  0.91809000  1.0 0.120336049
H  H151  1  0.47919000  0.97345000  0.92861000  1.0 0.1109346462
H  H152  1  0.99483000  0.19415000  0.91616000  1.0 0.1109346462
H  H153  1  0.87831000  0.11029000  0.92569000  1.0 0.1109346462
H  H154  1  0.20745000  0.38814000  0.85792000  1.0 0.1109346462
H  H155  1  0.09955000  0.27311000  0.86700000  1.0 0.120336049
H  H156  1  0.09594000  0.27355000  0.96257000  1.0 0.1015932663
H  H157  1  0.20752000  0.38651000  0.95827000  1.0 0.1109346462
H  H158  1  0.26924000  0.23814000  0.91179000  1.0 0.2792085938
H  H159  1  0.40222000  0.05602000  0.91650000  1.0 0.1300181183
H  H160  1  0.52478000  0.43310000  0.93196000  1.0 0.1386909737
H  H161  1  0.43700000  0.17594000  0.91653000  1.0 0.120336049
H  H162  1  0.28683000  0.37567000  0.91678000  1.0 0.1109346462
H  H163  1  0.36339000  0.93777000  0.91809000  1.0 0.120336049
H  H164  1  0.49426000  0.52081000  0.92861000  1.0 0.1109346462
H  H165  1  0.19932000  0.00517000  0.91616000  1.0 0.1109346462
H  H166  1  0.23198000  0.12169000  0.92569000  1.0 0.1109346462
H  H167  1  0.18069000  0.79255000  0.85792000  1.0 0.1109346462
H  H168  1  0.17356000  0.90045000  0.86700000  1.0 0.120336049
H  H169  1  0.17761000  0.90406000  0.96257000  1.0 0.1015932663
H  H170  1  0.17899000  0.79248000  0.95827000  1.0 0.1109346462
H  H171  1  0.96890000  0.73076000  0.91179000  1.0 0.2792085938
H  H172  1  0.65380000  0.59778000  0.91650000  1.0 0.1300181183
H  H173  1  0.90832000  0.47522000  0.93196000  1.0 0.1386909737
H  H174  1  0.73894000  0.56300000  0.91653000  1.0 0.120336049
H  H175  1  0.08884000  0.71317000  0.91678000  1.0 0.1109346462
H  H176  1  0.57438000  0.63661000  0.91809000  1.0 0.120336049
H  H177  1  0.02655000  0.50574000  0.92861000  1.0 0.1109346462
H  H178  1  0.80585000  0.80068000  0.91616000  1.0 0.1109346462
H  H179  1  0.88971000  0.76802000  0.92569000  1.0 0.1109346462
H  H180  1  0.61186000  0.81931000  0.85792000  1.0 0.1109346462
H  H181  1  0.72689000  0.82644000  0.86700000  1.0 0.120336049
H  H182  1  0.72645000  0.82239000  0.96257000  1.0 0.1015932663
H  H183  1  0.61349000  0.82101000  0.95827000  1.0 0.1109346462
H  H184  1  0.64702000  0.73235000  0.75000000  1.0 0.120336049
H  H185  1  0.80335000  0.54182000  0.75000000  1.0 0.1109346462
H  H186  1  0.91580000  0.55622000  0.75000000  1.0 0.1300181183
H  H187  1  0.19761000  0.75333000  0.75000000  1.0 0.1109346462
H  H188  1  0.10123000  0.77961000  0.75000000  1.0 0.1109346462
H  H189  1  0.70135000  0.53239000  0.75000000  1.0 0.2717796182
H  H190  1  0.88350000  0.74977000  0.75000000  1.0 0.1300181183
H  H191  1  0.99732000  0.76534000  0.75000000  1.0 0.120336049
H  H192  1  0.02449000  0.57432000  0.75000000  1.0 0.1015932663
H  H193  1  0.08533000  0.35298000  0.75000000  1.0 0.120336049
H  H194  1  0.73847000  0.19665000  0.75000000  1.0 0.1109346462
H  H195  1  0.64042000  0.08420000  0.75000000  1.0 0.1300181183
H  H196  1  0.55572000  0.80239000  0.75000000  1.0 0.1109346462
H  H197  1  0.67838000  0.89877000  0.75000000  1.0 0.1109346462
H  H198  1  0.83104000  0.29865000  0.75000000  1.0 0.2717796182
H  H199  1  0.86627000  0.11650000  0.75000000  1.0 0.1300181183
H  H200  1  0.76802000  0.00268000  0.75000000  1.0 0.120336049
H  H201  1  0.54983000  0.97551000  0.75000000  1.0 0.1015932663
H  H202  1  0.26765000  0.91467000  0.75000000  1.0 0.120336049
H  H203  1  0.45818000  0.26153000  0.75000000  1.0 0.1109346462
H  H204  1  0.44378000  0.35958000  0.75000000  1.0 0.1300181183
H  H205  1  0.24667000  0.44428000  0.75000000  1.0 0.1109346462
H  H206  1  0.22039000  0.32162000  0.75000000  1.0 0.1109346462
H  H207  1  0.46761000  0.16896000  0.75000000  1.0 0.2717796182
H  H208  1  0.25023000  0.13373000  0.75000000  1.0 0.1300181183
H  H209  1  0.23466000  0.23198000  0.75000000  1.0 0.120336049
H  H210  1  0.42568000  0.45017000  0.75000000  1.0 0.1015932663
C  C1  1  0.06980000  0.70170000  0.08330000  1.0 -0.1862734698
C  C2  1  0.42150000  0.94380000  0.07180000  1.0 -0.1669206432
C  C3  1  0.45700000  0.06880000  0.07630000  1.0 -0.0242710386
C  C4  1  0.14190000  0.75280000  0.08270000  1.0 -0.1072864376
C  C5  1  0.35190000  0.92780000  0.07640000  1.0 0.1386909737
C  C6  1  0.38740000  0.05330000  0.08080000  1.0 -0.2213266037
C  C7  1  0.91360000  0.59940000  0.08450000  1.0 0.0112807453
C  C8  1  0.47350000  0.01470000  0.07290000  1.0 -0.1332275562
C  C9  1  0.01960000  0.72160000  0.08350000  1.0 0.1386909737
C  C10  1  0.51590000  0.14470000  0.07660000  1.0 0.631742426
C  C11  1  0.33600000  0.98230000  0.08150000  1.0 0.1015932663
C  C12  1  0.23780000  0.87820000  0.07990000  1.0 0.2717796182
C  C13  1  0.16240000  0.82400000  0.08110000  1.0 -0.004645831
C  C14  1  0.03950000  0.79240000  0.08220000  1.0 -0.1984355691
C  C15  1  0.10900000  0.84240000  0.07860000  1.0 -0.1395567635
C  C16  1  0.46880000  0.42690000  0.28130000  1.0 -0.0372923605
C  C17  1  0.42760000  0.46060000  0.28370000  1.0 -0.0523126751
C  C18  1  0.83420000  0.62100000  0.12170000  1.0 -0.0673072405
C  C19  1  0.89390000  0.68390000  0.11800000  1.0 -0.060350626
C  C20  1  0.89700000  0.68430000  0.05510000  1.0 -0.0922761055
C  C21  1  0.83570000  0.62140000  0.05750000  1.0 -0.0094824587
C  C22  1  0.63190000  0.93020000  0.08330000  1.0 -0.1862734698
C  C23  1  0.52230000  0.57850000  0.07180000  1.0 -0.1669206432
C  C24  1  0.61180000  0.54300000  0.07630000  1.0 -0.0242710386
C  C25  1  0.61090000  0.85810000  0.08270000  1.0 -0.1072864376
C  C26  1  0.57590000  0.64810000  0.07640000  1.0 0.1386909737
C  C27  1  0.66590000  0.61260000  0.08080000  1.0 -0.2213266037
C  C28  1  0.68580000  0.08640000  0.08450000  1.0 0.0112807453
C  C29  1  0.54120000  0.52650000  0.07290000  1.0 -0.1332275562
C  C30  1  0.70200000  0.98040000  0.08350000  1.0 0.1386909737
C  C31  1  0.62880000  0.48410000  0.07660000  1.0 0.631742426
C  C32  1  0.64630000  0.66400000  0.08150000  1.0 0.1015932663
C  C33  1  0.64040000  0.76220000  0.07990000  1.0 0.2717796182
C  C34  1  0.66160000  0.83760000  0.08110000  1.0 -0.0094824587
C  C35  1  0.75290000  0.96050000  0.08220000  1.0 -0.1984355691
C  C36  1  0.73340000  0.89100000  0.07860000  1.0 -0.1395567635
C  C37  1  0.95810000  0.53120000  0.28130000  1.0 -0.0372923605
C  C38  1  0.03300000  0.57240000  0.28370000  1.0 -0.0523126751
C  C39  1  0.78680000  0.16580000  0.12170000  1.0 -0.0673072405
C  C40  1  0.79000000  0.10610000  0.11800000  1.0 -0.060350626
C  C41  1  0.78730000  0.10300000  0.05510000  1.0 -0.0922761055
C  C42  1  0.78570000  0.16430000  0.05750000  1.0 -0.0094824587
C  C43  1  0.29830000  0.36810000  0.08330000  1.0 -0.1862734698
C  C44  1  0.05620000  0.47770000  0.07180000  1.0 -0.1669206432
C  C45  1  0.93120000  0.38820000  0.07630000  1.0 -0.0242710386
C  C46  1  0.24720000  0.38910000  0.08270000  1.0 -0.1072864376
C  C47  1  0.07220000  0.42410000  0.07640000  1.0 0.1386909737
C  C48  1  0.94670000  0.33410000  0.08080000  1.0 -0.2213266037
C  C49  1  0.40060000  0.31420000  0.08450000  1.0 0.0112807453
C  C50  1  0.98530000  0.45880000  0.07290000  1.0 -0.1332275562
C  C51  1  0.27840000  0.29800000  0.08350000  1.0 0.1386909737
C  C52  1  0.85530000  0.37120000  0.07660000  1.0 0.631742426
C  C53  1  0.01770000  0.35370000  0.08150000  1.0 0.1015932663
C  C54  1  0.12180000  0.35960000  0.07990000  1.0 0.2717796182
C  C55  1  0.17600000  0.33840000  0.08110000  1.0 -0.0094824587
C  C56  1  0.20760000  0.24710000  0.08220000  1.0 -0.1984355691
C  C57  1  0.15760000  0.26660000  0.07860000  1.0 -0.1395567635
C  C58  1  0.57310000  0.04190000  0.28130000  1.0 -0.0372923605
C  C59  1  0.53940000  0.96700000  0.28370000  1.0 -0.0523126751
C  C60  1  0.37900000  0.21320000  0.12170000  1.0 -0.0673072405
C  C61  1  0.31610000  0.21000000  0.11800000  1.0 -0.060350626
C  C62  1  0.31570000  0.21270000  0.05510000  1.0 -0.0922761055
C  C63  1  0.37860000  0.21430000  0.05750000  1.0 -0.0094824587
C  C64  1  0.06980000  0.70170000  0.41670000  1.0 -0.1862734698
C  C65  1  0.42150000  0.94380000  0.42820000  1.0 -0.1669206432
C  C66  1  0.45700000  0.06880000  0.42370000  1.0 -0.0242710386
C  C67  1  0.14190000  0.75280000  0.41730000  1.0 -0.1072864376
C  C68  1  0.35190000  0.92780000  0.42360000  1.0 0.1386909737
C  C69  1  0.38740000  0.05330000  0.41920000  1.0 -0.2213266037
C  C70  1  0.91360000  0.59940000  0.41550000  1.0 0.0112807453
C  C71  1  0.47350000  0.01470000  0.42710000  1.0 -0.1332275562
C  C72  1  0.01960000  0.72160000  0.41650000  1.0 0.1386909737
C  C73  1  0.51590000  0.14470000  0.42340000  1.0 0.631742426
C  C74  1  0.33600000  0.98230000  0.41850000  1.0 0.1015932663
C  C75  1  0.23780000  0.87820000  0.42010000  1.0 0.2717796182
C  C76  1  0.16240000  0.82400000  0.41890000  1.0 -0.004645831
C  C77  1  0.03950000  0.79240000  0.41780000  1.0 -0.1984355691
C  C78  1  0.10900000  0.84240000  0.42140000  1.0 -0.1395567635
C  C79  1  0.46880000  0.42690000  0.21870000  1.0 -0.0372923605
C  C80  1  0.42760000  0.46060000  0.21630000  1.0 -0.0523126751
C  C81  1  0.83420000  0.62100000  0.37830000  1.0 -0.0673072405
C  C82  1  0.89390000  0.68390000  0.38200000  1.0 -0.060350626
C  C83  1  0.89700000  0.68430000  0.44490000  1.0 -0.0922761055
C  C84  1  0.83570000  0.62140000  0.44250000  1.0 -0.0094824587
C  C85  1  0.63190000  0.93020000  0.41670000  1.0 -0.1862734698
C  C86  1  0.52230000  0.57850000  0.42820000  1.0 -0.1669206432
C  C87  1  0.61180000  0.54300000  0.42370000  1.0 -0.0242710386
C  C88  1  0.61090000  0.85810000  0.41730000  1.0 -0.1072864376
C  C89  1  0.57590000  0.64810000  0.42360000  1.0 0.1386909737
C  C90  1  0.66590000  0.61260000  0.41920000  1.0 -0.2213266037
C  C91  1  0.68580000  0.08640000  0.41550000  1.0 0.0112807453
C  C92  1  0.54120000  0.52650000  0.42710000  1.0 -0.1332275562
C  C93  1  0.70200000  0.98040000  0.41650000  1.0 0.1386909737
C  C94  1  0.62880000  0.48410000  0.42340000  1.0 0.631742426
C  C95  1  0.64630000  0.66400000  0.41850000  1.0 0.1015932663
C  C96  1  0.64040000  0.76220000  0.42010000  1.0 0.2717796182
C  C97  1  0.66160000  0.83760000  0.41890000  1.0 -0.0094824587
C  C98  1  0.75290000  0.96050000  0.41780000  1.0 -0.1984355691
C  C99  1  0.73340000  0.89100000  0.42140000  1.0 -0.1395567635
C  C100  1  0.95810000  0.53120000  0.21870000  1.0 -0.0372923605
C  C101  1  0.03300000  0.57240000  0.21630000  1.0 -0.0523126751
C  C102  1  0.78680000  0.16580000  0.37830000  1.0 -0.0673072405
C  C103  1  0.79000000  0.10610000  0.38200000  1.0 -0.060350626
C  C104  1  0.78730000  0.10300000  0.44490000  1.0 -0.0922761055
C  C105  1  0.78570000  0.16430000  0.44250000  1.0 -0.0094824587
C  C106  1  0.29830000  0.36810000  0.41670000  1.0 -0.1862734698
C  C107  1  0.05620000  0.47770000  0.42820000  1.0 -0.1669206432
C  C108  1  0.93120000  0.38820000  0.42370000  1.0 -0.0242710386
C  C109  1  0.24720000  0.38910000  0.41730000  1.0 -0.1072864376
C  C110  1  0.07220000  0.42410000  0.42360000  1.0 0.1386909737
C  C111  1  0.94670000  0.33410000  0.41920000  1.0 -0.2213266037
C  C112  1  0.40060000  0.31420000  0.41550000  1.0 0.0112807453
C  C113  1  0.98530000  0.45880000  0.42710000  1.0 -0.1332275562
C  C114  1  0.27840000  0.29800000  0.41650000  1.0 0.1386909737
C  C115  1  0.85530000  0.37120000  0.42340000  1.0 0.631742426
C  C116  1  0.01770000  0.35370000  0.41850000  1.0 0.1015932663
C  C117  1  0.12180000  0.35960000  0.42010000  1.0 0.2717796182
C  C118  1  0.17600000  0.33840000  0.41890000  1.0 -0.0094824587
C  C119  1  0.20760000  0.24710000  0.41780000  1.0 -0.1984355691
C  C120  1  0.15760000  0.26660000  0.42140000  1.0 -0.1395567635
C  C121  1  0.57310000  0.04190000  0.21870000  1.0 -0.0372923605
C  C122  1  0.53940000  0.96700000  0.21630000  1.0 -0.0523126751
C  C123  1  0.37900000  0.21320000  0.37830000  1.0 -0.0673072405
C  C124  1  0.31610000  0.21000000  0.38200000  1.0 -0.060350626
C  C125  1  0.31570000  0.21270000  0.44490000  1.0 -0.0922761055
C  C126  1  0.37860000  0.21430000  0.44250000  1.0 -0.0094824587
C  C127  1  0.44330000  0.35890000  0.25000000  1.0 -0.0321044821
C  C128  1  0.32740000  0.34350000  0.25000000  1.0 0.1109346462
C  C129  1  0.37210000  0.31650000  0.25000000  1.0 -0.2213266037
C  C130  1  0.24070000  0.36700000  0.25000000  1.0 0.2972003502
C  C131  1  0.15740000  0.41280000  0.25000000  1.0 -0.1212796158
C  C132  1  0.49270000  0.33250000  0.25000000  1.0 0.6048312269
C  C133  1  0.03300000  0.33730000  0.25000000  1.0 0.1386909737
C  C134  1  0.09030000  0.40450000  0.25000000  1.0 -0.1669206432
C  C135  1  0.16730000  0.35580000  0.25000000  1.0 0.0112807453
C  C136  1  0.85000000  0.28150000  0.25000000  1.0 0.034834978
C  C137  1  0.90320000  0.26510000  0.25000000  1.0 -0.1535681528
C  C138  1  0.11020000  0.28940000  0.25000000  1.0 -0.1212796158
C  C139  1  0.04190000  0.28010000  0.25000000  1.0 -0.1984355691
C  C140  1  0.35460000  0.41760000  0.25000000  1.0 0.1300181183
C  C141  1  0.94360000  0.37720000  0.25000000  1.0 0.0513919102
C  C142  1  0.91560000  0.55670000  0.25000000  1.0 -0.0321044821
C  C143  1  0.01610000  0.67260000  0.25000000  1.0 0.1109346462
C  C144  1  0.94440000  0.62790000  0.25000000  1.0 -0.2213266037
C  C145  1  0.12630000  0.75930000  0.25000000  1.0 0.2972003502
C  C146  1  0.25540000  0.84260000  0.25000000  1.0 -0.1212796158
C  C147  1  0.83980000  0.50730000  0.25000000  1.0 0.6048312269
C  C148  1  0.30430000  0.96700000  0.25000000  1.0 0.1386909737
C  C149  1  0.31420000  0.90970000  0.25000000  1.0 -0.1669206432
C  C150  1  0.18850000  0.83270000  0.25000000  1.0 0.0112807453
C  C151  1  0.43150000  0.15000000  0.25000000  1.0 0.034834978
C  C152  1  0.36190000  0.09680000  0.25000000  1.0 -0.1535681528
C  C153  1  0.17920000  0.88980000  0.25000000  1.0 -0.1212796158
C  C154  1  0.23820000  0.95810000  0.25000000  1.0 -0.1984355691
C  C155  1  0.06300000  0.64540000  0.25000000  1.0 0.1300181183
C  C156  1  0.43360000  0.05640000  0.25000000  1.0 0.0513919102
C  C157  1  0.64110000  0.08440000  0.25000000  1.0 -0.0321044821
C  C158  1  0.65650000  0.98390000  0.25000000  1.0 0.1015932663
C  C159  1  0.68350000  0.05560000  0.25000000  1.0 -0.2213266037
C  C160  1  0.63300000  0.87370000  0.25000000  1.0 0.2972003502
C  C161  1  0.58720000  0.74460000  0.25000000  1.0 -0.1212796158
C  C162  1  0.66750000  0.16020000  0.25000000  1.0 0.6048312269
C  C163  1  0.66270000  0.69570000  0.25000000  1.0 0.1386909737
C  C164  1  0.59550000  0.68580000  0.25000000  1.0 -0.1669206432
C  C165  1  0.64420000  0.81150000  0.25000000  1.0 0.0112807453
C  C166  1  0.71850000  0.56850000  0.25000000  1.0 0.034834978
C  C167  1  0.73490000  0.63810000  0.25000000  1.0 -0.1535681528
C  C168  1  0.71060000  0.82080000  0.25000000  1.0 -0.1212796158
C  C169  1  0.71990000  0.76180000  0.25000000  1.0 -0.1984355691
C  C170  1  0.58240000  0.93700000  0.25000000  1.0 0.1300181183
C  C171  1  0.62280000  0.56640000  0.25000000  1.0 0.0513919102
C  C172  1  0.93020000  0.29830000  0.58330000  1.0 -0.1862734698
C  C173  1  0.57850000  0.05620000  0.57180000  1.0 -0.1669206432
C  C174  1  0.54300000  0.93120000  0.57630000  1.0 -0.0242710386
C  C175  1  0.85810000  0.24720000  0.58270000  1.0 -0.1072864376
C  C176  1  0.64810000  0.07220000  0.57640000  1.0 0.1386909737
C  C177  1  0.61260000  0.94670000  0.58080000  1.0 -0.2258143641
C  C178  1  0.08640000  0.40060000  0.58450000  1.0 0.0112807453
C  C179  1  0.52650000  0.98530000  0.57290000  1.0 -0.1332275562
C  C180  1  0.98040000  0.27840000  0.58350000  1.0 0.1386909737
C  C181  1  0.48410000  0.85530000  0.57660000  1.0 0.631742426
C  C182  1  0.66400000  0.01770000  0.58150000  1.0 0.1015932663
C  C183  1  0.76220000  0.12180000  0.57990000  1.0 0.2717796182
C  C184  1  0.83760000  0.17600000  0.58110000  1.0 -0.004645831
C  C185  1  0.96050000  0.20760000  0.58220000  1.0 -0.1984355691
C  C186  1  0.89100000  0.15760000  0.57860000  1.0 -0.1395567635
C  C187  1  0.53120000  0.57310000  0.78130000  1.0 -0.0372923605
C  C188  1  0.57240000  0.53940000  0.78370000  1.0 -0.0523126751
C  C189  1  0.16580000  0.37900000  0.62170000  1.0 -0.0673072405
C  C190  1  0.10610000  0.31610000  0.61800000  1.0 -0.060350626
C  C191  1  0.10300000  0.31570000  0.55510000  1.0 -0.0922761055
C  C192  1  0.16430000  0.37860000  0.55750000  1.0 -0.0094824587
C  C193  1  0.36810000  0.06980000  0.58330000  1.0 -0.1862734698
C  C194  1  0.47770000  0.42150000  0.57180000  1.0 -0.1669206432
C  C195  1  0.38820000  0.45700000  0.57630000  1.0 -0.0242710386
C  C196  1  0.38910000  0.14190000  0.58270000  1.0 -0.1072864376
C  C197  1  0.42410000  0.35190000  0.57640000  1.0 0.1386909737
C  C198  1  0.33410000  0.38740000  0.58080000  1.0 -0.2213266037
C  C199  1  0.31420000  0.91360000  0.58450000  1.0 0.0112807453
C  C200  1  0.45880000  0.47350000  0.57290000  1.0 -0.1332275562
C  C201  1  0.29800000  0.01960000  0.58350000  1.0 0.1386909737
C  C202  1  0.37120000  0.51590000  0.57660000  1.0 0.631742426
C  C203  1  0.35370000  0.33600000  0.58150000  1.0 0.1015932663
C  C204  1  0.35960000  0.23780000  0.57990000  1.0 0.2717796182
C  C205  1  0.33840000  0.16240000  0.58110000  1.0 -0.0094824587
C  C206  1  0.24710000  0.03950000  0.58220000  1.0 -0.1984355691
C  C207  1  0.26660000  0.10900000  0.57860000  1.0 -0.1395567635
C  C208  1  0.04190000  0.46880000  0.78130000  1.0 -0.0372923605
C  C209  1  0.96700000  0.42760000  0.78370000  1.0 -0.0523126751
C  C210  1  0.21320000  0.83420000  0.62170000  1.0 -0.0673072405
C  C211  1  0.21000000  0.89390000  0.61800000  1.0 -0.060350626
C  C212  1  0.21270000  0.89700000  0.55510000  1.0 -0.0922761055
C  C213  1  0.21430000  0.83570000  0.55750000  1.0 -0.0094824587
C  C214  1  0.70170000  0.63190000  0.58330000  1.0 -0.1862734698
C  C215  1  0.94380000  0.52230000  0.57180000  1.0 -0.1669206432
C  C216  1  0.06880000  0.61180000  0.57630000  1.0 -0.0242710386
C  C217  1  0.75280000  0.61090000  0.58270000  1.0 -0.1072864376
C  C218  1  0.92780000  0.57590000  0.57640000  1.0 0.1386909737
C  C219  1  0.05330000  0.66590000  0.58080000  1.0 -0.2213266037
C  C220  1  0.59940000  0.68580000  0.58450000  1.0 0.0112807453
C  C221  1  0.01470000  0.54120000  0.57290000  1.0 -0.1332275562
C  C222  1  0.72160000  0.70200000  0.58350000  1.0 0.1386909737
C  C223  1  0.14470000  0.62880000  0.57660000  1.0 0.631742426
C  C224  1  0.98230000  0.64630000  0.58150000  1.0 0.1015932663
C  C225  1  0.87820000  0.64040000  0.57990000  1.0 0.2717796182
C  C226  1  0.82400000  0.66160000  0.58110000  1.0 -0.004645831
C  C227  1  0.79240000  0.75290000  0.58220000  1.0 -0.1984355691
C  C228  1  0.84240000  0.73340000  0.57860000  1.0 -0.1395567635
C  C229  1  0.42690000  0.95810000  0.78130000  1.0 -0.0372923605
C  C230  1  0.46060000  0.03300000  0.78370000  1.0 -0.0523126751
C  C231  1  0.62100000  0.78680000  0.62170000  1.0 -0.0673072405
C  C232  1  0.68390000  0.79000000  0.61800000  1.0 -0.060350626
C  C233  1  0.68430000  0.78730000  0.55510000  1.0 -0.0922761055
C  C234  1  0.62140000  0.78570000  0.55750000  1.0 -0.0094824587
C  C235  1  0.93020000  0.29830000  0.91670000  1.0 -0.1862734698
C  C236  1  0.57850000  0.05620000  0.92820000  1.0 -0.1669206432
C  C237  1  0.54300000  0.93120000  0.92370000  1.0 -0.0242710386
C  C238  1  0.85810000  0.24720000  0.91730000  1.0 -0.1072864376
C  C239  1  0.64810000  0.07220000  0.92360000  1.0 0.1386909737
C  C240  1  0.61260000  0.94670000  0.91920000  1.0 -0.2258143641
C  C241  1  0.08640000  0.40060000  0.91550000  1.0 0.0112807453
C  C242  1  0.52650000  0.98530000  0.92710000  1.0 -0.1332275562
C  C243  1  0.98040000  0.27840000  0.91650000  1.0 0.1386909737
C  C244  1  0.48410000  0.85530000  0.92340000  1.0 0.631742426
C  C245  1  0.66400000  0.01770000  0.91850000  1.0 0.1015932663
C  C246  1  0.76220000  0.12180000  0.92010000  1.0 0.2717796182
C  C247  1  0.83760000  0.17600000  0.91890000  1.0 -0.004645831
C  C248  1  0.96050000  0.20760000  0.91780000  1.0 -0.1984355691
C  C249  1  0.89100000  0.15760000  0.92140000  1.0 -0.1395567635
C  C250  1  0.53120000  0.57310000  0.71870000  1.0 -0.0372923605
C  C251  1  0.57240000  0.53940000  0.71630000  1.0 -0.0523126751
C  C252  1  0.16580000  0.37900000  0.87830000  1.0 -0.0673072405
C  C253  1  0.10610000  0.31610000  0.88200000  1.0 -0.060350626
C  C254  1  0.10300000  0.31570000  0.94490000  1.0 -0.0922761055
C  C255  1  0.16430000  0.37860000  0.94250000  1.0 -0.0094824587
C  C256  1  0.36810000  0.06980000  0.91670000  1.0 -0.1862734698
C  C257  1  0.47770000  0.42150000  0.92820000  1.0 -0.1669206432
C  C258  1  0.38820000  0.45700000  0.92370000  1.0 -0.0242710386
C  C259  1  0.38910000  0.14190000  0.91730000  1.0 -0.1072864376
C  C260  1  0.42410000  0.35190000  0.92360000  1.0 0.1386909737
C  C261  1  0.33410000  0.38740000  0.91920000  1.0 -0.2213266037
C  C262  1  0.31420000  0.91360000  0.91550000  1.0 0.0112807453
C  C263  1  0.45880000  0.47350000  0.92710000  1.0 -0.1332275562
C  C264  1  0.29800000  0.01960000  0.91650000  1.0 0.1386909737
C  C265  1  0.37120000  0.51590000  0.92340000  1.0 0.631742426
C  C266  1  0.35370000  0.33600000  0.91850000  1.0 0.1015932663
C  C267  1  0.35960000  0.23780000  0.92010000  1.0 0.2717796182
C  C268  1  0.33840000  0.16240000  0.91890000  1.0 -0.0094824587
C  C269  1  0.24710000  0.03950000  0.91780000  1.0 -0.1984355691
C  C270  1  0.26660000  0.10900000  0.92140000  1.0 -0.1395567635
C  C271  1  0.04190000  0.46880000  0.71870000  1.0 -0.0372923605
C  C272  1  0.96700000  0.42760000  0.71630000  1.0 -0.0523126751
C  C273  1  0.21320000  0.83420000  0.87830000  1.0 -0.0673072405
C  C274  1  0.21000000  0.89390000  0.88200000  1.0 -0.060350626
C  C275  1  0.21270000  0.89700000  0.94490000  1.0 -0.0922761055
C  C276  1  0.21430000  0.83570000  0.94250000  1.0 -0.0094824587
C  C277  1  0.70170000  0.63190000  0.91670000  1.0 -0.1862734698
C  C278  1  0.94380000  0.52230000  0.92820000  1.0 -0.1669206432
C  C279  1  0.06880000  0.61180000  0.92370000  1.0 -0.0242710386
C  C280  1  0.75280000  0.61090000  0.91730000  1.0 -0.1072864376
C  C281  1  0.92780000  0.57590000  0.92360000  1.0 0.1386909737
C  C282  1  0.05330000  0.66590000  0.91920000  1.0 -0.2213266037
C  C283  1  0.59940000  0.68580000  0.91550000  1.0 0.0112807453
C  C284  1  0.01470000  0.54120000  0.92710000  1.0 -0.1332275562
C  C285  1  0.72160000  0.70200000  0.91650000  1.0 0.1386909737
C  C286  1  0.14470000  0.62880000  0.92340000  1.0 0.631742426
C  C287  1  0.98230000  0.64630000  0.91850000  1.0 0.1015932663
C  C288  1  0.87820000  0.64040000  0.92010000  1.0 0.2717796182
C  C289  1  0.82400000  0.66160000  0.91890000  1.0 -0.0094824587
C  C290  1  0.79240000  0.75290000  0.91780000  1.0 -0.1984355691
C  C291  1  0.84240000  0.73340000  0.92140000  1.0 -0.1395567635
C  C292  1  0.42690000  0.95810000  0.71870000  1.0 -0.0372923605
C  C293  1  0.46060000  0.03300000  0.71630000  1.0 -0.0523126751
C  C294  1  0.62100000  0.78680000  0.87830000  1.0 -0.0673072405
C  C295  1  0.68390000  0.79000000  0.88200000  1.0 -0.060350626
C  C296  1  0.68430000  0.78730000  0.94490000  1.0 -0.0922761055
C  C297  1  0.62140000  0.78570000  0.94250000  1.0 -0.0094824587
C  C298  1  0.55670000  0.64110000  0.75000000  1.0 -0.0321044821
C  C299  1  0.67260000  0.65650000  0.75000000  1.0 0.1109346462
C  C300  1  0.62790000  0.68350000  0.75000000  1.0 -0.2213266037
C  C301  1  0.75930000  0.63300000  0.75000000  1.0 0.2972003502
C  C302  1  0.84260000  0.58720000  0.75000000  1.0 -0.1212796158
C  C303  1  0.50730000  0.66750000  0.75000000  1.0 0.6048312269
C  C304  1  0.96700000  0.66270000  0.75000000  1.0 0.1386909737
C  C305  1  0.90970000  0.59550000  0.75000000  1.0 -0.1669206432
C  C306  1  0.83270000  0.64420000  0.75000000  1.0 0.0112807453
C  C307  1  0.15000000  0.71850000  0.75000000  1.0 0.034834978
C  C308  1  0.09680000  0.73490000  0.75000000  1.0 -0.1535681528
C  C309  1  0.88980000  0.71060000  0.75000000  1.0 -0.1212796158
C  C310  1  0.95810000  0.71990000  0.75000000  1.0 -0.1984355691
C  C311  1  0.64540000  0.58240000  0.75000000  1.0 0.1300181183
C  C312  1  0.05640000  0.62280000  0.75000000  1.0 0.0513919102
C  C313  1  0.08440000  0.44330000  0.75000000  1.0 -0.0321044821
C  C314  1  0.98390000  0.32740000  0.75000000  1.0 0.1109346462
C  C315  1  0.05560000  0.37210000  0.75000000  1.0 -0.2213266037
C  C316  1  0.87370000  0.24070000  0.75000000  1.0 0.2972003502
C  C317  1  0.74460000  0.15740000  0.75000000  1.0 -0.1212796158
C  C318  1  0.16020000  0.49270000  0.75000000  1.0 0.6055532776
C  C319  1  0.69570000  0.03300000  0.75000000  1.0 0.1386909737
C  C320  1  0.68580000  0.09030000  0.75000000  1.0 -0.1669206432
C  C321  1  0.81150000  0.16730000  0.75000000  1.0 0.0112807453
C  C322  1  0.56850000  0.85000000  0.75000000  1.0 0.034834978
C  C323  1  0.63810000  0.90320000  0.75000000  1.0 -0.1535681528
C  C324  1  0.82080000  0.11020000  0.75000000  1.0 -0.1212796158
C  C325  1  0.76180000  0.04190000  0.75000000  1.0 -0.1984355691
C  C326  1  0.93700000  0.35460000  0.75000000  1.0 0.1300181183
C  C327  1  0.56640000  0.94360000  0.75000000  1.0 0.0513919102
C  C328  1  0.35890000  0.91560000  0.75000000  1.0 -0.0321044821
C  C329  1  0.34350000  0.01610000  0.75000000  1.0 0.1109346462
C  C330  1  0.31650000  0.94440000  0.75000000  1.0 -0.2213266037
C  C331  1  0.36700000  0.12630000  0.75000000  1.0 0.2972003502
C  C332  1  0.41280000  0.25540000  0.75000000  1.0 -0.1212796158
C  C333  1  0.33250000  0.83980000  0.75000000  1.0 0.6055532776
C  C334  1  0.33730000  0.30430000  0.75000000  1.0 0.1386909737
C  C335  1  0.40450000  0.31420000  0.75000000  1.0 -0.1669206432
C  C336  1  0.35580000  0.18850000  0.75000000  1.0 0.0112807453
C  C337  1  0.28150000  0.43150000  0.75000000  1.0 0.034834978
C  C338  1  0.26510000  0.36190000  0.75000000  1.0 -0.1535681528
C  C339  1  0.28940000  0.17920000  0.75000000  1.0 -0.1212796158
C  C340  1  0.28010000  0.23820000  0.75000000  1.0 -0.1984355691
C  C341  1  0.41760000  0.06300000  0.75000000  1.0 0.1300181183
C  C342  1  0.37720000  0.43360000  0.75000000  1.0 0.0513919102
N  N1  1  0.94790000  0.67210000  0.08530000  1.0 0.0246022258
N  N2  1  0.26310000  0.94860000  0.08430000  1.0 -0.3271822748
N  N3  1  0.28960000  0.86290000  0.07610000  1.0 -0.410657805
N  N4  1  0.84660000  0.56880000  0.08770000  1.0 -0.2625665136
N  N5  1  0.72420000  0.05210000  0.08530000  1.0 0.0246022258
N  N6  1  0.68550000  0.73690000  0.08430000  1.0 -0.3271822748
N  N7  1  0.57330000  0.71040000  0.07610000  1.0 -0.410657805
N  N8  1  0.72220000  0.15340000  0.08770000  1.0 -0.2625665136
N  N9  1  0.32790000  0.27580000  0.08530000  1.0 0.0246022258
N  N10  1  0.05140000  0.31450000  0.08430000  1.0 -0.3271822748
N  N11  1  0.13710000  0.42670000  0.07610000  1.0 -0.410657805
N  N12  1  0.43120000  0.27780000  0.08770000  1.0 -0.2625665136
N  N13  1  0.94790000  0.67210000  0.41470000  1.0 0.0246022258
N  N14  1  0.26310000  0.94860000  0.41570000  1.0 -0.3271822748
N  N15  1  0.28960000  0.86290000  0.42390000  1.0 -0.410657805
N  N16  1  0.84660000  0.56880000  0.41230000  1.0 -0.2625665136
N  N17  1  0.72420000  0.05210000  0.41470000  1.0 0.0246022258
N  N18  1  0.68550000  0.73690000  0.41570000  1.0 -0.3271822748
N  N19  1  0.57330000  0.71040000  0.42390000  1.0 -0.410657805
N  N20  1  0.72220000  0.15340000  0.41230000  1.0 -0.2625665136
N  N21  1  0.32790000  0.27580000  0.41470000  1.0 0.0246022258
N  N22  1  0.05140000  0.31450000  0.41570000  1.0 -0.3271822748
N  N23  1  0.13710000  0.42670000  0.42390000  1.0 -0.410657805
N  N24  1  0.43120000  0.27780000  0.41230000  1.0 -0.2625665136
N  N25  1  0.96180000  0.32690000  0.25000000  1.0 0.0112807453
N  N26  1  0.25430000  0.31350000  0.25000000  1.0 -0.4211882271
N  N27  1  0.86960000  0.34660000  0.25000000  1.0 -0.1669206432
N  N28  1  0.29700000  0.42740000  0.25000000  1.0 -0.2915915765
N  N29  1  0.36510000  0.03820000  0.25000000  1.0 0.0112807453
N  N30  1  0.05920000  0.74570000  0.25000000  1.0 -0.4211882271
N  N31  1  0.47700000  0.13040000  0.25000000  1.0 -0.1669206432
N  N32  1  0.13040000  0.70300000  0.25000000  1.0 -0.2915915765
N  N33  1  0.67310000  0.63490000  0.25000000  1.0 0.0112807453
N  N34  1  0.68650000  0.94080000  0.25000000  1.0 -0.4211882271
N  N35  1  0.65340000  0.52300000  0.25000000  1.0 -0.1669206432
N  N36  1  0.57260000  0.86960000  0.25000000  1.0 -0.2915915765
N  N37  1  0.05210000  0.32790000  0.58530000  1.0 0.0246022258
N  N38  1  0.73690000  0.05140000  0.58430000  1.0 -0.3271822748
N  N39  1  0.71040000  0.13710000  0.57610000  1.0 -0.410657805
N  N40  1  0.15340000  0.43120000  0.58770000  1.0 -0.2625665136
N  N41  1  0.27580000  0.94790000  0.58530000  1.0 0.0246022258
N  N42  1  0.31450000  0.26310000  0.58430000  1.0 -0.3271822748
N  N43  1  0.42670000  0.28960000  0.57610000  1.0 -0.410657805
N  N44  1  0.27780000  0.84660000  0.58770000  1.0 -0.2625665136
N  N45  1  0.67210000  0.72420000  0.58530000  1.0 0.0246022258
N  N46  1  0.94860000  0.68550000  0.58430000  1.0 -0.3271822748
N  N47  1  0.86290000  0.57330000  0.57610000  1.0 -0.410657805
N  N48  1  0.56880000  0.72220000  0.58770000  1.0 -0.2625665136
N  N49  1  0.05210000  0.32790000  0.91470000  1.0 0.0246022258
N  N50  1  0.73690000  0.05140000  0.91570000  1.0 -0.3271822748
N  N51  1  0.71040000  0.13710000  0.92390000  1.0 -0.410657805
N  N52  1  0.15340000  0.43120000  0.91230000  1.0 -0.2625665136
N  N53  1  0.27580000  0.94790000  0.91470000  1.0 0.0246022258
N  N54  1  0.31450000  0.26310000  0.91570000  1.0 -0.3271822748
N  N55  1  0.42670000  0.28960000  0.92390000  1.0 -0.410657805
N  N56  1  0.27780000  0.84660000  0.91230000  1.0 -0.2625665136
N  N57  1  0.67210000  0.72420000  0.91470000  1.0 0.0246022258
N  N58  1  0.94860000  0.68550000  0.91570000  1.0 -0.3271822748
N  N59  1  0.86290000  0.57330000  0.92390000  1.0 -0.410657805
N  N60  1  0.56880000  0.72220000  0.91230000  1.0 -0.2625665136
N  N61  1  0.03820000  0.67310000  0.75000000  1.0 0.0112807453
N  N62  1  0.74570000  0.68650000  0.75000000  1.0 -0.4211882271
N  N63  1  0.13040000  0.65340000  0.75000000  1.0 -0.1669206432
N  N64  1  0.70300000  0.57260000  0.75000000  1.0 -0.2915915765
N  N65  1  0.63490000  0.96180000  0.75000000  1.0 0.0112807453
N  N66  1  0.94080000  0.25430000  0.75000000  1.0 -0.4211882271
N  N67  1  0.52300000  0.86960000  0.75000000  1.0 -0.1669206432
N  N68  1  0.86960000  0.29700000  0.75000000  1.0 -0.2915915765
N  N69  1  0.32690000  0.36510000  0.75000000  1.0 0.0112807453
N  N70  1  0.31350000  0.05920000  0.75000000  1.0 -0.4211882271
N  N71  1  0.34660000  0.47700000  0.75000000  1.0 -0.1669206432
N  N72  1  0.42740000  0.13040000  0.75000000  1.0 -0.2915915765
O  O1  1  0.57850000  0.15560000  0.07630000  1.0 -0.6409344194
O  O2  1  0.50020000  0.19260000  0.07830000  1.0 -0.6213025717
O  O3  1  0.60040000  0.25590000  0.17200000  1.0 -1.0780946888
O  O4  1  0.51250000  0.32170000  0.19970000  1.0 -0.5366330164
O  O5  1  0.57710000  0.42150000  0.07630000  1.0 -0.6409344194
O  O6  1  0.69240000  0.49980000  0.07830000  1.0 -0.6213025717
O  O7  1  0.65550000  0.39960000  0.17200000  1.0 -1.0780946888
O  O8  1  0.80920000  0.48750000  0.19970000  1.0 -0.5366330164
O  O9  1  0.84440000  0.42290000  0.07630000  1.0 -0.6409344194
O  O10  1  0.80740000  0.30760000  0.07830000  1.0 -0.6213025717
O  O11  1  0.74410000  0.34450000  0.17200000  1.0 -1.0723099627
O  O12  1  0.67830000  0.19080000  0.19970000  1.0 -0.5366330164
O  O13  1  0.57850000  0.15560000  0.42370000  1.0 -0.6409344194
O  O14  1  0.50020000  0.19260000  0.42170000  1.0 -0.6213025717
O  O15  1  0.60040000  0.25590000  0.32800000  1.0 -1.0780946888
O  O16  1  0.51250000  0.32170000  0.30030000  1.0 -0.5366330164
O  O17  1  0.57710000  0.42150000  0.42370000  1.0 -0.6409344194
O  O18  1  0.69240000  0.49980000  0.42170000  1.0 -0.6213025717
O  O19  1  0.65550000  0.39960000  0.32800000  1.0 -1.0780946888
O  O20  1  0.80920000  0.48750000  0.30030000  1.0 -0.5366330164
O  O21  1  0.84440000  0.42290000  0.42370000  1.0 -0.6409344194
O  O22  1  0.80740000  0.30760000  0.42170000  1.0 -0.6213025717
O  O23  1  0.74410000  0.34450000  0.32800000  1.0 -1.0723099627
O  O24  1  0.67830000  0.19080000  0.30030000  1.0 -0.5366330164
O  O25  1  0.66666667  0.33333333  0.06100000  1.0 -1.2361247458
O  O26  1  0.66666667  0.33333333  0.43900000  1.0 -1.2361247458
O  O27  1  0.42150000  0.84440000  0.57630000  1.0 -0.6409344194
O  O28  1  0.49980000  0.80740000  0.57830000  1.0 -0.6213025717
O  O29  1  0.39960000  0.74410000  0.67200000  1.0 -1.0780946888
O  O30  1  0.48750000  0.67830000  0.69970000  1.0 -0.5366330164
O  O31  1  0.42290000  0.57850000  0.57630000  1.0 -0.6409344194
O  O32  1  0.30760000  0.50020000  0.57830000  1.0 -0.6213025717
O  O33  1  0.34450000  0.60040000  0.67200000  1.0 -1.0780946888
O  O34  1  0.19080000  0.51250000  0.69970000  1.0 -0.5366330164
O  O35  1  0.15560000  0.57710000  0.57630000  1.0 -0.6409344194
O  O36  1  0.19260000  0.69240000  0.57830000  1.0 -0.6213025717
O  O37  1  0.25590000  0.65550000  0.67200000  1.0 -1.0780946888
O  O38  1  0.32170000  0.80920000  0.69970000  1.0 -0.5366330164
O  O39  1  0.42150000  0.84440000  0.92370000  1.0 -0.6409344194
O  O40  1  0.49980000  0.80740000  0.92170000  1.0 -0.6213025717
O  O41  1  0.39960000  0.74410000  0.82800000  1.0 -1.0780946888
O  O42  1  0.48750000  0.67830000  0.80030000  1.0 -0.5366330164
O  O43  1  0.42290000  0.57850000  0.92370000  1.0 -0.6409344194
O  O44  1  0.30760000  0.50020000  0.92170000  1.0 -0.6213025717
O  O45  1  0.34450000  0.60040000  0.82800000  1.0 -1.0780946888
O  O46  1  0.19080000  0.51250000  0.80030000  1.0 -0.5366330164
O  O47  1  0.15560000  0.57710000  0.92370000  1.0 -0.6409344194
O  O48  1  0.19260000  0.69240000  0.92170000  1.0 -0.6213025717
O  O49  1  0.25590000  0.65550000  0.82800000  1.0 -1.0780946888
O  O50  1  0.32170000  0.80920000  0.80030000  1.0 -0.5366330164
O  O51  1  0.33333333  0.66666667  0.56100000  1.0 -1.2277877845
O  O52  1  0.33333333  0.66666667  0.93900000  1.0 -1.2277877845
