# DDEC6 charges by PACMAN v1.1 (https://github.com/mtap-research/PACMAN-charge/)
data_AHIYUN_ASR_pacman
_symmetry_space_group_name_H-M   'P 1'
_cell_length_a   13.01670000
_cell_length_b   13.01670000
_cell_length_c   24.66400000
_cell_angle_alpha   80.93780000
_cell_angle_beta   99.06220000
_cell_angle_gamma   102.26800000
_symmetry_Int_Tables_number   1
_chemical_formula_structural   Co3H37C60O13
_chemical_formula_sum   'Co12 H148 C240 O52'
_cell_volume   3999.07936688
_cell_formula_units_Z   4
loop_
 _symmetry_equiv_pos_site_id
 _symmetry_equiv_pos_as_xyz
  1  'x, y, z'
loop_
 _atom_site_type_symbol
 _atom_site_label
 _atom_site_symmetry_multiplicity
 _atom_site_fract_x
 _atom_site_fract_y
 _atom_site_fract_z
 _atom_site_occupancy
 _atom_site_charge
Co  Co1  1  0.11289000  0.37959000  0.90000000  1.0 0.9519480539
Co  Co2  1  0.37959000  0.11289000  0.60000000  1.0 0.9519480539
Co  Co3  1  0.88711000  0.62041000  0.10000000  1.0 0.9519480539
Co  Co4  1  0.62041000  0.88711000  0.40000000  1.0 0.9519480539
Co  Co5  1  0.93312000  0.53378000  0.89338000  1.0 0.998606704
Co  Co6  1  0.53378000  0.93312000  0.60662000  1.0 0.998606704
Co  Co7  1  0.06688000  0.46622000  0.10662000  1.0 0.998606704
Co  Co8  1  0.46622000  0.06688000  0.39338000  1.0 0.998606704
Co  Co9  1  0.94196000  0.31930000  0.98825000  1.0 0.9111186338
Co  Co10  1  0.31930000  0.94196000  0.51175000  1.0 0.9111186338
Co  Co11  1  0.05804000  0.68070000  0.01175000  1.0 0.9111186338
Co  Co12  1  0.68070000  0.05804000  0.48825000  1.0 0.9111186338
H  H1  1  0.06810000  0.47950000  0.96820000  1.0 0.3725268913
H  H2  1  0.47950000  0.06810000  0.53180000  1.0 0.3725268913
H  H3  1  0.93190000  0.52050000  0.03180000  1.0 0.3725268913
H  H4  1  0.52050000  0.93190000  0.46820000  1.0 0.3725268913
H  H5  1  0.16600000  0.82380000  0.67410000  1.0 0.1279093249
H  H6  1  0.82380000  0.16600000  0.82590000  1.0 0.1279093249
H  H7  1  0.83400000  0.17620000  0.32590000  1.0 0.1279093249
H  H8  1  0.17620000  0.83400000  0.17410000  1.0 0.1279093249
H  H9  1  0.05770000  0.70130000  0.73420000  1.0 0.0908675319
H  H10  1  0.70130000  0.05770000  0.76580000  1.0 0.0908675319
H  H11  1  0.94230000  0.29870000  0.26580000  1.0 0.0908675319
H  H12  1  0.29870000  0.94230000  0.23420000  1.0 0.0908675319
H  H13  1  0.31320000  0.65440000  0.89180000  1.0 0.0792778252
H  H14  1  0.65440000  0.31320000  0.60820000  1.0 0.0792778252
H  H15  1  0.68680000  0.34560000  0.10820000  1.0 0.0792778252
H  H16  1  0.34560000  0.68680000  0.39180000  1.0 0.0792778252
H  H17  1  0.48850000  0.72430000  0.91330000  1.0 0.0694275664
H  H18  1  0.72430000  0.48850000  0.58670000  1.0 0.0694275664
H  H19  1  0.51150000  0.27570000  0.08670000  1.0 0.0694275664
H  H20  1  0.27570000  0.51150000  0.41330000  1.0 0.0694275664
H  H21  1  0.57780000  0.85180000  0.85240000  1.0 0.0608129958
H  H22  1  0.85180000  0.57780000  0.64760000  1.0 0.0608129958
H  H23  1  0.42220000  0.14820000  0.14760000  1.0 0.0608129958
H  H24  1  0.14820000  0.42220000  0.35240000  1.0 0.0608129958
H  H25  1  0.49970000  0.89570000  0.76480000  1.0 0.1078116296
H  H26  1  0.89570000  0.49970000  0.73520000  1.0 0.1078116296
H  H27  1  0.50030000  0.10430000  0.23520000  1.0 0.1078116296
H  H28  1  0.10430000  0.50030000  0.26480000  1.0 0.1078116296
H  H29  1  0.82170000  0.00470000  0.95460000  1.0 0.0987092606
H  H30  1  0.00470000  0.82170000  0.54540000  1.0 0.0987092606
H  H31  1  0.17830000  0.99530000  0.04540000  1.0 0.0987092606
H  H32  1  0.99530000  0.17830000  0.45460000  1.0 0.0987092606
H  H33  1  0.79180000  0.82940000  0.93890000  1.0 0.0987092606
H  H34  1  0.82940000  0.79180000  0.56110000  1.0 0.0987092606
H  H35  1  0.20820000  0.17060000  0.06110000  1.0 0.0987092606
H  H36  1  0.17060000  0.20820000  0.43890000  1.0 0.0987092606
H  H37  1  0.08940000  0.80160000  0.86600000  1.0 0.0908675319
H  H38  1  0.80160000  0.08940000  0.63400000  1.0 0.0908675319
H  H39  1  0.91060000  0.19840000  0.13400000  1.0 0.0908675319
H  H40  1  0.19840000  0.91060000  0.36600000  1.0 0.0908675319
H  H41  1  0.24770000  0.90970000  0.85100000  1.0 0.0694275664
H  H42  1  0.90970000  0.24770000  0.64900000  1.0 0.0694275664
H  H43  1  0.75230000  0.09030000  0.14900000  1.0 0.0694275664
H  H44  1  0.09030000  0.75230000  0.35100000  1.0 0.0694275664
H  H45  1  0.26970000  0.08810000  0.85700000  1.0 0.0608129958
H  H46  1  0.08810000  0.26970000  0.64300000  1.0 0.0608129958
H  H47  1  0.73030000  0.91190000  0.14300000  1.0 0.0608129958
H  H48  1  0.91190000  0.73030000  0.35700000  1.0 0.0608129958
H  H49  1  0.15550000  0.15470000  0.90020000  1.0 0.0908675319
H  H50  1  0.15470000  0.15550000  0.59980000  1.0 0.0908675319
H  H51  1  0.84450000  0.84530000  0.09980000  1.0 0.0908675319
H  H52  1  0.84530000  0.84450000  0.40020000  1.0 0.0908675319
H  H53  1  0.45320000  0.51420000  0.88990000  1.0 0.0908675319
H  H54  1  0.51420000  0.45320000  0.61010000  1.0 0.0908675319
H  H55  1  0.54680000  0.48580000  0.11010000  1.0 0.0908675319
H  H56  1  0.48580000  0.54680000  0.38990000  1.0 0.0908675319
H  H57  1  0.63670000  0.52770000  0.90630000  1.0 0.0792778252
H  H58  1  0.52770000  0.63670000  0.59370000  1.0 0.0792778252
H  H59  1  0.36330000  0.47230000  0.09370000  1.0 0.0792778252
H  H60  1  0.47230000  0.36330000  0.40630000  1.0 0.0792778252
H  H61  1  0.68330000  0.22470000  0.02860000  1.0 0.0694275664
H  H62  1  0.22470000  0.68330000  0.47140000  1.0 0.0694275664
H  H63  1  0.31670000  0.77530000  0.97140000  1.0 0.0694275664
H  H64  1  0.77530000  0.31670000  0.52860000  1.0 0.0694275664
H  H65  1  0.57272000  0.09392000  0.07390000  1.0 0.0908675319
H  H66  1  0.09392000  0.57272000  0.42610000  1.0 0.0908675319
H  H67  1  0.42728000  0.90608000  0.92610000  1.0 0.0908675319
H  H68  1  0.90608000  0.42728000  0.57390000  1.0 0.0908675319
H  H69  1  0.31970000  0.20710000  0.99290000  1.0 0.0694275664
H  H70  1  0.20710000  0.31970000  0.50710000  1.0 0.0694275664
H  H71  1  0.68030000  0.79290000  0.00710000  1.0 0.0694275664
H  H72  1  0.79290000  0.68030000  0.49290000  1.0 0.0694275664
H  H73  1  0.38610000  0.07970000  0.05230000  1.0 0.0792778252
H  H74  1  0.07970000  0.38610000  0.44770000  1.0 0.0792778252
H  H75  1  0.61390000  0.92030000  0.94770000  1.0 0.0792778252
H  H76  1  0.92030000  0.61390000  0.55230000  1.0 0.0792778252
H  H77  1  0.14250000  0.83630000  0.68450000  1.0 0.1279093249
H  H78  1  0.83630000  0.14250000  0.81550000  1.0 0.1279093249
H  H79  1  0.85750000  0.16370000  0.31550000  1.0 0.1279093249
H  H80  1  0.16370000  0.85750000  0.18450000  1.0 0.1279093249
H  H81  1  0.06620000  0.72600000  0.75750000  1.0 0.1078116296
H  H82  1  0.72600000  0.06620000  0.74250000  1.0 0.1078116296
H  H83  1  0.93380000  0.27400000  0.24250000  1.0 0.1078116296
H  H84  1  0.27400000  0.93380000  0.25750000  1.0 0.1078116296
H  H85  1  0.33590000  0.61570000  0.87770000  1.0 0.0908675319
H  H86  1  0.61570000  0.33590000  0.62230000  1.0 0.0908675319
H  H87  1  0.66410000  0.38430000  0.12230000  1.0 0.0908675319
H  H88  1  0.38430000  0.66410000  0.37770000  1.0 0.0908675319
H  H89  1  0.51930000  0.65870000  0.88440000  1.0 0.0608129958
H  H90  1  0.65870000  0.51930000  0.61560000  1.0 0.0608129958
H  H91  1  0.48070000  0.34130000  0.11560000  1.0 0.0608129958
H  H92  1  0.34130000  0.48070000  0.38440000  1.0 0.0608129958
H  H93  1  0.59880000  0.80640000  0.82900000  1.0 0.0694275664
H  H94  1  0.80640000  0.59880000  0.67100000  1.0 0.0694275664
H  H95  1  0.40120000  0.19360000  0.17100000  1.0 0.0694275664
H  H96  1  0.19360000  0.40120000  0.32900000  1.0 0.0694275664
H  H97  1  0.50260000  0.87220000  0.74930000  1.0 0.0987092606
H  H98  1  0.87220000  0.50260000  0.75070000  1.0 0.0987092606
H  H99  1  0.49740000  0.12780000  0.25070000  1.0 0.0987092606
H  H100  1  0.12780000  0.49740000  0.24930000  1.0 0.0987092606
H  H101  1  0.80810000  0.01490000  0.93220000  1.0 0.0987092606
H  H102  1  0.01490000  0.80810000  0.56780000  1.0 0.0987092606
H  H103  1  0.19190000  0.98510000  0.06780000  1.0 0.0987092606
H  H104  1  0.98510000  0.19190000  0.43220000  1.0 0.0987092606
H  H105  1  0.78240000  0.84120000  0.91280000  1.0 0.0987092606
H  H106  1  0.84120000  0.78240000  0.58720000  1.0 0.0987092606
H  H107  1  0.21760000  0.15880000  0.08720000  1.0 0.0987092606
H  H108  1  0.15880000  0.21760000  0.41280000  1.0 0.0987092606
H  H109  1  0.11170000  0.79510000  0.88820000  1.0 0.0987092606
H  H110  1  0.79510000  0.11170000  0.61180000  1.0 0.0987092606
H  H111  1  0.88830000  0.20490000  0.11180000  1.0 0.0987092606
H  H112  1  0.20490000  0.88830000  0.38820000  1.0 0.0987092606
H  H113  1  0.27500000  0.89820000  0.88520000  1.0 0.0608129958
H  H114  1  0.89820000  0.27500000  0.61480000  1.0 0.0608129958
H  H115  1  0.72500000  0.10180000  0.11480000  1.0 0.0608129958
H  H116  1  0.10180000  0.72500000  0.38520000  1.0 0.0608129958
H  H117  1  0.30540000  0.07340000  0.90650000  1.0 0.0694275664
H  H118  1  0.07340000  0.30540000  0.59350000  1.0 0.0694275664
H  H119  1  0.69460000  0.92660000  0.09350000  1.0 0.0694275664
H  H120  1  0.92660000  0.69460000  0.40650000  1.0 0.0694275664
H  H121  1  0.16980000  0.13900000  0.92290000  1.0 0.0908675319
H  H122  1  0.13900000  0.16980000  0.57710000  1.0 0.0908675319
H  H123  1  0.83020000  0.86100000  0.07710000  1.0 0.0908675319
H  H124  1  0.86100000  0.83020000  0.42290000  1.0 0.0908675319
H  H125  1  0.45590000  0.53030000  0.94630000  1.0 0.0792778252
H  H126  1  0.53030000  0.45590000  0.55370000  1.0 0.0792778252
H  H127  1  0.54410000  0.46970000  0.05370000  1.0 0.0792778252
H  H128  1  0.46970000  0.54410000  0.44630000  1.0 0.0792778252
H  H129  1  0.63830000  0.54650000  0.94840000  1.0 0.0792778252
H  H130  1  0.54650000  0.63830000  0.55160000  1.0 0.0792778252
H  H131  1  0.36170000  0.45350000  0.05160000  1.0 0.0792778252
H  H132  1  0.45350000  0.36170000  0.44840000  1.0 0.0792778252
H  H133  1  0.68480000  0.19900000  0.99550000  1.0 0.0792778252
H  H134  1  0.19900000  0.68480000  0.50450000  1.0 0.0792778252
H  H135  1  0.31520000  0.80100000  0.00450000  1.0 0.0792778252
H  H136  1  0.80100000  0.31520000  0.49550000  1.0 0.0792778252
H  H137  1  0.57150000  0.04430000  0.02180000  1.0 0.0987092606
H  H138  1  0.04430000  0.57150000  0.47820000  1.0 0.0987092606
H  H139  1  0.42850000  0.95570000  0.97820000  1.0 0.0987092606
H  H140  1  0.95570000  0.42850000  0.52180000  1.0 0.0987092606
H  H141  1  0.39060000  0.03380000  0.00790000  1.0 0.0792778252
H  H142  1  0.03380000  0.39060000  0.49210000  1.0 0.0792778252
H  H143  1  0.60940000  0.96620000  0.99210000  1.0 0.0792778252
H  H144  1  0.96620000  0.60940000  0.50790000  1.0 0.0792778252
H  H145  1  0.32220000  0.17500000  0.96490000  1.0 0.0694275664
H  H146  1  0.17500000  0.32220000  0.53510000  1.0 0.0694275664
H  H147  1  0.67780000  0.82500000  0.03510000  1.0 0.0694275664
H  H148  1  0.82500000  0.67780000  0.46490000  1.0 0.0694275664
C  C1  1  0.35260000  0.90820000  0.67600000  1.0 0.5338271333
C  C2  1  0.90820000  0.35260000  0.82400000  1.0 0.5338271333
C  C3  1  0.64740000  0.09180000  0.32400000  1.0 0.5338271333
C  C4  1  0.09180000  0.64740000  0.17600000  1.0 0.5338271333
C  C5  1  0.12650000  0.59870000  0.83421000  1.0 0.4566403849
C  C6  1  0.59870000  0.12650000  0.66579000  1.0 0.4566403849
C  C7  1  0.87350000  0.40130000  0.16579000  1.0 0.4566403849
C  C8  1  0.40130000  0.87350000  0.33421000  1.0 0.4566403849
C  C9  1  0.29730000  0.83590000  0.72040000  1.0 0.018292181
C  C10  1  0.83590000  0.29730000  0.77960000  1.0 0.018292181
C  C11  1  0.70270000  0.16410000  0.27960000  1.0 0.018292181
C  C12  1  0.16410000  0.70270000  0.22040000  1.0 0.018292181
C  C13  1  0.18850000  0.68570000  0.79730000  1.0 -0.0200878992
C  C14  1  0.68570000  0.18850000  0.70270000  1.0 -0.0200878992
C  C15  1  0.81150000  0.31430000  0.20270000  1.0 -0.0200878992
C  C16  1  0.31430000  0.81150000  0.29730000  1.0 -0.0200878992
C  C17  1  0.19840000  0.79960000  0.70880000  1.0 -0.1762847679
C  C18  1  0.79960000  0.19840000  0.79120000  1.0 -0.174933009
C  C19  1  0.80160000  0.20040000  0.29120000  1.0 -0.174933009
C  C20  1  0.20040000  0.80160000  0.20880000  1.0 -0.1762847679
C  C21  1  0.13000000  0.72360000  0.74400000  1.0 -0.0985344594
C  C22  1  0.72360000  0.13000000  0.75600000  1.0 -0.0985344594
C  C23  1  0.87000000  0.27640000  0.25600000  1.0 -0.0985344594
C  C24  1  0.27640000  0.87000000  0.24400000  1.0 -0.0985344594
C  C25  1  0.29610000  0.73330000  0.81380000  1.0 0.0317797153
C  C26  1  0.73330000  0.29610000  0.68620000  1.0 0.0317797153
C  C27  1  0.70390000  0.26670000  0.18620000  1.0 0.0317797153
C  C28  1  0.26670000  0.70390000  0.31380000  1.0 0.0317797153
C  C29  1  0.34920000  0.70320000  0.86610000  1.0 -0.0695218867
C  C30  1  0.70320000  0.34920000  0.63390000  1.0 -0.0695218867
C  C31  1  0.65080000  0.29680000  0.13390000  1.0 -0.0695218867
C  C32  1  0.29680000  0.65080000  0.36610000  1.0 -0.0695218867
C  C33  1  0.45310000  0.74570000  0.87900000  1.0 -0.0483886153
C  C34  1  0.74570000  0.45310000  0.62100000  1.0 -0.0483886153
C  C35  1  0.54690000  0.25430000  0.12100000  1.0 -0.0483886153
C  C36  1  0.25430000  0.54690000  0.37900000  1.0 -0.0483886153
C  C37  1  0.50780000  0.82060000  0.84160000  1.0 -0.0483886153
C  C38  1  0.82060000  0.50780000  0.65840000  1.0 -0.0483886153
C  C39  1  0.49220000  0.17940000  0.15840000  1.0 -0.0483886153
C  C40  1  0.17940000  0.49220000  0.34160000  1.0 -0.0483886153
C  C41  1  0.46140000  0.84880000  0.79030000  1.0 -0.0483886153
C  C42  1  0.84880000  0.46140000  0.70970000  1.0 -0.0483886153
C  C43  1  0.53860000  0.15120000  0.20970000  1.0 -0.0483886153
C  C44  1  0.15120000  0.53860000  0.29030000  1.0 -0.0483886153
C  C45  1  0.35440000  0.80600000  0.77620000  1.0 0.0317797153
C  C46  1  0.80600000  0.35440000  0.72380000  1.0 0.0317797153
C  C47  1  0.64560000  0.19400000  0.22380000  1.0 0.0317797153
C  C48  1  0.19400000  0.64560000  0.27620000  1.0 0.0317797153
C  C49  1  0.97720000  0.16100000  0.94544000  1.0 0.3227818159
C  C50  1  0.16100000  0.97720000  0.55456000  1.0 0.3227818159
C  C51  1  0.02280000  0.83900000  0.05456000  1.0 0.3227818159
C  C52  1  0.83900000  0.02280000  0.44544000  1.0 0.3227818159
C  C53  1  0.91660000  0.72480000  0.90306000  1.0 0.3772299959
C  C54  1  0.72480000  0.91660000  0.59694000  1.0 0.3772299959
C  C55  1  0.08340000  0.27520000  0.09694000  1.0 0.3772299959
C  C56  1  0.27520000  0.08340000  0.40306000  1.0 0.3772299959
C  C57  1  0.96560000  0.05140000  0.92898000  1.0 0.018292181
C  C58  1  0.05140000  0.96560000  0.57102000  1.0 0.018292181
C  C59  1  0.03440000  0.94860000  0.07102000  1.0 0.018292181
C  C60  1  0.94860000  0.03440000  0.42898000  1.0 0.018292181
C  C61  1  0.93220000  0.83980000  0.90946000  1.0 0.0090227907
C  C62  1  0.83980000  0.93220000  0.59054000  1.0 0.0090227907
C  C63  1  0.06780000  0.16020000  0.09054000  1.0 0.0090227907
C  C64  1  0.16020000  0.06780000  0.40946000  1.0 0.0090227907
C  C65  1  0.87300000  0.98060000  0.94030000  1.0 -0.2009738257
C  C66  1  0.98060000  0.87300000  0.55970000  1.0 -0.2009738257
C  C67  1  0.12700000  0.01940000  0.05970000  1.0 -0.2009738257
C  C68  1  0.01940000  0.12700000  0.44030000  1.0 -0.2009738257
C  C69  1  0.85430000  0.87530000  0.93100000  1.0 -0.1105809015
C  C70  1  0.87530000  0.85430000  0.56900000  1.0 -0.1105809015
C  C71  1  0.14570000  0.12470000  0.06900000  1.0 -0.1155294703
C  C72  1  0.12470000  0.14570000  0.43100000  1.0 -0.1155294703
C  C73  1  0.02330000  0.90670000  0.89900000  1.0 -0.0281988946
C  C74  1  0.90670000  0.02330000  0.60100000  1.0 -0.0281988946
C  C75  1  0.97670000  0.09330000  0.10100000  1.0 -0.0281988946
C  C76  1  0.09330000  0.97670000  0.39900000  1.0 -0.0281988946
C  C77  1  0.10280000  0.87100000  0.87420000  1.0 -0.0200878992
C  C78  1  0.87100000  0.10280000  0.62580000  1.0 -0.0200878992
C  C79  1  0.89720000  0.12900000  0.12580000  1.0 -0.0200878992
C  C80  1  0.12900000  0.89720000  0.37420000  1.0 -0.0200878992
C  C81  1  0.19500000  0.93600000  0.86280000  1.0 -0.0695218867
C  C82  1  0.93600000  0.19500000  0.63720000  1.0 -0.0695218867
C  C83  1  0.80500000  0.06400000  0.13720000  1.0 -0.0695218867
C  C84  1  0.06400000  0.80500000  0.36280000  1.0 -0.0695218867
C  C85  1  0.21000000  0.04260000  0.86910000  1.0 0.018292181
C  C86  1  0.04260000  0.21000000  0.63090000  1.0 0.018292181
C  C87  1  0.79000000  0.95740000  0.13090000  1.0 0.018292181
C  C88  1  0.95740000  0.79000000  0.36910000  1.0 0.018292181
C  C89  1  0.14000000  0.08500000  0.89240000  1.0 -0.0200878992
C  C90  1  0.08500000  0.14000000  0.60760000  1.0 -0.0200878992
C  C91  1  0.86000000  0.91500000  0.10760000  1.0 -0.0138602035
C  C92  1  0.91500000  0.86000000  0.39240000  1.0 -0.0138602035
C  C93  1  0.04500000  0.01620000  0.90350000  1.0 0.0608129958
C  C94  1  0.01620000  0.04500000  0.59650000  1.0 0.0608129958
C  C95  1  0.95500000  0.98380000  0.09650000  1.0 0.0608129958
C  C96  1  0.98380000  0.95500000  0.40350000  1.0 0.0608129958
C  C97  1  0.30040000  0.37040000  0.92940000  1.0 0.3622342719
C  C98  1  0.37040000  0.30040000  0.57060000  1.0 0.3622342719
C  C99  1  0.69960000  0.62960000  0.07060000  1.0 0.3622342719
C  C100  1  0.62960000  0.69960000  0.42940000  1.0 0.3622342719
C  C101  1  0.75690000  0.41050000  0.96349000  1.0 0.4294406472
C  C102  1  0.41050000  0.75690000  0.53651000  1.0 0.4294406472
C  C103  1  0.24310000  0.58950000  0.03651000  1.0 0.4294406472
C  C104  1  0.58950000  0.24310000  0.46349000  1.0 0.4294406472
C  C105  1  0.41780000  0.37540000  0.94350000  1.0 -0.0483886153
C  C106  1  0.37540000  0.41780000  0.55650000  1.0 -0.0483886153
C  C107  1  0.58220000  0.62460000  0.05650000  1.0 -0.0483886153
C  C108  1  0.62460000  0.58220000  0.44350000  1.0 -0.0483886153
C  C109  1  0.63850000  0.39310000  0.96119000  1.0 -0.0416794339
C  C110  1  0.39310000  0.63850000  0.53881000  1.0 -0.0416794339
C  C111  1  0.36150000  0.60690000  0.03881000  1.0 -0.0416794339
C  C112  1  0.60690000  0.36150000  0.46119000  1.0 -0.0416794339
C  C113  1  0.48320000  0.46360000  0.91450000  1.0 -0.0200878992
C  C114  1  0.46360000  0.48320000  0.58550000  1.0 -0.0200878992
C  C115  1  0.51680000  0.53640000  0.08550000  1.0 -0.0200878992
C  C116  1  0.53640000  0.51680000  0.41450000  1.0 -0.0200878992
C  C117  1  0.59290000  0.47090000  0.92430000  1.0 0.0010287351
C  C118  1  0.47090000  0.59290000  0.57570000  1.0 0.0010287351
C  C119  1  0.40710000  0.52910000  0.07570000  1.0 0.0010287351
C  C120  1  0.52910000  0.40710000  0.42430000  1.0 0.0010287351
C  C121  1  0.57270000  0.30570000  0.98740000  1.0 0.0458110194
C  C122  1  0.30570000  0.57270000  0.51260000  1.0 0.0458110194
C  C123  1  0.42730000  0.69430000  0.01260000  1.0 0.0458110194
C  C124  1  0.69430000  0.42730000  0.48740000  1.0 0.0458110194
C  C125  1  0.61080000  0.22400000  0.02270000  1.0 -0.0416794339
C  C126  1  0.22400000  0.61080000  0.47730000  1.0 -0.0416794339
C  C127  1  0.38920000  0.77600000  0.97730000  1.0 -0.0416794339
C  C128  1  0.77600000  0.38920000  0.52270000  1.0 -0.0416794339
C  C129  1  0.54520000  0.14460000  0.04810000  1.0 -0.0985344594
C  C130  1  0.14460000  0.54520000  0.45190000  1.0 -0.0985344594
C  C131  1  0.45480000  0.85540000  0.95190000  1.0 -0.0985344594
C  C132  1  0.85540000  0.45480000  0.54810000  1.0 -0.0985344594
C  C133  1  0.39280000  0.21220000  0.00100000  1.0 -0.0695218867
C  C134  1  0.21220000  0.39280000  0.49900000  1.0 -0.0695218867
C  C135  1  0.60720000  0.78780000  0.99900000  1.0 -0.0695218867
C  C136  1  0.78780000  0.60720000  0.50100000  1.0 -0.0695218867
C  C137  1  0.43160000  0.13700000  0.03580000  1.0 -0.0483886153
C  C138  1  0.13700000  0.43160000  0.46420000  1.0 -0.0483886153
C  C139  1  0.56840000  0.86300000  0.96420000  1.0 -0.0483886153
C  C140  1  0.86300000  0.56840000  0.53580000  1.0 -0.0483886153
C  C141  1  0.46060000  0.29920000  0.97640000  1.0 0.0317797153
C  C142  1  0.29920000  0.46060000  0.52360000  1.0 0.0317797153
C  C143  1  0.53940000  0.70080000  0.02360000  1.0 0.0317797153
C  C144  1  0.70080000  0.53940000  0.47640000  1.0 0.0317797153
C  C145  1  0.18460000  0.80840000  0.71500000  1.0 -0.2009738257
C  C146  1  0.80840000  0.18460000  0.78500000  1.0 -0.2009738257
C  C147  1  0.81540000  0.19160000  0.28500000  1.0 -0.2009738257
C  C148  1  0.19160000  0.81540000  0.21500000  1.0 -0.2009738257
C  C149  1  0.13930000  0.73630000  0.75820000  1.0 -0.0695218867
C  C150  1  0.73630000  0.13930000  0.74180000  1.0 -0.0695218867
C  C151  1  0.86070000  0.26370000  0.24180000  1.0 -0.0695218867
C  C152  1  0.26370000  0.86070000  0.25820000  1.0 -0.0695218867
C  C153  1  0.30320000  0.70760000  0.80460000  1.0 0.0458110194
C  C154  1  0.70760000  0.30320000  0.69540000  1.0 0.0458110194
C  C155  1  0.69680000  0.29240000  0.19540000  1.0 0.0458110194
C  C156  1  0.29240000  0.69680000  0.30460000  1.0 0.0458110194
C  C157  1  0.36780000  0.66500000  0.85070000  1.0 -0.0281988946
C  C158  1  0.66500000  0.36780000  0.64930000  1.0 -0.0281988946
C  C159  1  0.63220000  0.33500000  0.14930000  1.0 -0.0281988946
C  C160  1  0.33500000  0.63220000  0.35070000  1.0 -0.0281988946
C  C161  1  0.47830000  0.69490000  0.85660000  1.0 -0.0200878992
C  C162  1  0.69490000  0.47830000  0.64340000  1.0 -0.0200878992
C  C163  1  0.52170000  0.30510000  0.14340000  1.0 -0.0200878992
C  C164  1  0.30510000  0.52170000  0.35660000  1.0 -0.0200878992
C  C165  1  0.52680000  0.77860000  0.82120000  1.0 -0.0483886153
C  C166  1  0.77860000  0.52680000  0.67880000  1.0 -0.0483886153
C  C167  1  0.47320000  0.22140000  0.17880000  1.0 -0.0483886153
C  C168  1  0.22140000  0.47320000  0.32120000  1.0 -0.0483886153
C  C169  1  0.46800000  0.82060000  0.77440000  1.0 -0.0200878992
C  C170  1  0.82060000  0.46800000  0.72560000  1.0 -0.0200878992
C  C171  1  0.53200000  0.17940000  0.22560000  1.0 -0.0200878992
C  C172  1  0.17940000  0.53200000  0.27440000  1.0 -0.0200878992
C  C173  1  0.35630000  0.78670000  0.76370000  1.0 0.0458110194
C  C174  1  0.78670000  0.35630000  0.73630000  1.0 0.0458110194
C  C175  1  0.64370000  0.21330000  0.23630000  1.0 0.0458110194
C  C176  1  0.21330000  0.64370000  0.26370000  1.0 0.0458110194
C  C177  1  0.86560000  0.98780000  0.92660000  1.0 -0.1907925198
C  C178  1  0.98780000  0.86560000  0.57340000  1.0 -0.1907925198
C  C179  1  0.13440000  0.01220000  0.07340000  1.0 -0.1907925198
C  C180  1  0.01220000  0.13440000  0.42660000  1.0 -0.1907925198
C  C181  1  0.85040000  0.88220000  0.91570000  1.0 -0.1105809015
C  C182  1  0.88220000  0.85040000  0.58430000  1.0 -0.1105809015
C  C183  1  0.14960000  0.11780000  0.08430000  1.0 -0.1105809015
C  C184  1  0.11780000  0.14960000  0.41570000  1.0 -0.1105809015
C  C185  1  0.04020000  0.90560000  0.90640000  1.0 -0.0416794339
C  C186  1  0.90560000  0.04020000  0.59360000  1.0 -0.0416794339
C  C187  1  0.95980000  0.09440000  0.09360000  1.0 -0.0416794339
C  C188  1  0.09440000  0.95980000  0.40640000  1.0 -0.0416794339
C  C189  1  0.12320000  0.86500000  0.89510000  1.0 -0.0200878992
C  C190  1  0.86500000  0.12320000  0.60490000  1.0 -0.0200878992
C  C191  1  0.87680000  0.13500000  0.10490000  1.0 -0.0200878992
C  C192  1  0.13500000  0.87680000  0.39510000  1.0 -0.0200878992
C  C193  1  0.22020000  0.92540000  0.89400000  1.0 -0.0586729461
C  C194  1  0.92540000  0.22020000  0.60600000  1.0 -0.0586729461
C  C195  1  0.77980000  0.07460000  0.10600000  1.0 -0.0586729461
C  C196  1  0.07460000  0.77980000  0.39400000  1.0 -0.0586729461
C  C197  1  0.23820000  0.03100000  0.90620000  1.0 -0.0416794339
C  C198  1  0.03100000  0.23820000  0.59380000  1.0 -0.0416794339
C  C199  1  0.76180000  0.96900000  0.09380000  1.0 -0.0416794339
C  C200  1  0.96900000  0.76180000  0.40620000  1.0 -0.0416794339
C  C201  1  0.15670000  0.06810000  0.91720000  1.0 -0.0416794339
C  C202  1  0.06810000  0.15670000  0.58280000  1.0 -0.0416794339
C  C203  1  0.84330000  0.93190000  0.08280000  1.0 -0.0416794339
C  C204  1  0.93190000  0.84330000  0.41720000  1.0 -0.0416794339
C  C205  1  0.05240000  0.01020000  0.92110000  1.0 0.0608129958
C  C206  1  0.01020000  0.05240000  0.57890000  1.0 0.0608129958
C  C207  1  0.94760000  0.98980000  0.07890000  1.0 0.0608129958
C  C208  1  0.98980000  0.94760000  0.42110000  1.0 0.0608129958
C  C209  1  0.48410000  0.47010000  0.94700000  1.0 -0.0695218867
C  C210  1  0.47010000  0.48410000  0.55300000  1.0 -0.0695218867
C  C211  1  0.51590000  0.52990000  0.05300000  1.0 -0.0695218867
C  C212  1  0.52990000  0.51590000  0.44700000  1.0 -0.0695218867
C  C213  1  0.59510000  0.47970000  0.95180000  1.0 -0.0200878992
C  C214  1  0.47970000  0.59510000  0.54820000  1.0 -0.0200878992
C  C215  1  0.40490000  0.52030000  0.04820000  1.0 -0.0200878992
C  C216  1  0.52030000  0.40490000  0.45180000  1.0 -0.0200878992
C  C217  1  0.57300000  0.29040000  0.96970000  1.0 0.0608129958
C  C218  1  0.29040000  0.57300000  0.53030000  1.0 0.0608129958
C  C219  1  0.42700000  0.70960000  0.03030000  1.0 0.0608129958
C  C220  1  0.70960000  0.42700000  0.46970000  1.0 0.0608129958
C  C221  1  0.61220000  0.19740000  0.99110000  1.0 -0.0200878992
C  C222  1  0.19740000  0.61220000  0.50890000  1.0 -0.0200878992
C  C223  1  0.38780000  0.80260000  0.00890000  1.0 -0.0200878992
C  C224  1  0.80260000  0.38780000  0.49110000  1.0 -0.0200878992
C  C225  1  0.54380000  0.10400000  0.00580000  1.0 -0.0794164913
C  C226  1  0.10400000  0.54380000  0.49420000  1.0 -0.0794164913
C  C227  1  0.45620000  0.89600000  0.99420000  1.0 -0.0794164913
C  C228  1  0.89600000  0.45620000  0.50580000  1.0 -0.0794164913
C  C229  1  0.43530000  0.09710000  0.99710000  1.0 -0.0483886153
C  C230  1  0.09710000  0.43530000  0.50290000  1.0 -0.0483886153
C  C231  1  0.56470000  0.90290000  0.00290000  1.0 -0.0483886153
C  C232  1  0.90290000  0.56470000  0.49710000  1.0 -0.0483886153
C  C233  1  0.39530000  0.18130000  0.97350000  1.0 -0.0281988946
C  C234  1  0.18130000  0.39530000  0.52650000  1.0 -0.0281988946
C  C235  1  0.60470000  0.81870000  0.02650000  1.0 -0.0281988946
C  C236  1  0.81870000  0.60470000  0.47350000  1.0 -0.0281988946
C  C237  1  0.46250000  0.28130000  0.96110000  1.0 0.0458110194
C  C238  1  0.28130000  0.46250000  0.53890000  1.0 0.0458110194
C  C239  1  0.53750000  0.71870000  0.03890000  1.0 0.0458110194
C  C240  1  0.71870000  0.53750000  0.46110000  1.0 0.0458110194
O  O1  1  0.02598000  0.44172000  0.94584000  1.0 -0.8793902921
O  O2  1  0.44172000  0.02598000  0.55416000  1.0 -0.8793902921
O  O3  1  0.97402000  0.55828000  0.05416000  1.0 -0.8793902921
O  O4  1  0.55828000  0.97402000  0.44584000  1.0 -0.8793902921
O  O5  1  0.32393000  0.99407000  0.65907000  1.0 -0.4988612956
O  O6  1  0.99407000  0.32393000  0.84093000  1.0 -0.4988612956
O  O7  1  0.67607000  0.00593000  0.34093000  1.0 -0.4988612956
O  O8  1  0.00593000  0.67607000  0.15907000  1.0 -0.4988612956
O  O9  1  0.42273000  0.87387000  0.65893000  1.0 -0.4988612956
O  O10  1  0.87387000  0.42273000  0.84107000  1.0 -0.4988612956
O  O11  1  0.57727000  0.12613000  0.34107000  1.0 -0.4988612956
O  O12  1  0.12613000  0.57727000  0.15893000  1.0 -0.4988612956
O  O13  1  0.03890000  0.61470000  0.84220000  1.0 -0.5263706075
O  O14  1  0.61470000  0.03890000  0.65780000  1.0 -0.5263706075
O  O15  1  0.96110000  0.38530000  0.15780000  1.0 -0.5263706075
O  O16  1  0.38530000  0.96110000  0.34220000  1.0 -0.5263706075
O  O17  1  0.16472000  0.51868000  0.85208000  1.0 -0.4774263627
O  O18  1  0.51868000  0.16472000  0.64792000  1.0 -0.4774263627
O  O19  1  0.83528000  0.48132000  0.14792000  1.0 -0.4774263627
O  O20  1  0.48132000  0.83528000  0.35208000  1.0 -0.4774263627
O  O21  1  0.06399000  0.22381000  0.94838000  1.0 -0.4988612956
O  O22  1  0.22381000  0.06399000  0.55162000  1.0 -0.4988612956
O  O23  1  0.93601000  0.77619000  0.05162000  1.0 -0.4988612956
O  O24  1  0.77619000  0.93601000  0.44838000  1.0 -0.4988612956
O  O25  1  0.89538000  0.18462000  0.95770000  1.0 -0.5113588797
O  O26  1  0.18462000  0.89538000  0.54230000  1.0 -0.5113588797
O  O27  1  0.10462000  0.81538000  0.04230000  1.0 -0.5113588797
O  O28  1  0.81538000  0.10462000  0.45770000  1.0 -0.5113588797
O  O29  1  0.97358000  0.66784000  0.93808000  1.0 -0.5509819912
O  O30  1  0.66784000  0.97358000  0.56192000  1.0 -0.5509819912
O  O31  1  0.02642000  0.33216000  0.06192000  1.0 -0.5509819912
O  O32  1  0.33216000  0.02642000  0.43808000  1.0 -0.5509819912
O  O33  1  0.85627000  0.68453000  0.86544000  1.0 -0.4584780412
O  O34  1  0.68453000  0.85627000  0.63456000  1.0 -0.4584780412
O  O35  1  0.14373000  0.31547000  0.13456000  1.0 -0.4584780412
O  O36  1  0.31547000  0.14373000  0.36544000  1.0 -0.4584780412
O  O37  1  0.25250000  0.41070000  0.95739000  1.0 -0.4774263627
O  O38  1  0.41070000  0.25250000  0.54261000  1.0 -0.4774263627
O  O39  1  0.74750000  0.58930000  0.04261000  1.0 -0.4774263627
O  O40  1  0.58930000  0.74750000  0.45739000  1.0 -0.4774263627
O  O41  1  0.25323000  0.32977000  0.88708000  1.0 -0.4774263627
O  O42  1  0.32977000  0.25323000  0.61292000  1.0 -0.4774263627
O  O43  1  0.74677000  0.67023000  0.11292000  1.0 -0.4774263627
O  O44  1  0.67023000  0.74677000  0.38708000  1.0 -0.4774263627
O  O45  1  0.79782000  0.47958000  0.92878000  1.0 -0.474027984
O  O46  1  0.47958000  0.79782000  0.57122000  1.0 -0.474027984
O  O47  1  0.20218000  0.52042000  0.07122000  1.0 -0.474027984
O  O48  1  0.52042000  0.20218000  0.42878000  1.0 -0.474027984
O  O49  1  0.80909000  0.35591000  0.99997000  1.0 -0.5113588797
O  O50  1  0.35591000  0.80909000  0.50003000  1.0 -0.5113588797
O  O51  1  0.19091000  0.64409000  0.00003000  1.0 -0.5113588797
O  O52  1  0.64409000  0.19091000  0.49997000  1.0 -0.5113588797
