# DDEC6 charges by PACMAN v1.1 (https://github.com/mtap-research/PACMAN-charge/)
data_AHIYOH_FSR_pacman
_symmetry_space_group_name_H-M   'P 1'
_cell_length_a   15.66420000
_cell_length_b   19.71900000
_cell_length_c   27.11800000
_cell_angle_alpha   90.00000000
_cell_angle_beta   90.00000000
_cell_angle_gamma   90.00000000
_symmetry_Int_Tables_number   1
_chemical_formula_structural   Co7H40(C12O5)6
_chemical_formula_sum   'Co28 H160 C288 O120'
_cell_volume   8376.27183306
_cell_formula_units_Z   4
loop_
 _symmetry_equiv_pos_site_id
 _symmetry_equiv_pos_as_xyz
  1  'x, y, z'
loop_
 _atom_site_type_symbol
 _atom_site_label
 _atom_site_symmetry_multiplicity
 _atom_site_fract_x
 _atom_site_fract_y
 _atom_site_fract_z
 _atom_site_occupancy
 _atom_site_charge
Co  Co1  1  0.77138000  0.98235000  0.52252000  1.0 0.978204297
Co  Co2  1  0.22862000  0.51765000  0.02252000  1.0 0.978204297
Co  Co3  1  0.27138000  0.01765000  0.97748000  1.0 0.978204297
Co  Co4  1  0.72862000  0.48235000  0.47748000  1.0 0.978204297
Co  Co5  1  0.22862000  0.01765000  0.47748000  1.0 0.978204297
Co  Co6  1  0.77138000  0.48235000  0.97748000  1.0 0.978204297
Co  Co7  1  0.72862000  0.98235000  0.02252000  1.0 0.978204297
Co  Co8  1  0.27138000  0.51765000  0.52252000  1.0 0.978204297
Co  Co9  1  0.87248000  0.96176000  0.42047000  1.0 1.0749002566
Co  Co10  1  0.12752000  0.53824000  0.92047000  1.0 1.0749002566
Co  Co11  1  0.37248000  0.03824000  0.07953000  1.0 1.0749002566
Co  Co12  1  0.62752000  0.46176000  0.57953000  1.0 1.0749002566
Co  Co13  1  0.12752000  0.03824000  0.57953000  1.0 1.0749002566
Co  Co14  1  0.87248000  0.46176000  0.07953000  1.0 1.0749002566
Co  Co15  1  0.62752000  0.96176000  0.92047000  1.0 1.0749002566
Co  Co16  1  0.37248000  0.53824000  0.42047000  1.0 1.0749002566
Co  Co17  1  0.00000000  0.00000000  0.50000000  1.0 1.0962690284
Co  Co18  1  0.00000000  0.50000000  0.00000000  1.0 1.0962690284
Co  Co19  1  0.50000000  0.00000000  0.00000000  1.0 1.0962690284
Co  Co20  1  0.50000000  0.50000000  0.50000000  1.0 1.0962690284
Co  Co21  1  0.05077000  0.03899000  0.37638000  1.0 0.9227136393
Co  Co22  1  0.94923000  0.46101000  0.87638000  1.0 0.9227136393
Co  Co23  1  0.55077000  0.96101000  0.12362000  1.0 0.9227136393
Co  Co24  1  0.44923000  0.53899000  0.62362000  1.0 0.9227136393
Co  Co25  1  0.94923000  0.96101000  0.62362000  1.0 0.9227136393
Co  Co26  1  0.05077000  0.53899000  0.12362000  1.0 0.9227136393
Co  Co27  1  0.44923000  0.03899000  0.87638000  1.0 0.9227136393
Co  Co28  1  0.55077000  0.46101000  0.37638000  1.0 0.9227136393
H  H1  1  0.80660000  0.20130000  0.42130000  1.0 0.1193108617
H  H2  1  0.19340000  0.29870000  0.92130000  1.0 0.1193108617
H  H3  1  0.30660000  0.79870000  0.07870000  1.0 0.1193108617
H  H4  1  0.69340000  0.70130000  0.57870000  1.0 0.1193108617
H  H5  1  0.19340000  0.79870000  0.57870000  1.0 0.1193108617
H  H6  1  0.80660000  0.70130000  0.07870000  1.0 0.1193108617
H  H7  1  0.69340000  0.20130000  0.92130000  1.0 0.1193108617
H  H8  1  0.30660000  0.29870000  0.42130000  1.0 0.1193108617
H  H9  1  0.73430000  0.30010000  0.39890000  1.0 0.1193108617
H  H10  1  0.26570000  0.19990000  0.89890000  1.0 0.1193108617
H  H11  1  0.23430000  0.69990000  0.10110000  1.0 0.1193108617
H  H12  1  0.76570000  0.80010000  0.60110000  1.0 0.1193108617
H  H13  1  0.26570000  0.69990000  0.60110000  1.0 0.1193108617
H  H14  1  0.73430000  0.80010000  0.10110000  1.0 0.1193108617
H  H15  1  0.76570000  0.30010000  0.89890000  1.0 0.1193108617
H  H16  1  0.23430000  0.19990000  0.39890000  1.0 0.1193108617
H  H17  1  0.44440000  0.23890000  0.40230000  1.0 0.1193108617
H  H18  1  0.55560000  0.26110000  0.90230000  1.0 0.1193108617
H  H19  1  0.94440000  0.76110000  0.09770000  1.0 0.1193108617
H  H20  1  0.05560000  0.73890000  0.59770000  1.0 0.1193108617
H  H21  1  0.55560000  0.76110000  0.59770000  1.0 0.1193108617
H  H22  1  0.44440000  0.73890000  0.09770000  1.0 0.1193108617
H  H23  1  0.05560000  0.23890000  0.90230000  1.0 0.1193108617
H  H24  1  0.94440000  0.26110000  0.40230000  1.0 0.1193108617
H  H25  1  0.37440000  0.14180000  0.42280000  1.0 0.1193108617
H  H26  1  0.62560000  0.35820000  0.92280000  1.0 0.1193108617
H  H27  1  0.87440000  0.85820000  0.07720000  1.0 0.1193108617
H  H28  1  0.12560000  0.64180000  0.57720000  1.0 0.1193108617
H  H29  1  0.62560000  0.85820000  0.57720000  1.0 0.1193108617
H  H30  1  0.37440000  0.64180000  0.07720000  1.0 0.1193108617
H  H31  1  0.12560000  0.14180000  0.92280000  1.0 0.1193108617
H  H32  1  0.87440000  0.35820000  0.42280000  1.0 0.1193108617
H  H33  1  0.44670000  0.04740000  0.44710000  1.0 0.1193108617
H  H34  1  0.55330000  0.45260000  0.94710000  1.0 0.1193108617
H  H35  1  0.94670000  0.95260000  0.05290000  1.0 0.1193108617
H  H36  1  0.05330000  0.54740000  0.55290000  1.0 0.1193108617
H  H37  1  0.55330000  0.95260000  0.55290000  1.0 0.1193108617
H  H38  1  0.44670000  0.54740000  0.05290000  1.0 0.1193108617
H  H39  1  0.05330000  0.04740000  0.94710000  1.0 0.1193108617
H  H40  1  0.94670000  0.45260000  0.44710000  1.0 0.1193108617
H  H41  1  0.59110000  0.04810000  0.45100000  1.0 0.1269867291
H  H42  1  0.40890000  0.45190000  0.95100000  1.0 0.1269867291
H  H43  1  0.09110000  0.95190000  0.04900000  1.0 0.1269867291
H  H44  1  0.90890000  0.54810000  0.54900000  1.0 0.1269867291
H  H45  1  0.40890000  0.95190000  0.54900000  1.0 0.1269867291
H  H46  1  0.59110000  0.54810000  0.04900000  1.0 0.1269867291
H  H47  1  0.90890000  0.04810000  0.95100000  1.0 0.1269867291
H  H48  1  0.09110000  0.45190000  0.45100000  1.0 0.1269867291
H  H49  1  0.81970000  0.15620000  0.54730000  1.0 0.1269867291
H  H50  1  0.18030000  0.34380000  0.04730000  1.0 0.1269867291
H  H51  1  0.31970000  0.84380000  0.95270000  1.0 0.1269867291
H  H52  1  0.68030000  0.65620000  0.45270000  1.0 0.1269867291
H  H53  1  0.18030000  0.84380000  0.45270000  1.0 0.1269867291
H  H54  1  0.81970000  0.65620000  0.95270000  1.0 0.1269867291
H  H55  1  0.68030000  0.15620000  0.04730000  1.0 0.1269867291
H  H56  1  0.31970000  0.34380000  0.54730000  1.0 0.1269867291
H  H57  1  0.74190000  0.25620000  0.54690000  1.0 0.1193108617
H  H58  1  0.25810000  0.24380000  0.04690000  1.0 0.1193108617
H  H59  1  0.24190000  0.74380000  0.95310000  1.0 0.1193108617
H  H60  1  0.75810000  0.75620000  0.45310000  1.0 0.1193108617
H  H61  1  0.25810000  0.74380000  0.45310000  1.0 0.1193108617
H  H62  1  0.74190000  0.75620000  0.95310000  1.0 0.1193108617
H  H63  1  0.75810000  0.25620000  0.04690000  1.0 0.1193108617
H  H64  1  0.24190000  0.24380000  0.54690000  1.0 0.1193108617
H  H65  1  0.94060000  0.42510000  0.56940000  1.0 0.1193108617
H  H66  1  0.05940000  0.07490000  0.06940000  1.0 0.1193108617
H  H67  1  0.44060000  0.57490000  0.93060000  1.0 0.1193108617
H  H68  1  0.55940000  0.92510000  0.43060000  1.0 0.1193108617
H  H69  1  0.05940000  0.57490000  0.43060000  1.0 0.1193108617
H  H70  1  0.94060000  0.92510000  0.93060000  1.0 0.1193108617
H  H71  1  0.55940000  0.42510000  0.06940000  1.0 0.1193108617
H  H72  1  0.44060000  0.07490000  0.56940000  1.0 0.1193108617
H  H73  1  0.08470000  0.42890000  0.58430000  1.0 0.1117964913
H  H74  1  0.91530000  0.07110000  0.08430000  1.0 0.1117964913
H  H75  1  0.58470000  0.57110000  0.91570000  1.0 0.1117964913
H  H76  1  0.41530000  0.92890000  0.41570000  1.0 0.1117964913
H  H77  1  0.91530000  0.57110000  0.41570000  1.0 0.1117964913
H  H78  1  0.08470000  0.92890000  0.91570000  1.0 0.1117964913
H  H79  1  0.41530000  0.42890000  0.08430000  1.0 0.1117964913
H  H80  1  0.58470000  0.07110000  0.58430000  1.0 0.1117964913
H  H81  1  0.16200000  0.32890000  0.59010000  1.0 0.1117964913
H  H82  1  0.83800000  0.17110000  0.09010000  1.0 0.1117964913
H  H83  1  0.66200000  0.67110000  0.90990000  1.0 0.1117964913
H  H84  1  0.33800000  0.82890000  0.40990000  1.0 0.1117964913
H  H85  1  0.83800000  0.67110000  0.40990000  1.0 0.1117964913
H  H86  1  0.16200000  0.82890000  0.90990000  1.0 0.1117964913
H  H87  1  0.33800000  0.32890000  0.09010000  1.0 0.1117964913
H  H88  1  0.66200000  0.17110000  0.59010000  1.0 0.1117964913
H  H89  1  0.09860000  0.22660000  0.57930000  1.0 0.1193108617
H  H90  1  0.90140000  0.27340000  0.07930000  1.0 0.1193108617
H  H91  1  0.59860000  0.77340000  0.92070000  1.0 0.1193108617
H  H92  1  0.40140000  0.72660000  0.42070000  1.0 0.1193108617
H  H93  1  0.90140000  0.77340000  0.42070000  1.0 0.1193108617
H  H94  1  0.09860000  0.72660000  0.92070000  1.0 0.1193108617
H  H95  1  0.40140000  0.22660000  0.07930000  1.0 0.1193108617
H  H96  1  0.59860000  0.27340000  0.57930000  1.0 0.1193108617
H  H97  1  0.37090000  0.04330000  0.34890000  1.0 0.1193108617
H  H98  1  0.62910000  0.45670000  0.84890000  1.0 0.1193108617
H  H99  1  0.87090000  0.95670000  0.15110000  1.0 0.1193108617
H  H100  1  0.12910000  0.54330000  0.65110000  1.0 0.1193108617
H  H101  1  0.62910000  0.95670000  0.65110000  1.0 0.1193108617
H  H102  1  0.37090000  0.54330000  0.15110000  1.0 0.1193108617
H  H103  1  0.12910000  0.04330000  0.84890000  1.0 0.1193108617
H  H104  1  0.87090000  0.45670000  0.34890000  1.0 0.1193108617
H  H105  1  0.44590000  0.04680000  0.27510000  1.0 0.1269867291
H  H106  1  0.55410000  0.45320000  0.77510000  1.0 0.1269867291
H  H107  1  0.94590000  0.95320000  0.22490000  1.0 0.1269867291
H  H108  1  0.05410000  0.54680000  0.72490000  1.0 0.1269867291
H  H109  1  0.55410000  0.95320000  0.72490000  1.0 0.1269867291
H  H110  1  0.44590000  0.54680000  0.22490000  1.0 0.1269867291
H  H111  1  0.05410000  0.04680000  0.77510000  1.0 0.1269867291
H  H112  1  0.94590000  0.45320000  0.27510000  1.0 0.1269867291
H  H113  1  0.29120000  0.91020000  0.17000000  1.0 0.1193108617
H  H114  1  0.70880000  0.58980000  0.67000000  1.0 0.1193108617
H  H115  1  0.79120000  0.08980000  0.33000000  1.0 0.1193108617
H  H116  1  0.20880000  0.41020000  0.83000000  1.0 0.1193108617
H  H117  1  0.70880000  0.08980000  0.83000000  1.0 0.1193108617
H  H118  1  0.29120000  0.41020000  0.33000000  1.0 0.1193108617
H  H119  1  0.20880000  0.91020000  0.67000000  1.0 0.1193108617
H  H120  1  0.79120000  0.58980000  0.17000000  1.0 0.1193108617
H  H121  1  0.17380000  0.84200000  0.17720000  1.0 0.0976172482
H  H122  1  0.82620000  0.65800000  0.67720000  1.0 0.0976172482
H  H123  1  0.67380000  0.15800000  0.32280000  1.0 0.0976172482
H  H124  1  0.32620000  0.34200000  0.82280000  1.0 0.0976172482
H  H125  1  0.82620000  0.15800000  0.82280000  1.0 0.0976172482
H  H126  1  0.17380000  0.34200000  0.32280000  1.0 0.0976172482
H  H127  1  0.32620000  0.84200000  0.67720000  1.0 0.0976172482
H  H128  1  0.67380000  0.65800000  0.17720000  1.0 0.0976172482
H  H129  1  0.10190000  0.83480000  0.25160000  1.0 0.1117964913
H  H130  1  0.89810000  0.66520000  0.75160000  1.0 0.1117964913
H  H131  1  0.60190000  0.16520000  0.24840000  1.0 0.1117964913
H  H132  1  0.39810000  0.33480000  0.74840000  1.0 0.1117964913
H  H133  1  0.89810000  0.16520000  0.74840000  1.0 0.1117964913
H  H134  1  0.10190000  0.33480000  0.24840000  1.0 0.1117964913
H  H135  1  0.39810000  0.83480000  0.75160000  1.0 0.1117964913
H  H136  1  0.60190000  0.66520000  0.25160000  1.0 0.1117964913
H  H137  1  0.14430000  0.89630000  0.31800000  1.0 0.1269867291
H  H138  1  0.85570000  0.60370000  0.81800000  1.0 0.1269867291
H  H139  1  0.64430000  0.10370000  0.18200000  1.0 0.1269867291
H  H140  1  0.35570000  0.39630000  0.68200000  1.0 0.1269867291
H  H141  1  0.85570000  0.10370000  0.68200000  1.0 0.1269867291
H  H142  1  0.14430000  0.39630000  0.18200000  1.0 0.1269867291
H  H143  1  0.35570000  0.89630000  0.81800000  1.0 0.1269867291
H  H144  1  0.64430000  0.60370000  0.31800000  1.0 0.1269867291
H  H145  1  0.88900000  0.90430000  0.50760000  1.0 0.3774716278
H  H146  1  0.11100000  0.59570000  0.00760000  1.0 0.3774716278
H  H147  1  0.38900000  0.09570000  0.99240000  1.0 0.3774716278
H  H148  1  0.61100000  0.40430000  0.49240000  1.0 0.3774716278
H  H149  1  0.11100000  0.09570000  0.49240000  1.0 0.3774716278
H  H150  1  0.88900000  0.40430000  0.99240000  1.0 0.3774716278
H  H151  1  0.61100000  0.90430000  0.00760000  1.0 0.3774716278
H  H152  1  0.38900000  0.59570000  0.50760000  1.0 0.3774716278
H  H153  1  0.94060000  0.07720000  0.43350000  1.0 0.3774716278
H  H154  1  0.05940000  0.42280000  0.93350000  1.0 0.3774716278
H  H155  1  0.44060000  0.92280000  0.06650000  1.0 0.3774716278
H  H156  1  0.55940000  0.57720000  0.56650000  1.0 0.3774716278
H  H157  1  0.05940000  0.92280000  0.56650000  1.0 0.3774716278
H  H158  1  0.94060000  0.57720000  0.06650000  1.0 0.3774716278
H  H159  1  0.55940000  0.07720000  0.93350000  1.0 0.3774716278
H  H160  1  0.44060000  0.42280000  0.43350000  1.0 0.3774716278
C  C1  1  0.74707000  0.08264000  0.45050000  1.0 0.5833247771
C  C2  1  0.25293000  0.41736000  0.95050000  1.0 0.5833247771
C  C3  1  0.24707000  0.91736000  0.04950000  1.0 0.5833247771
C  C4  1  0.75293000  0.58264000  0.54950000  1.0 0.5833247771
C  C5  1  0.25293000  0.91736000  0.54950000  1.0 0.5833247771
C  C6  1  0.74707000  0.58264000  0.04950000  1.0 0.5833247771
C  C7  1  0.75293000  0.08264000  0.95050000  1.0 0.5833247771
C  C8  1  0.24707000  0.41736000  0.45050000  1.0 0.5833247771
C  C9  1  0.57600000  0.33110000  0.38821000  1.0 0.4404677023
C  C10  1  0.42400000  0.16890000  0.88821000  1.0 0.4404677023
C  C11  1  0.07600000  0.66890000  0.11179000  1.0 0.4404677023
C  C12  1  0.92400000  0.83110000  0.61179000  1.0 0.4404677023
C  C13  1  0.42400000  0.66890000  0.61179000  1.0 0.4404677023
C  C14  1  0.57600000  0.83110000  0.11179000  1.0 0.4404677023
C  C15  1  0.92400000  0.33110000  0.88821000  1.0 0.4404677023
C  C16  1  0.07600000  0.16890000  0.38821000  1.0 0.4404677023
C  C17  1  0.70250000  0.14508000  0.43240000  1.0 -0.0409329439
C  C18  1  0.29750000  0.35492000  0.93240000  1.0 -0.0409329439
C  C19  1  0.20250000  0.85492000  0.06760000  1.0 -0.0409329439
C  C20  1  0.79750000  0.64508000  0.56760000  1.0 -0.0409329439
C  C21  1  0.29750000  0.85492000  0.56760000  1.0 -0.0409329439
C  C22  1  0.70250000  0.64508000  0.06760000  1.0 -0.0409329439
C  C23  1  0.79750000  0.14508000  0.93240000  1.0 -0.0409329439
C  C24  1  0.20250000  0.35492000  0.43240000  1.0 -0.0409329439
C  C25  1  0.74730000  0.20173000  0.42032000  1.0 -0.1192622116
C  C26  1  0.25270000  0.29827000  0.92032000  1.0 -0.1192622116
C  C27  1  0.24730000  0.79827000  0.07968000  1.0 -0.1192622116
C  C28  1  0.75270000  0.70173000  0.57968000  1.0 -0.1192622116
C  C29  1  0.25270000  0.79827000  0.57968000  1.0 -0.1192622116
C  C30  1  0.74730000  0.70173000  0.07968000  1.0 -0.1192622116
C  C31  1  0.75270000  0.20173000  0.92032000  1.0 -0.1192622116
C  C32  1  0.24730000  0.29827000  0.42032000  1.0 -0.1192622116
C  C33  1  0.70320000  0.26121000  0.40628000  1.0 -0.106068336
C  C34  1  0.29680000  0.23879000  0.90628000  1.0 -0.106068336
C  C35  1  0.20320000  0.73879000  0.09372000  1.0 -0.106068336
C  C36  1  0.79680000  0.76121000  0.59372000  1.0 -0.106068336
C  C37  1  0.29680000  0.73879000  0.59372000  1.0 -0.106068336
C  C38  1  0.70320000  0.76121000  0.09372000  1.0 -0.106068336
C  C39  1  0.79680000  0.26121000  0.90628000  1.0 -0.106068336
C  C40  1  0.20320000  0.23879000  0.40628000  1.0 -0.106068336
C  C41  1  0.61640000  0.26328000  0.40321000  1.0 -0.0771758108
C  C42  1  0.38360000  0.23672000  0.90321000  1.0 -0.0771758108
C  C43  1  0.11640000  0.73672000  0.09679000  1.0 -0.0771758108
C  C44  1  0.88360000  0.76328000  0.59679000  1.0 -0.0771758108
C  C45  1  0.38360000  0.73672000  0.59679000  1.0 -0.0771758108
C  C46  1  0.61640000  0.76328000  0.09679000  1.0 -0.0771758108
C  C47  1  0.88360000  0.26328000  0.90321000  1.0 -0.0771758108
C  C48  1  0.11640000  0.23672000  0.40321000  1.0 -0.0771758108
C  C49  1  0.56800000  0.20532000  0.41393000  1.0 0.0507413949
C  C50  1  0.43200000  0.29468000  0.91393000  1.0 0.0507413949
C  C51  1  0.06800000  0.79468000  0.08607000  1.0 0.0507413949
C  C52  1  0.93200000  0.70532000  0.58607000  1.0 0.0507413949
C  C53  1  0.43200000  0.79468000  0.58607000  1.0 0.0507413949
C  C54  1  0.56800000  0.70532000  0.08607000  1.0 0.0507413949
C  C55  1  0.93200000  0.20532000  0.91393000  1.0 0.0507413949
C  C56  1  0.06800000  0.29468000  0.41393000  1.0 0.0507413949
C  C57  1  0.47570000  0.20120000  0.41208000  1.0 -0.1713854389
C  C58  1  0.52430000  0.29880000  0.91208000  1.0 -0.1713854389
C  C59  1  0.97570000  0.79880000  0.08792000  1.0 -0.1713854389
C  C60  1  0.02430000  0.70120000  0.58792000  1.0 -0.1713854389
C  C61  1  0.52430000  0.79880000  0.58792000  1.0 -0.1713854389
C  C62  1  0.47570000  0.70120000  0.08792000  1.0 -0.1713854389
C  C63  1  0.02430000  0.20120000  0.91208000  1.0 -0.1713854389
C  C64  1  0.97570000  0.29880000  0.41208000  1.0 -0.1713854389
C  C65  1  0.43370000  0.14290000  0.42440000  1.0 -0.0771758108
C  C66  1  0.56630000  0.35710000  0.92440000  1.0 -0.0771758108
C  C67  1  0.93370000  0.85710000  0.07560000  1.0 -0.0771758108
C  C68  1  0.06630000  0.64290000  0.57560000  1.0 -0.0771758108
C  C69  1  0.56630000  0.85710000  0.57560000  1.0 -0.0771758108
C  C70  1  0.43370000  0.64290000  0.07560000  1.0 -0.0771758108
C  C71  1  0.06630000  0.14290000  0.92440000  1.0 -0.0771758108
C  C72  1  0.93370000  0.35710000  0.42440000  1.0 -0.0771758108
C  C73  1  0.47660000  0.08660000  0.43884000  1.0 -0.0600631333
C  C74  1  0.52340000  0.41340000  0.93884000  1.0 -0.0600631333
C  C75  1  0.97660000  0.91340000  0.06116000  1.0 -0.0600631333
C  C76  1  0.02340000  0.58660000  0.56116000  1.0 -0.0600631333
C  C77  1  0.52340000  0.91340000  0.56116000  1.0 -0.0600631333
C  C78  1  0.47660000  0.58660000  0.06116000  1.0 -0.0600631333
C  C79  1  0.02340000  0.08660000  0.93884000  1.0 -0.0600631333
C  C80  1  0.97660000  0.41340000  0.43884000  1.0 -0.0600631333
C  C81  1  0.56270000  0.08728000  0.44127000  1.0 -0.1456971633
C  C82  1  0.43730000  0.41272000  0.94127000  1.0 -0.1456971633
C  C83  1  0.06270000  0.91272000  0.05873000  1.0 -0.1456971633
C  C84  1  0.93730000  0.58728000  0.55873000  1.0 -0.1456971633
C  C85  1  0.43730000  0.91272000  0.55873000  1.0 -0.1456971633
C  C86  1  0.56270000  0.58728000  0.05873000  1.0 -0.1456971633
C  C87  1  0.93730000  0.08728000  0.94127000  1.0 -0.1456971633
C  C88  1  0.06270000  0.41272000  0.44127000  1.0 -0.1456971633
C  C89  1  0.61135000  0.14597000  0.42952000  1.0 0.0594627313
C  C90  1  0.38865000  0.35403000  0.92952000  1.0 0.0594627313
C  C91  1  0.11135000  0.85403000  0.07048000  1.0 0.0594627313
C  C92  1  0.88865000  0.64597000  0.57048000  1.0 0.0594627313
C  C93  1  0.38865000  0.85403000  0.57048000  1.0 0.0594627313
C  C94  1  0.61135000  0.64597000  0.07048000  1.0 0.0594627313
C  C95  1  0.88865000  0.14597000  0.92952000  1.0 0.0594627313
C  C96  1  0.11135000  0.35403000  0.42952000  1.0 0.0594627313
C  C97  1  0.97807000  0.12965000  0.55815000  1.0 0.5921653902
C  C98  1  0.02193000  0.37035000  0.05815000  1.0 0.5921653902
C  C99  1  0.47807000  0.87035000  0.94185000  1.0 0.5921653902
C  C100  1  0.52193000  0.62965000  0.44185000  1.0 0.5921653902
C  C101  1  0.02193000  0.87035000  0.44185000  1.0 0.5921653902
C  C102  1  0.97807000  0.62965000  0.94185000  1.0 0.5921653902
C  C103  1  0.52193000  0.12965000  0.05815000  1.0 0.5921653902
C  C104  1  0.47807000  0.37035000  0.55815000  1.0 0.5921653902
C  C105  1  0.78609000  0.38132000  0.54916000  1.0 0.5921653902
C  C106  1  0.21391000  0.11868000  0.04916000  1.0 0.5921653902
C  C107  1  0.28609000  0.61868000  0.95084000  1.0 0.5921653902
C  C108  1  0.71391000  0.88132000  0.45084000  1.0 0.5921653902
C  C109  1  0.21391000  0.61868000  0.45084000  1.0 0.5921653902
C  C110  1  0.78609000  0.88132000  0.95084000  1.0 0.5921653902
C  C111  1  0.71391000  0.38132000  0.04916000  1.0 0.5921653902
C  C112  1  0.28609000  0.11868000  0.54916000  1.0 0.5921653902
C  C113  1  0.93335000  0.19756000  0.56121000  1.0 -0.0526383033
C  C114  1  0.06665000  0.30244000  0.06121000  1.0 -0.0526383033
C  C115  1  0.43335000  0.80244000  0.93879000  1.0 -0.0526383033
C  C116  1  0.56665000  0.69756000  0.43879000  1.0 -0.0526383033
C  C117  1  0.06665000  0.80244000  0.43879000  1.0 -0.0526383033
C  C118  1  0.93335000  0.69756000  0.93879000  1.0 -0.0526383033
C  C119  1  0.56665000  0.19756000  0.06121000  1.0 -0.0526383033
C  C120  1  0.43335000  0.30244000  0.56121000  1.0 -0.0526383033
C  C121  1  0.84760000  0.19724000  0.55256000  1.0 -0.106068336
C  C122  1  0.15240000  0.30276000  0.05256000  1.0 -0.106068336
C  C123  1  0.34760000  0.80276000  0.94744000  1.0 -0.106068336
C  C124  1  0.65240000  0.69724000  0.44744000  1.0 -0.106068336
C  C125  1  0.15240000  0.80276000  0.44744000  1.0 -0.106068336
C  C126  1  0.84760000  0.69724000  0.94744000  1.0 -0.106068336
C  C127  1  0.65240000  0.19724000  0.05256000  1.0 -0.106068336
C  C128  1  0.34760000  0.30276000  0.55256000  1.0 -0.106068336
C  C129  1  0.80069000  0.25792000  0.55142000  1.0 -0.1192622116
C  C130  1  0.19931000  0.24208000  0.05142000  1.0 -0.1192622116
C  C131  1  0.30069000  0.74208000  0.94858000  1.0 -0.1192622116
C  C132  1  0.69931000  0.75792000  0.44858000  1.0 -0.1192622116
C  C133  1  0.19931000  0.74208000  0.44858000  1.0 -0.1192622116
C  C134  1  0.80069000  0.75792000  0.94858000  1.0 -0.1192622116
C  C135  1  0.69931000  0.25792000  0.05142000  1.0 -0.1192622116
C  C136  1  0.30069000  0.24208000  0.55142000  1.0 -0.1192622116
C  C137  1  0.83934000  0.31890000  0.55671000  1.0 -0.0600631333
C  C138  1  0.16066000  0.18110000  0.05671000  1.0 -0.0600631333
C  C139  1  0.33934000  0.68110000  0.94329000  1.0 -0.0600631333
C  C140  1  0.66066000  0.81890000  0.44329000  1.0 -0.0600631333
C  C141  1  0.16066000  0.68110000  0.44329000  1.0 -0.0600631333
C  C142  1  0.83934000  0.81890000  0.94329000  1.0 -0.0600631333
C  C143  1  0.66066000  0.31890000  0.05671000  1.0 -0.0600631333
C  C144  1  0.33934000  0.18110000  0.55671000  1.0 -0.0600631333
C  C145  1  0.92936000  0.32224000  0.56557000  1.0 0.0507413949
C  C146  1  0.07064000  0.17776000  0.06557000  1.0 0.0507413949
C  C147  1  0.42936000  0.67776000  0.93443000  1.0 0.0507413949
C  C148  1  0.57064000  0.82224000  0.43443000  1.0 0.0507413949
C  C149  1  0.07064000  0.67776000  0.43443000  1.0 0.0507413949
C  C150  1  0.92936000  0.82224000  0.93443000  1.0 0.0507413949
C  C151  1  0.57064000  0.32224000  0.06557000  1.0 0.0507413949
C  C152  1  0.42936000  0.17776000  0.56557000  1.0 0.0507413949
C  C153  1  0.97160000  0.38496000  0.57155000  1.0 -0.1382573413
C  C154  1  0.02840000  0.11504000  0.07155000  1.0 -0.1382573413
C  C155  1  0.47160000  0.61504000  0.92845000  1.0 -0.1382573413
C  C156  1  0.52840000  0.88496000  0.42845000  1.0 -0.1382573413
C  C157  1  0.02840000  0.61504000  0.42845000  1.0 -0.1382573413
C  C158  1  0.97160000  0.88496000  0.92845000  1.0 -0.1382573413
C  C159  1  0.52840000  0.38496000  0.07155000  1.0 -0.1382573413
C  C160  1  0.47160000  0.11504000  0.57155000  1.0 -0.1382573413
C  C161  1  0.05740000  0.38740000  0.58040000  1.0 -0.0872773658
C  C162  1  0.94260000  0.11260000  0.08040000  1.0 -0.0872773658
C  C163  1  0.55740000  0.61260000  0.91960000  1.0 -0.0872773658
C  C164  1  0.44260000  0.88740000  0.41960000  1.0 -0.0872773658
C  C165  1  0.94260000  0.61260000  0.41960000  1.0 -0.0872773658
C  C166  1  0.05740000  0.88740000  0.91960000  1.0 -0.0872773658
C  C167  1  0.44260000  0.38740000  0.08040000  1.0 -0.0872773658
C  C168  1  0.55740000  0.11260000  0.58040000  1.0 -0.0872773658
C  C169  1  0.10370000  0.32710000  0.58360000  1.0 -0.0872773658
C  C170  1  0.89630000  0.17290000  0.08360000  1.0 -0.0872773658
C  C171  1  0.60370000  0.67290000  0.91640000  1.0 -0.0872773658
C  C172  1  0.39630000  0.82710000  0.41640000  1.0 -0.0872773658
C  C173  1  0.89630000  0.67290000  0.41640000  1.0 -0.0872773658
C  C174  1  0.10370000  0.82710000  0.91640000  1.0 -0.0872773658
C  C175  1  0.39630000  0.32710000  0.08360000  1.0 -0.0872773658
C  C176  1  0.60370000  0.17290000  0.58360000  1.0 -0.0872773658
C  C177  1  0.06570000  0.26573000  0.57762000  1.0 -0.1382573413
C  C178  1  0.93430000  0.23427000  0.07762000  1.0 -0.1382573413
C  C179  1  0.56570000  0.73427000  0.92238000  1.0 -0.1382573413
C  C180  1  0.43430000  0.76573000  0.42238000  1.0 -0.1382573413
C  C181  1  0.93430000  0.73427000  0.42238000  1.0 -0.1382573413
C  C182  1  0.06570000  0.76573000  0.92238000  1.0 -0.1382573413
C  C183  1  0.43430000  0.26573000  0.07762000  1.0 -0.1382573413
C  C184  1  0.56570000  0.23427000  0.57762000  1.0 -0.1382573413
C  C185  1  0.97630000  0.26014000  0.56876000  1.0 0.0594627313
C  C186  1  0.02370000  0.23986000  0.06876000  1.0 0.0594627313
C  C187  1  0.47630000  0.73986000  0.93124000  1.0 0.0594627313
C  C188  1  0.52370000  0.76014000  0.43124000  1.0 0.0594627313
C  C189  1  0.02370000  0.73986000  0.43124000  1.0 0.0594627313
C  C190  1  0.97630000  0.76014000  0.93124000  1.0 0.0594627313
C  C191  1  0.52370000  0.26014000  0.06876000  1.0 0.0594627313
C  C192  1  0.47630000  0.23986000  0.56876000  1.0 0.0594627313
C  C193  1  0.22978000  0.98982000  0.37446000  1.0 0.5921653902
C  C194  1  0.77022000  0.51018000  0.87446000  1.0 0.5921653902
C  C195  1  0.72978000  0.01018000  0.12554000  1.0 0.5921653902
C  C196  1  0.27022000  0.48982000  0.62554000  1.0 0.5921653902
C  C197  1  0.77022000  0.01018000  0.62554000  1.0 0.5921653902
C  C198  1  0.22978000  0.48982000  0.12554000  1.0 0.5921653902
C  C199  1  0.27022000  0.98982000  0.87446000  1.0 0.5921653902
C  C200  1  0.72978000  0.51018000  0.37446000  1.0 0.5921653902
C  C201  1  0.40940000  0.99815000  0.18802000  1.0 0.5921653902
C  C202  1  0.59060000  0.50185000  0.68802000  1.0 0.5921653902
C  C203  1  0.90940000  0.00185000  0.31198000  1.0 0.5921653902
C  C204  1  0.09060000  0.49815000  0.81198000  1.0 0.5921653902
C  C205  1  0.59060000  0.00185000  0.81198000  1.0 0.5921653902
C  C206  1  0.40940000  0.49815000  0.31198000  1.0 0.5921653902
C  C207  1  0.09060000  0.99815000  0.68802000  1.0 0.5921653902
C  C208  1  0.90940000  0.50185000  0.18802000  1.0 0.5921653902
C  C209  1  0.27701000  0.98319000  0.32654000  1.0 -0.0659285764
C  C210  1  0.72299000  0.51681000  0.82654000  1.0 -0.0659285764
C  C211  1  0.77701000  0.01681000  0.17346000  1.0 -0.0659285764
C  C212  1  0.22299000  0.48319000  0.67346000  1.0 -0.0659285764
C  C213  1  0.72299000  0.01681000  0.67346000  1.0 -0.0659285764
C  C214  1  0.27701000  0.48319000  0.17346000  1.0 -0.0659285764
C  C215  1  0.22299000  0.98319000  0.82654000  1.0 -0.0659285764
C  C216  1  0.77701000  0.51681000  0.32654000  1.0 -0.0659285764
C  C217  1  0.35020000  0.01947000  0.32183000  1.0 -0.106068336
C  C218  1  0.64980000  0.48053000  0.82183000  1.0 -0.106068336
C  C219  1  0.85020000  0.98053000  0.17817000  1.0 -0.106068336
C  C220  1  0.14980000  0.51947000  0.67817000  1.0 -0.106068336
C  C221  1  0.64980000  0.98053000  0.67817000  1.0 -0.106068336
C  C222  1  0.35020000  0.51947000  0.17817000  1.0 -0.106068336
C  C223  1  0.14980000  0.01947000  0.82183000  1.0 -0.106068336
C  C224  1  0.85020000  0.48053000  0.32183000  1.0 -0.106068336
C  C225  1  0.39550000  0.02209000  0.27713000  1.0 -0.1192622116
C  C226  1  0.60450000  0.47791000  0.77713000  1.0 -0.1192622116
C  C227  1  0.89550000  0.97791000  0.22287000  1.0 -0.1192622116
C  C228  1  0.10450000  0.52209000  0.72287000  1.0 -0.1192622116
C  C229  1  0.60450000  0.97791000  0.72287000  1.0 -0.1192622116
C  C230  1  0.39550000  0.52209000  0.22287000  1.0 -0.1192622116
C  C231  1  0.10450000  0.02209000  0.77713000  1.0 -0.1192622116
C  C232  1  0.89550000  0.47791000  0.27713000  1.0 -0.1192622116
C  C233  1  0.36580000  0.98853000  0.23668000  1.0 -0.0526383033
C  C234  1  0.63420000  0.51147000  0.73668000  1.0 -0.0526383033
C  C235  1  0.86580000  0.01147000  0.26332000  1.0 -0.0526383033
C  C236  1  0.13420000  0.48853000  0.76332000  1.0 -0.0526383033
C  C237  1  0.63420000  0.01147000  0.76332000  1.0 -0.0526383033
C  C238  1  0.36580000  0.48853000  0.26332000  1.0 -0.0526383033
C  C239  1  0.13420000  0.98853000  0.73668000  1.0 -0.0526383033
C  C240  1  0.86580000  0.51147000  0.23668000  1.0 -0.0526383033
C  C241  1  0.29150000  0.94685000  0.24021000  1.0 0.0594627313
C  C242  1  0.70850000  0.55315000  0.74021000  1.0 0.0594627313
C  C243  1  0.79150000  0.05315000  0.25979000  1.0 0.0594627313
C  C244  1  0.20850000  0.44685000  0.75979000  1.0 0.0594627313
C  C245  1  0.70850000  0.05315000  0.75979000  1.0 0.0594627313
C  C246  1  0.29150000  0.44685000  0.25979000  1.0 0.0594627313
C  C247  1  0.20850000  0.94685000  0.74021000  1.0 0.0594627313
C  C248  1  0.79150000  0.55315000  0.24021000  1.0 0.0594627313
C  C249  1  0.26230000  0.90797000  0.19991000  1.0 -0.1270530241
C  C250  1  0.73770000  0.59203000  0.69991000  1.0 -0.1270530241
C  C251  1  0.76230000  0.09203000  0.30009000  1.0 -0.1270530241
C  C252  1  0.23770000  0.40797000  0.80009000  1.0 -0.1270530241
C  C253  1  0.73770000  0.09203000  0.80009000  1.0 -0.1270530241
C  C254  1  0.26230000  0.40797000  0.30009000  1.0 -0.1270530241
C  C255  1  0.23770000  0.90797000  0.69991000  1.0 -0.1270530241
C  C256  1  0.76230000  0.59203000  0.19991000  1.0 -0.1270530241
C  C257  1  0.19250000  0.86710000  0.20413000  1.0 -0.0872773658
C  C258  1  0.80750000  0.63290000  0.70413000  1.0 -0.0872773658
C  C259  1  0.69250000  0.13290000  0.29587000  1.0 -0.0872773658
C  C260  1  0.30750000  0.36710000  0.79587000  1.0 -0.0872773658
C  C261  1  0.80750000  0.13290000  0.79587000  1.0 -0.0872773658
C  C262  1  0.19250000  0.36710000  0.29587000  1.0 -0.0872773658
C  C263  1  0.30750000  0.86710000  0.70413000  1.0 -0.0872773658
C  C264  1  0.69250000  0.63290000  0.20413000  1.0 -0.0872773658
C  C265  1  0.14910000  0.86320000  0.24892000  1.0 -0.0989337618
C  C266  1  0.85090000  0.63680000  0.74892000  1.0 -0.0989337618
C  C267  1  0.64910000  0.13680000  0.25108000  1.0 -0.0989337618
C  C268  1  0.35090000  0.36320000  0.75108000  1.0 -0.0989337618
C  C269  1  0.85090000  0.13680000  0.75108000  1.0 -0.0989337618
C  C270  1  0.14910000  0.36320000  0.25108000  1.0 -0.0989337618
C  C271  1  0.35090000  0.86320000  0.74892000  1.0 -0.0989337618
C  C272  1  0.64910000  0.63680000  0.24892000  1.0 -0.0989337618
C  C273  1  0.17450000  0.89988000  0.28864000  1.0 -0.1270530241
C  C274  1  0.82550000  0.60012000  0.78864000  1.0 -0.1270530241
C  C275  1  0.67450000  0.10012000  0.21136000  1.0 -0.1270530241
C  C276  1  0.32550000  0.39988000  0.71136000  1.0 -0.1270530241
C  C277  1  0.82550000  0.10012000  0.71136000  1.0 -0.1270530241
C  C278  1  0.17450000  0.39988000  0.21136000  1.0 -0.1270530241
C  C279  1  0.32550000  0.89988000  0.78864000  1.0 -0.1270530241
C  C280  1  0.67450000  0.60012000  0.28864000  1.0 -0.1270530241
C  C281  1  0.24600000  0.94334000  0.28622000  1.0 0.0594627313
C  C282  1  0.75400000  0.55666000  0.78622000  1.0 0.0594627313
C  C283  1  0.74600000  0.05666000  0.21378000  1.0 0.0594627313
C  C284  1  0.25400000  0.44334000  0.71378000  1.0 0.0594627313
C  C285  1  0.75400000  0.05666000  0.71378000  1.0 0.0594627313
C  C286  1  0.24600000  0.44334000  0.21378000  1.0 0.0594627313
C  C287  1  0.25400000  0.94334000  0.78622000  1.0 0.0594627313
C  C288  1  0.74600000  0.55666000  0.28622000  1.0 0.0594627313
O  O1  1  0.78916000  0.04799000  0.42076000  1.0 -0.5518606732
O  O2  1  0.21084000  0.45201000  0.92076000  1.0 -0.5518606732
O  O3  1  0.28916000  0.95201000  0.07924000  1.0 -0.5518606732
O  O4  1  0.71084000  0.54799000  0.57924000  1.0 -0.5518606732
O  O5  1  0.21084000  0.95201000  0.57924000  1.0 -0.5518606732
O  O6  1  0.78916000  0.54799000  0.07924000  1.0 -0.5518606732
O  O7  1  0.71084000  0.04799000  0.92076000  1.0 -0.5518606732
O  O8  1  0.28916000  0.45201000  0.42076000  1.0 -0.5518606732
O  O9  1  0.73745000  0.06980000  0.49571000  1.0 -0.5379691204
O  O10  1  0.26255000  0.43020000  0.99571000  1.0 -0.5379691204
O  O11  1  0.23745000  0.93020000  0.00429000  1.0 -0.5379691204
O  O12  1  0.76255000  0.56980000  0.50429000  1.0 -0.5379691204
O  O13  1  0.26255000  0.93020000  0.50429000  1.0 -0.5379691204
O  O14  1  0.73745000  0.56980000  0.00429000  1.0 -0.5379691204
O  O15  1  0.76255000  0.06980000  0.99571000  1.0 -0.5379691204
O  O16  1  0.23745000  0.43020000  0.49571000  1.0 -0.5379691204
O  O17  1  0.61930000  0.37847000  0.38335000  1.0 -0.4196291397
O  O18  1  0.38070000  0.12153000  0.88335000  1.0 -0.4196291397
O  O19  1  0.11930000  0.62153000  0.11665000  1.0 -0.4196291397
O  O20  1  0.88070000  0.87847000  0.61665000  1.0 -0.4196291397
O  O21  1  0.38070000  0.62153000  0.61665000  1.0 -0.4196291397
O  O22  1  0.61930000  0.87847000  0.11665000  1.0 -0.4196291397
O  O23  1  0.88070000  0.37847000  0.88335000  1.0 -0.4196291397
O  O24  1  0.11930000  0.12153000  0.38335000  1.0 -0.4196291397
O  O25  1  0.50450000  0.33940000  0.36810000  1.0 0.0507413949
O  O26  1  0.49550000  0.16060000  0.86810000  1.0 0.0507413949
O  O27  1  0.00450000  0.66060000  0.13190000  1.0 0.0507413949
O  O28  1  0.99550000  0.83940000  0.63190000  1.0 0.0507413949
O  O29  1  0.49550000  0.66060000  0.63190000  1.0 0.0507413949
O  O30  1  0.50450000  0.83940000  0.13190000  1.0 0.0507413949
O  O31  1  0.99550000  0.33940000  0.86810000  1.0 0.0507413949
O  O32  1  0.00450000  0.16060000  0.36810000  1.0 0.0507413949
O  O33  1  0.94859000  0.08994000  0.52634000  1.0 -0.5685687666
O  O34  1  0.05141000  0.41006000  0.02634000  1.0 -0.5685687666
O  O35  1  0.44859000  0.91006000  0.97366000  1.0 -0.5685687666
O  O36  1  0.55141000  0.58994000  0.47366000  1.0 -0.5685687666
O  O37  1  0.05141000  0.91006000  0.47366000  1.0 -0.5685687666
O  O38  1  0.94859000  0.58994000  0.97366000  1.0 -0.5685687666
O  O39  1  0.55141000  0.08994000  0.02634000  1.0 -0.5685687666
O  O40  1  0.44859000  0.41006000  0.52634000  1.0 -0.5685687666
O  O41  1  0.04019000  0.11781000  0.58598000  1.0 -0.5518606732
O  O42  1  0.95981000  0.38219000  0.08598000  1.0 -0.5518606732
O  O43  1  0.54019000  0.88219000  0.91402000  1.0 -0.5518606732
O  O44  1  0.45981000  0.61781000  0.41402000  1.0 -0.5518606732
O  O45  1  0.95981000  0.88219000  0.41402000  1.0 -0.5518606732
O  O46  1  0.04019000  0.61781000  0.91402000  1.0 -0.5518606732
O  O47  1  0.45981000  0.11781000  0.08598000  1.0 -0.5518606732
O  O48  1  0.54019000  0.38219000  0.58598000  1.0 -0.5518606732
O  O49  1  0.80223000  0.41519000  0.51087000  1.0 -0.5685687666
O  O50  1  0.19777000  0.08481000  0.01087000  1.0 -0.5685687666
O  O51  1  0.30223000  0.58481000  0.98913000  1.0 -0.5685687666
O  O52  1  0.69777000  0.91519000  0.48913000  1.0 -0.5685687666
O  O53  1  0.19777000  0.58481000  0.48913000  1.0 -0.5685687666
O  O54  1  0.80223000  0.91519000  0.98913000  1.0 -0.5685687666
O  O55  1  0.69777000  0.41519000  0.01087000  1.0 -0.5685687666
O  O56  1  0.30223000  0.08481000  0.51087000  1.0 -0.5685687666
O  O57  1  0.72819000  0.39320000  0.57964000  1.0 -0.5336245428
O  O58  1  0.27181000  0.10680000  0.07964000  1.0 -0.5336245428
O  O59  1  0.22819000  0.60680000  0.92036000  1.0 -0.5336245428
O  O60  1  0.77181000  0.89320000  0.42036000  1.0 -0.5336245428
O  O61  1  0.27181000  0.60680000  0.42036000  1.0 -0.5336245428
O  O62  1  0.72819000  0.89320000  0.92036000  1.0 -0.5336245428
O  O63  1  0.77181000  0.39320000  0.07964000  1.0 -0.5336245428
O  O64  1  0.22819000  0.10680000  0.57964000  1.0 -0.5336245428
O  O65  1  0.15143000  0.97834000  0.37621000  1.0 -0.5379691204
O  O66  1  0.84857000  0.52166000  0.87621000  1.0 -0.5379691204
O  O67  1  0.65143000  0.02166000  0.12379000  1.0 -0.5379691204
O  O68  1  0.34857000  0.47834000  0.62379000  1.0 -0.5379691204
O  O69  1  0.84857000  0.02166000  0.62379000  1.0 -0.5379691204
O  O70  1  0.15143000  0.47834000  0.12379000  1.0 -0.5379691204
O  O71  1  0.34857000  0.97834000  0.87621000  1.0 -0.5379691204
O  O72  1  0.65143000  0.52166000  0.37621000  1.0 -0.5379691204
O  O73  1  0.27327000  0.00788000  0.41106000  1.0 -0.5379691204
O  O74  1  0.72673000  0.49212000  0.91106000  1.0 -0.5379691204
O  O75  1  0.77327000  0.99212000  0.08894000  1.0 -0.5379691204
O  O76  1  0.22673000  0.50788000  0.58894000  1.0 -0.5379691204
O  O77  1  0.72673000  0.99212000  0.58894000  1.0 -0.5379691204
O  O78  1  0.27327000  0.50788000  0.08894000  1.0 -0.5379691204
O  O79  1  0.22673000  0.00788000  0.91106000  1.0 -0.5379691204
O  O80  1  0.77327000  0.49212000  0.41106000  1.0 -0.5379691204
O  O81  1  0.36739000  0.02725000  0.15533000  1.0 -0.5148202906
O  O82  1  0.63261000  0.47275000  0.65533000  1.0 -0.5148202906
O  O83  1  0.86739000  0.97275000  0.34467000  1.0 -0.5148202906
O  O84  1  0.13261000  0.52725000  0.84467000  1.0 -0.5148202906
O  O85  1  0.63261000  0.97275000  0.84467000  1.0 -0.5148202906
O  O86  1  0.36739000  0.52725000  0.34467000  1.0 -0.5148202906
O  O87  1  0.13261000  0.02725000  0.65533000  1.0 -0.5148202906
O  O88  1  0.86739000  0.47275000  0.15533000  1.0 -0.5148202906
O  O89  1  0.48617000  0.97797000  0.18491000  1.0 -0.5685687666
O  O90  1  0.51383000  0.52203000  0.68491000  1.0 -0.5685687666
O  O91  1  0.98617000  0.02203000  0.31509000  1.0 -0.5685687666
O  O92  1  0.01383000  0.47797000  0.81509000  1.0 -0.5685687666
O  O93  1  0.51383000  0.02203000  0.81509000  1.0 -0.5685687666
O  O94  1  0.48617000  0.47797000  0.31509000  1.0 -0.5685687666
O  O95  1  0.01383000  0.97797000  0.68491000  1.0 -0.5685687666
O  O96  1  0.98617000  0.52203000  0.18491000  1.0 -0.5685687666
O  O97  1  0.88152000  0.95226000  0.49910000  1.0 -0.9126523266
O  O98  1  0.11848000  0.54774000  0.99910000  1.0 -0.9126523266
O  O99  1  0.38152000  0.04774000  0.00090000  1.0 -0.9126523266
O  O100  1  0.61848000  0.45226000  0.50090000  1.0 -0.9126523266
O  O101  1  0.11848000  0.04774000  0.50090000  1.0 -0.9126523266
O  O102  1  0.88152000  0.45226000  0.00090000  1.0 -0.9126523266
O  O103  1  0.61848000  0.95226000  0.99910000  1.0 -0.9126523266
O  O104  1  0.38152000  0.54774000  0.49910000  1.0 -0.9126523266
O  O105  1  0.96796000  0.03276000  0.43015000  1.0 -0.901086999
O  O106  1  0.03204000  0.46724000  0.93015000  1.0 -0.901086999
O  O107  1  0.46796000  0.96724000  0.06985000  1.0 -0.901086999
O  O108  1  0.53204000  0.53276000  0.56985000  1.0 -0.901086999
O  O109  1  0.03204000  0.96724000  0.56985000  1.0 -0.901086999
O  O110  1  0.96796000  0.53276000  0.06985000  1.0 -0.901086999
O  O111  1  0.53204000  0.03276000  0.93015000  1.0 -0.901086999
O  O112  1  0.46796000  0.46724000  0.43015000  1.0 -0.901086999
O  O113  1  0.49210000  0.33560000  0.39400000  1.0 -0.1192622116
O  O114  1  0.50790000  0.16440000  0.89400000  1.0 -0.1192622116
O  O115  1  0.99210000  0.66440000  0.10600000  1.0 -0.1192622116
O  O116  1  0.00790000  0.83560000  0.60600000  1.0 -0.1192622116
O  O117  1  0.50790000  0.66440000  0.60600000  1.0 -0.1192622116
O  O118  1  0.49210000  0.83560000  0.10600000  1.0 -0.1192622116
O  O119  1  0.00790000  0.33560000  0.89400000  1.0 -0.1192622116
O  O120  1  0.99210000  0.16440000  0.39400000  1.0 -0.1192622116
