# DDEC6 charges by PACMAN v1.1 (https://github.com/mtap-research/PACMAN-charge/)
data_AHOKIR01_ASR_pacman
_symmetry_space_group_name_H-M   'P 1'
_cell_length_a   10.55870000
_cell_length_b   10.55870000
_cell_length_c   4.39990000
_cell_angle_alpha   88.81310000
_cell_angle_beta   91.18690000
_cell_angle_gamma   143.17100000
_symmetry_Int_Tables_number   1
_chemical_formula_structural   CuPH4(CO2)2
_chemical_formula_sum   'Cu2 P2 H8 C4 O8'
_cell_volume   293.96646935
_cell_formula_units_Z   2
loop_
 _symmetry_equiv_pos_site_id
 _symmetry_equiv_pos_as_xyz
  1  'x, y, z'
loop_
 _atom_site_type_symbol
 _atom_site_label
 _atom_site_symmetry_multiplicity
 _atom_site_fract_x
 _atom_site_fract_y
 _atom_site_fract_z
 _atom_site_occupancy
 _atom_site_charge
Cu  Cu1  1  0.50000000  0.00000000  0.50000000  1.0 1.148078526
Cu  Cu2  1  0.00000000  0.50000000  0.50000000  1.0 1.148078526
P  P1  1  0.17422000  0.82578000  0.98060000  1.0 1.2725610981
P  P2  1  0.82578000  0.17422000  0.01940000  1.0 1.2725610981
H  H1  1  0.18700000  0.00300000  0.23000000  1.0 0.1133299104
H  H2  1  0.99700000  0.81300000  0.23000000  1.0 0.1133299104
H  H3  1  0.81300000  0.99700000  0.77000000  1.0 0.1133299104
H  H4  1  0.00300000  0.18700000  0.77000000  1.0 0.1133299104
H  H5  1  0.10300000  0.03900000  0.80300000  1.0 0.1016516487
H  H6  1  0.96100000  0.89700000  0.80300000  1.0 0.1016516487
H  H7  1  0.89700000  0.96100000  0.19700000  1.0 0.1016516487
H  H8  1  0.03900000  0.10300000  0.19700000  1.0 0.1016516487
C  C1  1  0.09130000  0.90870000  0.13600000  1.0 -0.3789562782
C  C2  1  0.90870000  0.09130000  0.86400000  1.0 -0.3789562782
C  C3  1  0.03330000  0.96670000  0.92400000  1.0 -0.0772502434
C  C4  1  0.96670000  0.03330000  0.07600000  1.0 -0.0772502434
O  O1  1  0.37190000  0.00890000  0.79210000  1.0 -0.6711705675
O  O2  1  0.99110000  0.62810000  0.79210000  1.0 -0.6711705675
O  O3  1  0.62810000  0.99110000  0.20790000  1.0 -0.6711705675
O  O4  1  0.00890000  0.37190000  0.20790000  1.0 -0.6711705675
O  O5  1  0.22450000  0.77550000  0.25500000  1.0 -0.7400362839
O  O6  1  0.77550000  0.22450000  0.74500000  1.0 -0.7400362839
O  O7  1  0.67770000  0.32230000  0.27200000  1.0 -0.3120188017
O  O8  1  0.32230000  0.67770000  0.72800000  1.0 -0.3120188017
