# DDEC6 charges by PACMAN v1.1 (https://github.com/mtap-research/PACMAN-charge/)
data_AHOZAA_FSR_pacman
_symmetry_space_group_name_H-M   'P 1'
_cell_length_a   17.31890000
_cell_length_b   17.71040000
_cell_length_c   21.97180000
_cell_angle_alpha   90.00000000
_cell_angle_beta   90.00000000
_cell_angle_gamma   90.00000000
_symmetry_Int_Tables_number   1
_chemical_formula_structural   Cd2H32C37N2O9
_chemical_formula_sum   'Cd16 H256 C296 N16 O72'
_cell_volume   6739.29258929
_cell_formula_units_Z   8
loop_
 _symmetry_equiv_pos_site_id
 _symmetry_equiv_pos_as_xyz
  1  'x, y, z'
loop_
 _atom_site_type_symbol
 _atom_site_label
 _atom_site_symmetry_multiplicity
 _atom_site_fract_x
 _atom_site_fract_y
 _atom_site_fract_z
 _atom_site_occupancy
 _atom_site_charge
Cd  Cd1  1  0.53771000  0.06949000  0.37679000  1.0 0.9007424206
Cd  Cd2  1  0.96229000  0.56949000  0.12321000  1.0 0.9007424206
Cd  Cd3  1  0.53771000  0.43051000  0.62321000  1.0 0.9007424206
Cd  Cd4  1  0.96229000  0.93051000  0.87679000  1.0 0.9007424206
Cd  Cd5  1  0.46229000  0.93051000  0.62321000  1.0 0.9007424206
Cd  Cd6  1  0.03771000  0.43051000  0.87679000  1.0 0.9007424206
Cd  Cd7  1  0.46229000  0.56949000  0.37679000  1.0 0.9007424206
Cd  Cd8  1  0.03771000  0.06949000  0.12321000  1.0 0.9007424206
Cd  Cd9  1  0.59084000  0.96765000  0.24217000  1.0 0.9007424206
Cd  Cd10  1  0.90916000  0.46765000  0.25783000  1.0 0.9007424206
Cd  Cd11  1  0.59084000  0.53235000  0.75783000  1.0 0.9007424206
Cd  Cd12  1  0.90916000  0.03235000  0.74217000  1.0 0.9007424206
Cd  Cd13  1  0.40916000  0.03235000  0.75783000  1.0 0.9007424206
Cd  Cd14  1  0.09084000  0.53235000  0.74217000  1.0 0.9007424206
Cd  Cd15  1  0.40916000  0.46765000  0.24217000  1.0 0.9007424206
Cd  Cd16  1  0.09084000  0.96765000  0.25783000  1.0 0.9007424206
H  H1  1  0.31640000  0.03330000  0.20660000  1.0 0.130278507
H  H2  1  0.18360000  0.53330000  0.29340000  1.0 0.130278507
H  H3  1  0.31640000  0.46670000  0.79340000  1.0 0.130278507
H  H4  1  0.18360000  0.96670000  0.70660000  1.0 0.130278507
H  H5  1  0.68360000  0.96670000  0.79340000  1.0 0.130278507
H  H6  1  0.81640000  0.46670000  0.70660000  1.0 0.130278507
H  H7  1  0.68360000  0.53330000  0.20660000  1.0 0.130278507
H  H8  1  0.81640000  0.03330000  0.29340000  1.0 0.130278507
H  H9  1  0.45330000  0.20960000  0.23660000  1.0 0.1204808271
H  H10  1  0.04670000  0.70960000  0.26340000  1.0 0.1204808271
H  H11  1  0.45330000  0.29040000  0.76340000  1.0 0.1204808271
H  H12  1  0.04670000  0.79040000  0.73660000  1.0 0.1204808271
H  H13  1  0.54670000  0.79040000  0.76340000  1.0 0.1204808271
H  H14  1  0.95330000  0.29040000  0.73660000  1.0 0.1204808271
H  H15  1  0.54670000  0.70960000  0.23660000  1.0 0.1204808271
H  H16  1  0.95330000  0.20960000  0.26340000  1.0 0.1204808271
H  H17  1  0.04160000  0.32730000  0.22950000  1.0 0.130278507
H  H18  1  0.45840000  0.82730000  0.27050000  1.0 0.130278507
H  H19  1  0.04160000  0.17270000  0.77050000  1.0 0.130278507
H  H20  1  0.45840000  0.67270000  0.72950000  1.0 0.130278507
H  H21  1  0.95840000  0.67270000  0.77050000  1.0 0.130278507
H  H22  1  0.54160000  0.17270000  0.72950000  1.0 0.130278507
H  H23  1  0.95840000  0.82730000  0.22950000  1.0 0.130278507
H  H24  1  0.54160000  0.32730000  0.27050000  1.0 0.130278507
H  H25  1  0.13460000  0.23820000  0.25280000  1.0 0.1204808271
H  H26  1  0.36540000  0.73820000  0.24720000  1.0 0.1204808271
H  H27  1  0.13460000  0.26180000  0.74720000  1.0 0.1204808271
H  H28  1  0.36540000  0.76180000  0.75280000  1.0 0.1204808271
H  H29  1  0.86540000  0.76180000  0.74720000  1.0 0.1204808271
H  H30  1  0.63460000  0.26180000  0.75280000  1.0 0.1204808271
H  H31  1  0.86540000  0.73820000  0.25280000  1.0 0.1204808271
H  H32  1  0.63460000  0.23820000  0.24720000  1.0 0.1204808271
H  H33  1  0.25900000  0.30950000  0.11010000  1.0 0.1103010816
H  H34  1  0.24100000  0.80950000  0.38990000  1.0 0.1103010816
H  H35  1  0.25900000  0.19050000  0.88990000  1.0 0.1103010816
H  H36  1  0.24100000  0.69050000  0.61010000  1.0 0.1103010816
H  H37  1  0.74100000  0.69050000  0.88990000  1.0 0.1103010816
H  H38  1  0.75900000  0.19050000  0.61010000  1.0 0.1103010816
H  H39  1  0.74100000  0.80950000  0.11010000  1.0 0.1103010816
H  H40  1  0.75900000  0.30950000  0.38990000  1.0 0.1103010816
H  H41  1  0.16710000  0.39890000  0.08920000  1.0 0.1006356214
H  H42  1  0.33290000  0.89890000  0.41080000  1.0 0.1006356214
H  H43  1  0.16710000  0.10110000  0.91080000  1.0 0.1006356214
H  H44  1  0.33290000  0.60110000  0.58920000  1.0 0.1006356214
H  H45  1  0.83290000  0.60110000  0.91080000  1.0 0.1006356214
H  H46  1  0.66710000  0.10110000  0.58920000  1.0 0.1006356214
H  H47  1  0.83290000  0.89890000  0.08920000  1.0 0.1006356214
H  H48  1  0.66710000  0.39890000  0.41080000  1.0 0.1006356214
H  H49  1  0.36510000  0.11970000  0.36110000  1.0 0.1103010816
H  H50  1  0.13490000  0.61970000  0.13890000  1.0 0.1103010816
H  H51  1  0.36510000  0.38030000  0.63890000  1.0 0.1103010816
H  H52  1  0.13490000  0.88030000  0.86110000  1.0 0.1103010816
H  H53  1  0.63490000  0.88030000  0.63890000  1.0 0.1103010816
H  H54  1  0.86510000  0.38030000  0.86110000  1.0 0.1103010816
H  H55  1  0.63490000  0.61970000  0.36110000  1.0 0.1103010816
H  H56  1  0.86510000  0.11970000  0.13890000  1.0 0.1103010816
H  H57  1  0.28350000  0.22430000  0.36500000  1.0 0.1103010816
H  H58  1  0.21650000  0.72430000  0.13500000  1.0 0.1103010816
H  H59  1  0.28350000  0.27570000  0.63500000  1.0 0.1103010816
H  H60  1  0.21650000  0.77570000  0.86500000  1.0 0.1103010816
H  H61  1  0.71650000  0.77570000  0.63500000  1.0 0.1103010816
H  H62  1  0.78350000  0.27570000  0.86500000  1.0 0.1103010816
H  H63  1  0.71650000  0.72430000  0.36500000  1.0 0.1103010816
H  H64  1  0.78350000  0.22430000  0.13500000  1.0 0.1103010816
H  H65  1  0.45570000  0.34060000  0.44210000  1.0 0.1204808271
H  H66  1  0.04430000  0.84060000  0.05790000  1.0 0.1204808271
H  H67  1  0.45570000  0.15940000  0.55790000  1.0 0.1204808271
H  H68  1  0.04430000  0.65940000  0.94210000  1.0 0.1204808271
H  H69  1  0.54430000  0.65940000  0.55790000  1.0 0.1204808271
H  H70  1  0.95570000  0.15940000  0.94210000  1.0 0.1204808271
H  H71  1  0.54430000  0.84060000  0.44210000  1.0 0.1204808271
H  H72  1  0.95570000  0.34060000  0.05790000  1.0 0.1204808271
H  H73  1  0.53310000  0.23670000  0.43320000  1.0 0.1103010816
H  H74  1  0.96690000  0.73670000  0.06680000  1.0 0.1103010816
H  H75  1  0.53310000  0.26330000  0.56680000  1.0 0.1103010816
H  H76  1  0.96690000  0.76330000  0.93320000  1.0 0.1103010816
H  H77  1  0.46690000  0.76330000  0.56680000  1.0 0.1103010816
H  H78  1  0.03310000  0.26330000  0.93320000  1.0 0.1103010816
H  H79  1  0.46690000  0.73670000  0.43320000  1.0 0.1103010816
H  H80  1  0.03310000  0.23670000  0.06680000  1.0 0.1103010816
H  H81  1  0.35780000  0.40980000  0.38900000  1.0 0.1006356214
H  H82  1  0.14220000  0.90980000  0.11100000  1.0 0.1006356214
H  H83  1  0.35780000  0.09020000  0.61100000  1.0 0.1006356214
H  H84  1  0.14220000  0.59020000  0.88900000  1.0 0.1006356214
H  H85  1  0.64220000  0.59020000  0.61100000  1.0 0.1006356214
H  H86  1  0.85780000  0.09020000  0.88900000  1.0 0.1006356214
H  H87  1  0.64220000  0.90980000  0.38900000  1.0 0.1006356214
H  H88  1  0.85780000  0.40980000  0.11100000  1.0 0.1006356214
H  H89  1  0.27740000  0.37120000  0.38260000  1.0 0.0793910927
H  H90  1  0.22260000  0.87120000  0.11740000  1.0 0.0793910927
H  H91  1  0.27740000  0.12880000  0.61740000  1.0 0.0793910927
H  H92  1  0.22260000  0.62880000  0.88260000  1.0 0.0793910927
H  H93  1  0.72260000  0.62880000  0.61740000  1.0 0.0793910927
H  H94  1  0.77740000  0.12880000  0.88260000  1.0 0.0793910927
H  H95  1  0.72260000  0.87120000  0.38260000  1.0 0.0793910927
H  H96  1  0.77740000  0.37120000  0.11740000  1.0 0.0793910927
H  H97  1  0.28360000  0.45790000  0.46340000  1.0 0.0694626964
H  H98  1  0.21640000  0.95790000  0.03660000  1.0 0.0694626964
H  H99  1  0.28360000  0.04210000  0.53660000  1.0 0.0694626964
H  H100  1  0.21640000  0.54210000  0.96340000  1.0 0.0694626964
H  H101  1  0.71640000  0.54210000  0.53660000  1.0 0.0694626964
H  H102  1  0.78360000  0.04210000  0.96340000  1.0 0.0694626964
H  H103  1  0.71640000  0.95790000  0.46340000  1.0 0.0694626964
H  H104  1  0.78360000  0.45790000  0.03660000  1.0 0.0694626964
H  H105  1  0.34290000  0.40480000  0.49630000  1.0 0.0622815651
H  H106  1  0.15710000  0.90480000  0.00370000  1.0 0.0622815651
H  H107  1  0.34290000  0.09520000  0.50370000  1.0 0.0622815651
H  H108  1  0.15710000  0.59520000  0.99630000  1.0 0.0622815651
H  H109  1  0.65710000  0.59520000  0.50370000  1.0 0.0622815651
H  H110  1  0.84290000  0.09520000  0.99630000  1.0 0.0622815651
H  H111  1  0.65710000  0.90480000  0.49630000  1.0 0.0622815651
H  H112  1  0.84290000  0.40480000  0.00370000  1.0 0.0622815651
H  H113  1  0.25000000  0.31060000  0.50570000  1.0 0.0622815651
H  H114  1  0.25000000  0.81060000  0.99430000  1.0 0.0622815651
H  H115  1  0.25000000  0.18940000  0.49430000  1.0 0.0622815651
H  H116  1  0.25000000  0.68940000  0.00570000  1.0 0.0622815651
H  H117  1  0.75000000  0.68940000  0.49430000  1.0 0.0622815651
H  H118  1  0.75000000  0.18940000  0.00570000  1.0 0.0622815651
H  H119  1  0.75000000  0.81060000  0.50570000  1.0 0.0622815651
H  H120  1  0.75000000  0.31060000  0.99430000  1.0 0.0622815651
H  H121  1  0.19100000  0.35810000  0.46730000  1.0 0.0622815651
H  H122  1  0.30900000  0.85810000  0.03270000  1.0 0.0622815651
H  H123  1  0.19100000  0.14190000  0.53270000  1.0 0.0622815651
H  H124  1  0.30900000  0.64190000  0.96730000  1.0 0.0622815651
H  H125  1  0.80900000  0.64190000  0.53270000  1.0 0.0622815651
H  H126  1  0.69100000  0.14190000  0.96730000  1.0 0.0622815651
H  H127  1  0.80900000  0.85810000  0.46730000  1.0 0.0622815651
H  H128  1  0.69100000  0.35810000  0.03270000  1.0 0.0622815651
H  H129  1  0.09290000  0.37300000  0.66570000  1.0 0.0793910927
H  H130  1  0.40710000  0.87300000  0.83430000  1.0 0.0793910927
H  H131  1  0.09290000  0.12700000  0.33430000  1.0 0.0793910927
H  H132  1  0.40710000  0.62700000  0.16570000  1.0 0.0793910927
H  H133  1  0.90710000  0.62700000  0.33430000  1.0 0.0793910927
H  H134  1  0.59290000  0.12700000  0.16570000  1.0 0.0793910927
H  H135  1  0.90710000  0.87300000  0.66570000  1.0 0.0793910927
H  H136  1  0.59290000  0.37300000  0.83430000  1.0 0.0793910927
H  H137  1  0.13620000  0.31560000  0.58130000  1.0 0.0894462386
H  H138  1  0.36380000  0.81560000  0.91870000  1.0 0.0894462386
H  H139  1  0.13620000  0.18440000  0.41870000  1.0 0.0894462386
H  H140  1  0.36380000  0.68440000  0.08130000  1.0 0.0894462386
H  H141  1  0.86380000  0.68440000  0.41870000  1.0 0.0894462386
H  H142  1  0.63620000  0.18440000  0.08130000  1.0 0.0894462386
H  H143  1  0.86380000  0.81560000  0.58130000  1.0 0.0894462386
H  H144  1  0.63620000  0.31560000  0.91870000  1.0 0.0894462386
H  H145  1  0.23770000  0.52900000  0.65530000  1.0 0.0694626964
H  H146  1  0.26230000  0.02900000  0.84470000  1.0 0.0694626964
H  H147  1  0.23770000  0.97100000  0.34470000  1.0 0.0694626964
H  H148  1  0.26230000  0.47100000  0.15530000  1.0 0.0694626964
H  H149  1  0.76230000  0.47100000  0.34470000  1.0 0.0694626964
H  H150  1  0.73770000  0.97100000  0.15530000  1.0 0.0694626964
H  H151  1  0.76230000  0.02900000  0.65530000  1.0 0.0694626964
H  H152  1  0.73770000  0.52900000  0.84470000  1.0 0.0694626964
H  H153  1  0.27330000  0.48680000  0.56250000  1.0 0.0793910927
H  H154  1  0.22670000  0.98680000  0.93750000  1.0 0.0793910927
H  H155  1  0.27330000  0.01320000  0.43750000  1.0 0.0793910927
H  H156  1  0.22670000  0.51320000  0.06250000  1.0 0.0793910927
H  H157  1  0.72670000  0.51320000  0.43750000  1.0 0.0793910927
H  H158  1  0.77330000  0.01320000  0.06250000  1.0 0.0793910927
H  H159  1  0.72670000  0.98680000  0.56250000  1.0 0.0793910927
H  H160  1  0.77330000  0.48680000  0.93750000  1.0 0.0793910927
H  H161  1  0.61860000  0.08130000  0.48920000  1.0 0.3090883696
H  H162  1  0.88140000  0.58130000  0.01080000  1.0 0.3090883696
H  H163  1  0.61860000  0.41870000  0.51080000  1.0 0.3090883696
H  H164  1  0.88140000  0.91870000  0.98920000  1.0 0.3090883696
H  H165  1  0.38140000  0.91870000  0.51080000  1.0 0.3090883696
H  H166  1  0.11860000  0.41870000  0.98920000  1.0 0.3090883696
H  H167  1  0.38140000  0.58130000  0.48920000  1.0 0.3090883696
H  H168  1  0.11860000  0.08130000  0.01080000  1.0 0.3090883696
H  H169  1  0.60090000  0.00730000  0.47350000  1.0 0.3017363862
H  H170  1  0.89910000  0.50730000  0.02650000  1.0 0.3017363862
H  H171  1  0.60090000  0.49270000  0.52650000  1.0 0.3017363862
H  H172  1  0.89910000  0.99270000  0.97350000  1.0 0.3017363862
H  H173  1  0.39910000  0.99270000  0.52650000  1.0 0.3017363862
H  H174  1  0.10090000  0.49270000  0.97350000  1.0 0.3017363862
H  H175  1  0.39910000  0.50730000  0.47350000  1.0 0.3017363862
H  H176  1  0.10090000  0.00730000  0.02650000  1.0 0.3017363862
H  H177  1  0.30680000  0.39660000  0.38150000  1.0 0.0894462386
H  H178  1  0.19320000  0.89660000  0.11850000  1.0 0.0894462386
H  H179  1  0.30680000  0.10340000  0.61850000  1.0 0.0894462386
H  H180  1  0.19320000  0.60340000  0.88150000  1.0 0.0894462386
H  H181  1  0.69320000  0.60340000  0.61850000  1.0 0.0894462386
H  H182  1  0.80680000  0.10340000  0.88150000  1.0 0.0894462386
H  H183  1  0.69320000  0.89660000  0.38150000  1.0 0.0894462386
H  H184  1  0.80680000  0.39660000  0.11850000  1.0 0.0894462386
H  H185  1  0.25110000  0.32640000  0.37880000  1.0 0.0894462386
H  H186  1  0.24890000  0.82640000  0.12120000  1.0 0.0894462386
H  H187  1  0.25110000  0.17360000  0.62120000  1.0 0.0894462386
H  H188  1  0.24890000  0.67360000  0.87880000  1.0 0.0894462386
H  H189  1  0.74890000  0.67360000  0.62120000  1.0 0.0894462386
H  H190  1  0.75110000  0.17360000  0.87880000  1.0 0.0894462386
H  H191  1  0.74890000  0.82640000  0.37880000  1.0 0.0894462386
H  H192  1  0.75110000  0.32640000  0.12120000  1.0 0.0894462386
H  H193  1  0.25080000  0.31640000  0.48430000  1.0 0.0694626964
H  H194  1  0.24920000  0.81640000  0.01570000  1.0 0.0694626964
H  H195  1  0.25080000  0.18360000  0.51570000  1.0 0.0694626964
H  H196  1  0.24920000  0.68360000  0.98430000  1.0 0.0694626964
H  H197  1  0.74920000  0.68360000  0.51570000  1.0 0.0694626964
H  H198  1  0.75080000  0.18360000  0.98430000  1.0 0.0694626964
H  H199  1  0.74920000  0.81640000  0.48430000  1.0 0.0694626964
H  H200  1  0.75080000  0.31640000  0.01570000  1.0 0.0694626964
H  H201  1  0.31530000  0.37820000  0.49010000  1.0 0.0793910927
H  H202  1  0.18470000  0.87820000  0.00990000  1.0 0.0793910927
H  H203  1  0.31530000  0.12180000  0.50990000  1.0 0.0793910927
H  H204  1  0.18470000  0.62180000  0.99010000  1.0 0.0793910927
H  H205  1  0.68470000  0.62180000  0.50990000  1.0 0.0793910927
H  H206  1  0.81530000  0.12180000  0.99010000  1.0 0.0793910927
H  H207  1  0.68470000  0.87820000  0.49010000  1.0 0.0793910927
H  H208  1  0.81530000  0.37820000  0.00990000  1.0 0.0793910927
H  H209  1  0.22970000  0.47090000  0.45720000  1.0 0.0793910927
H  H210  1  0.27030000  0.97090000  0.04280000  1.0 0.0793910927
H  H211  1  0.22970000  0.02910000  0.54280000  1.0 0.0793910927
H  H212  1  0.27030000  0.52910000  0.95720000  1.0 0.0793910927
H  H213  1  0.77030000  0.52910000  0.54280000  1.0 0.0793910927
H  H214  1  0.72970000  0.02910000  0.95720000  1.0 0.0793910927
H  H215  1  0.77030000  0.97090000  0.45720000  1.0 0.0793910927
H  H216  1  0.72970000  0.47090000  0.04280000  1.0 0.0793910927
H  H217  1  0.16560000  0.41020000  0.44630000  1.0 0.0793910927
H  H218  1  0.33440000  0.91020000  0.05370000  1.0 0.0793910927
H  H219  1  0.16560000  0.08980000  0.55370000  1.0 0.0793910927
H  H220  1  0.33440000  0.58980000  0.94630000  1.0 0.0793910927
H  H221  1  0.83440000  0.58980000  0.55370000  1.0 0.0793910927
H  H222  1  0.66560000  0.08980000  0.94630000  1.0 0.0793910927
H  H223  1  0.83440000  0.91020000  0.44630000  1.0 0.0793910927
H  H224  1  0.66560000  0.41020000  0.05370000  1.0 0.0793910927
H  H225  1  0.05490000  0.39960000  0.64240000  1.0 0.0793910927
H  H226  1  0.44510000  0.89960000  0.85760000  1.0 0.0793910927
H  H227  1  0.05490000  0.10040000  0.35760000  1.0 0.0793910927
H  H228  1  0.44510000  0.60040000  0.14240000  1.0 0.0793910927
H  H229  1  0.94510000  0.60040000  0.35760000  1.0 0.0793910927
H  H230  1  0.55490000  0.10040000  0.14240000  1.0 0.0793910927
H  H231  1  0.94510000  0.89960000  0.64240000  1.0 0.0793910927
H  H232  1  0.55490000  0.39960000  0.85760000  1.0 0.0793910927
H  H233  1  0.10530000  0.35430000  0.55390000  1.0 0.0894462386
H  H234  1  0.39470000  0.85430000  0.94610000  1.0 0.0894462386
H  H235  1  0.10530000  0.14570000  0.44610000  1.0 0.0894462386
H  H236  1  0.39470000  0.64570000  0.05390000  1.0 0.0894462386
H  H237  1  0.89470000  0.64570000  0.44610000  1.0 0.0894462386
H  H238  1  0.60530000  0.14570000  0.05390000  1.0 0.0894462386
H  H239  1  0.89470000  0.85430000  0.55390000  1.0 0.0894462386
H  H240  1  0.60530000  0.35430000  0.94610000  1.0 0.0894462386
H  H241  1  0.18970000  0.56510000  0.63360000  1.0 0.0622815651
H  H242  1  0.31030000  0.06510000  0.86640000  1.0 0.0622815651
H  H243  1  0.18970000  0.93490000  0.36640000  1.0 0.0622815651
H  H244  1  0.31030000  0.43490000  0.13360000  1.0 0.0622815651
H  H245  1  0.81030000  0.43490000  0.36640000  1.0 0.0622815651
H  H246  1  0.68970000  0.93490000  0.13360000  1.0 0.0622815651
H  H247  1  0.81030000  0.06510000  0.63360000  1.0 0.0622815651
H  H248  1  0.68970000  0.56510000  0.86640000  1.0 0.0622815651
H  H249  1  0.23350000  0.53590000  0.53990000  1.0 0.0793910927
H  H250  1  0.26650000  0.03590000  0.96010000  1.0 0.0793910927
H  H251  1  0.23350000  0.96410000  0.46010000  1.0 0.0793910927
H  H252  1  0.26650000  0.46410000  0.03990000  1.0 0.0793910927
H  H253  1  0.76650000  0.46410000  0.46010000  1.0 0.0793910927
H  H254  1  0.73350000  0.96410000  0.03990000  1.0 0.0793910927
H  H255  1  0.76650000  0.03590000  0.53990000  1.0 0.0793910927
H  H256  1  0.73350000  0.53590000  0.96010000  1.0 0.0793910927
C  C1  1  0.39540000  0.11320000  0.22240000  1.0 -0.0209549083
C  C2  1  0.10460000  0.61320000  0.27760000  1.0 -0.0209549083
C  C3  1  0.39540000  0.38680000  0.77760000  1.0 -0.0209549083
C  C4  1  0.10460000  0.88680000  0.72240000  1.0 -0.0209549083
C  C5  1  0.60460000  0.88680000  0.77760000  1.0 -0.0209549083
C  C6  1  0.89540000  0.38680000  0.72240000  1.0 -0.0209549083
C  C7  1  0.60460000  0.61320000  0.22240000  1.0 -0.0209549083
C  C8  1  0.89540000  0.11320000  0.27760000  1.0 -0.0209549083
C  C9  1  0.32370000  0.08530000  0.20790000  1.0 -0.1277082994
C  C10  1  0.17630000  0.58530000  0.29210000  1.0 -0.1277082994
C  C11  1  0.32370000  0.41470000  0.79210000  1.0 -0.1277082994
C  C12  1  0.17630000  0.91470000  0.70790000  1.0 -0.1277082994
C  C13  1  0.67630000  0.91470000  0.79210000  1.0 -0.1277082994
C  C14  1  0.82370000  0.41470000  0.70790000  1.0 -0.1277082994
C  C15  1  0.67630000  0.58530000  0.20790000  1.0 -0.1277082994
C  C16  1  0.82370000  0.08530000  0.29210000  1.0 -0.1277082994
C  C17  1  0.26170000  0.13260000  0.19520000  1.0 -0.0508908907
C  C18  1  0.23830000  0.63260000  0.30480000  1.0 -0.0508908907
C  C19  1  0.26170000  0.36740000  0.80480000  1.0 -0.0508908907
C  C20  1  0.23830000  0.86740000  0.69520000  1.0 -0.0508908907
C  C21  1  0.73830000  0.86740000  0.80480000  1.0 -0.0508908907
C  C22  1  0.76170000  0.36740000  0.69520000  1.0 -0.0508908907
C  C23  1  0.73830000  0.63260000  0.19520000  1.0 -0.0508908907
C  C24  1  0.76170000  0.13260000  0.30480000  1.0 -0.0508908907
C  C25  1  0.27160000  0.21160000  0.19800000  1.0 0.0285446455
C  C26  1  0.22840000  0.71160000  0.30200000  1.0 0.0285446455
C  C27  1  0.27160000  0.28840000  0.80200000  1.0 0.0285446455
C  C28  1  0.22840000  0.78840000  0.69800000  1.0 0.0285446455
C  C29  1  0.72840000  0.78840000  0.80200000  1.0 0.0285446455
C  C30  1  0.77160000  0.28840000  0.69800000  1.0 0.0285446455
C  C31  1  0.72840000  0.71160000  0.19800000  1.0 0.0285446455
C  C32  1  0.77160000  0.21160000  0.30200000  1.0 0.0285446455
C  C33  1  0.34560000  0.24000000  0.21430000  1.0 -0.0371650814
C  C34  1  0.15440000  0.74000000  0.28570000  1.0 -0.0371650814
C  C35  1  0.34560000  0.26000000  0.78570000  1.0 -0.0371650814
C  C36  1  0.15440000  0.76000000  0.71430000  1.0 -0.0371650814
C  C37  1  0.65440000  0.76000000  0.78570000  1.0 -0.0371650814
C  C38  1  0.84560000  0.26000000  0.71430000  1.0 -0.0371650814
C  C39  1  0.65440000  0.74000000  0.21430000  1.0 -0.0371650814
C  C40  1  0.84560000  0.24000000  0.28570000  1.0 -0.0371650814
C  C41  1  0.40510000  0.19050000  0.22600000  1.0 -0.1059117823
C  C42  1  0.09490000  0.69050000  0.27400000  1.0 -0.1059117823
C  C43  1  0.40510000  0.30950000  0.77400000  1.0 -0.1059117823
C  C44  1  0.09490000  0.80950000  0.72600000  1.0 -0.1059117823
C  C45  1  0.59490000  0.80950000  0.77400000  1.0 -0.1059117823
C  C46  1  0.90510000  0.30950000  0.72600000  1.0 -0.1059117823
C  C47  1  0.59490000  0.69050000  0.22600000  1.0 -0.1059117823
C  C48  1  0.90510000  0.19050000  0.27400000  1.0 -0.1059117823
C  C49  1  0.46230000  0.06130000  0.23480000  1.0 0.5451168582
C  C50  1  0.03770000  0.56130000  0.26520000  1.0 0.5451168582
C  C51  1  0.46230000  0.43870000  0.76520000  1.0 0.5451168582
C  C52  1  0.03770000  0.93870000  0.73480000  1.0 0.5451168582
C  C53  1  0.53770000  0.93870000  0.76520000  1.0 0.5451168582
C  C54  1  0.96230000  0.43870000  0.73480000  1.0 0.5451168582
C  C55  1  0.53770000  0.56130000  0.23480000  1.0 0.5451168582
C  C56  1  0.96230000  0.06130000  0.26520000  1.0 0.5451168582
C  C57  1  0.36150000  0.32350000  0.22150000  1.0 0.5364951209
C  C58  1  0.13850000  0.82350000  0.27850000  1.0 0.5364951209
C  C59  1  0.36150000  0.17650000  0.77850000  1.0 0.5364951209
C  C60  1  0.13850000  0.67650000  0.72150000  1.0 0.5364951209
C  C61  1  0.63850000  0.67650000  0.77850000  1.0 0.5364951209
C  C62  1  0.86150000  0.17650000  0.72150000  1.0 0.5364951209
C  C63  1  0.63850000  0.82350000  0.22150000  1.0 0.5364951209
C  C64  1  0.86150000  0.32350000  0.27850000  1.0 0.5364951209
C  C65  1  0.18800000  0.09540000  0.17490000  1.0 0.573214011
C  C66  1  0.31200000  0.59540000  0.32510000  1.0 0.573214011
C  C67  1  0.18800000  0.40460000  0.82510000  1.0 0.573214011
C  C68  1  0.31200000  0.90460000  0.67490000  1.0 0.573214011
C  C69  1  0.81200000  0.90460000  0.82510000  1.0 0.573214011
C  C70  1  0.68800000  0.40460000  0.67490000  1.0 0.573214011
C  C71  1  0.81200000  0.59540000  0.17490000  1.0 0.573214011
C  C72  1  0.68800000  0.09540000  0.32510000  1.0 0.573214011
C  C73  1  0.03800000  0.43510000  0.14360000  1.0 0.5592875795
C  C74  1  0.46200000  0.93510000  0.35640000  1.0 0.5592875795
C  C75  1  0.03800000  0.06490000  0.85640000  1.0 0.5592875795
C  C76  1  0.46200000  0.56490000  0.64360000  1.0 0.5592875795
C  C77  1  0.96200000  0.56490000  0.85640000  1.0 0.5592875795
C  C78  1  0.53800000  0.06490000  0.64360000  1.0 0.5592875795
C  C79  1  0.96200000  0.93510000  0.14360000  1.0 0.5592875795
C  C80  1  0.53800000  0.43510000  0.35640000  1.0 0.5592875795
C  C81  1  0.09540000  0.37270000  0.15760000  1.0 -0.0209549083
C  C82  1  0.40460000  0.87270000  0.34240000  1.0 -0.0209549083
C  C83  1  0.09540000  0.12730000  0.84240000  1.0 -0.0209549083
C  C84  1  0.40460000  0.62730000  0.65760000  1.0 -0.0209549083
C  C85  1  0.90460000  0.62730000  0.84240000  1.0 -0.0209549083
C  C86  1  0.59540000  0.12730000  0.65760000  1.0 -0.0209549083
C  C87  1  0.90460000  0.87270000  0.15760000  1.0 -0.0209549083
C  C88  1  0.59540000  0.37270000  0.34240000  1.0 -0.0209549083
C  C89  1  0.08600000  0.32410000  0.20590000  1.0 -0.0806776258
C  C90  1  0.41400000  0.82410000  0.29410000  1.0 -0.0806776258
C  C91  1  0.08600000  0.17590000  0.79410000  1.0 -0.0806776258
C  C92  1  0.41400000  0.67590000  0.70590000  1.0 -0.0806776258
C  C93  1  0.91400000  0.67590000  0.79410000  1.0 -0.0806776258
C  C94  1  0.58600000  0.17590000  0.70590000  1.0 -0.0806776258
C  C95  1  0.91400000  0.82410000  0.20590000  1.0 -0.0806776258
C  C96  1  0.58600000  0.32410000  0.29410000  1.0 -0.0806776258
C  C97  1  0.14160000  0.27050000  0.21980000  1.0 -0.1403423339
C  C98  1  0.35840000  0.77050000  0.28020000  1.0 -0.1403423339
C  C99  1  0.14160000  0.22950000  0.78020000  1.0 -0.1403423339
C  C100  1  0.35840000  0.72950000  0.71980000  1.0 -0.1403423339
C  C101  1  0.85840000  0.72950000  0.78020000  1.0 -0.1403423339
C  C102  1  0.64160000  0.22950000  0.71980000  1.0 -0.1403423339
C  C103  1  0.85840000  0.77050000  0.21980000  1.0 -0.1403423339
C  C104  1  0.64160000  0.27050000  0.28020000  1.0 -0.1403423339
C  C105  1  0.20760000  0.26520000  0.18440000  1.0 0.0894462386
C  C106  1  0.29240000  0.76520000  0.31560000  1.0 0.0894462386
C  C107  1  0.20760000  0.23480000  0.81560000  1.0 0.0894462386
C  C108  1  0.29240000  0.73480000  0.68440000  1.0 0.0894462386
C  C109  1  0.79240000  0.73480000  0.81560000  1.0 0.0894462386
C  C110  1  0.70760000  0.23480000  0.68440000  1.0 0.0894462386
C  C111  1  0.79240000  0.76520000  0.18440000  1.0 0.0894462386
C  C112  1  0.70760000  0.26520000  0.31560000  1.0 0.0894462386
C  C113  1  0.21570000  0.31340000  0.13490000  1.0 -0.1403423339
C  C114  1  0.28430000  0.81340000  0.36510000  1.0 -0.1403423339
C  C115  1  0.21570000  0.18660000  0.86510000  1.0 -0.1403423339
C  C116  1  0.28430000  0.68660000  0.63490000  1.0 -0.1403423339
C  C117  1  0.78430000  0.68660000  0.86510000  1.0 -0.1403423339
C  C118  1  0.71570000  0.18660000  0.63490000  1.0 -0.1403423339
C  C119  1  0.78430000  0.81340000  0.13490000  1.0 -0.1403423339
C  C120  1  0.71570000  0.31340000  0.36510000  1.0 -0.1403423339
C  C121  1  0.16050000  0.36660000  0.12220000  1.0 -0.1403423339
C  C122  1  0.33950000  0.86660000  0.37780000  1.0 -0.1403423339
C  C123  1  0.16050000  0.13340000  0.87780000  1.0 -0.1403423339
C  C124  1  0.33950000  0.63340000  0.62220000  1.0 -0.1403423339
C  C125  1  0.83950000  0.63340000  0.87780000  1.0 -0.1403423339
C  C126  1  0.66050000  0.13340000  0.62220000  1.0 -0.1403423339
C  C127  1  0.83950000  0.86660000  0.12220000  1.0 -0.1403423339
C  C128  1  0.66050000  0.36660000  0.37780000  1.0 -0.1403423339
C  C129  1  0.38380000  0.16510000  0.37640000  1.0 -0.0806776258
C  C130  1  0.11620000  0.66510000  0.12360000  1.0 -0.0806776258
C  C131  1  0.38380000  0.33490000  0.62360000  1.0 -0.0806776258
C  C132  1  0.11620000  0.83490000  0.87640000  1.0 -0.0806776258
C  C133  1  0.61620000  0.83490000  0.62360000  1.0 -0.0806776258
C  C134  1  0.88380000  0.33490000  0.87640000  1.0 -0.0806776258
C  C135  1  0.61620000  0.66510000  0.37640000  1.0 -0.0806776258
C  C136  1  0.88380000  0.16510000  0.12360000  1.0 -0.0806776258
C  C137  1  0.33410000  0.22790000  0.37900000  1.0 -0.3271669655
C  C138  1  0.16590000  0.72790000  0.12100000  1.0 -0.3271669655
C  C139  1  0.33410000  0.27210000  0.62100000  1.0 -0.3271669655
C  C140  1  0.16590000  0.77210000  0.87900000  1.0 -0.3271669655
C  C141  1  0.66590000  0.77210000  0.62100000  1.0 -0.3271669655
C  C142  1  0.83410000  0.27210000  0.87900000  1.0 -0.3271669655
C  C143  1  0.66590000  0.72790000  0.37900000  1.0 -0.3271669655
C  C144  1  0.83410000  0.22790000  0.12100000  1.0 -0.3271669655
C  C145  1  0.36250000  0.29670000  0.40340000  1.0 0.1103010816
C  C146  1  0.13750000  0.79670000  0.09660000  1.0 0.1103010816
C  C147  1  0.36250000  0.20330000  0.59660000  1.0 0.1103010816
C  C148  1  0.13750000  0.70330000  0.90340000  1.0 0.1103010816
C  C149  1  0.63750000  0.70330000  0.59660000  1.0 0.1103010816
C  C150  1  0.86250000  0.20330000  0.90340000  1.0 0.1103010816
C  C151  1  0.63750000  0.79670000  0.40340000  1.0 0.1103010816
C  C152  1  0.86250000  0.29670000  0.09660000  1.0 0.1103010816
C  C153  1  0.43600000  0.29700000  0.42420000  1.0 -0.2517489663
C  C154  1  0.06400000  0.79700000  0.07580000  1.0 -0.2517489663
C  C155  1  0.43600000  0.20300000  0.57580000  1.0 -0.2517489663
C  C156  1  0.06400000  0.70300000  0.92420000  1.0 -0.2517489663
C  C157  1  0.56400000  0.70300000  0.57580000  1.0 -0.2517489663
C  C158  1  0.93600000  0.20300000  0.92420000  1.0 -0.2517489663
C  C159  1  0.56400000  0.79700000  0.42420000  1.0 -0.2517489663
C  C160  1  0.93600000  0.29700000  0.07580000  1.0 -0.2517489663
C  C161  1  0.48250000  0.23360000  0.41920000  1.0 0.0894462386
C  C162  1  0.01750000  0.73360000  0.08080000  1.0 0.0894462386
C  C163  1  0.48250000  0.26640000  0.58080000  1.0 0.0894462386
C  C164  1  0.01750000  0.76640000  0.91920000  1.0 0.0894462386
C  C165  1  0.51750000  0.76640000  0.58080000  1.0 0.0894462386
C  C166  1  0.98250000  0.26640000  0.91920000  1.0 0.0894462386
C  C167  1  0.51750000  0.73360000  0.41920000  1.0 0.0894462386
C  C168  1  0.98250000  0.23360000  0.08080000  1.0 0.0894462386
C  C169  1  0.32340000  0.37340000  0.40780000  1.0 -0.0806776258
C  C170  1  0.17660000  0.87340000  0.09220000  1.0 -0.0806776258
C  C171  1  0.32340000  0.12660000  0.59220000  1.0 -0.0806776258
C  C172  1  0.17660000  0.62660000  0.90780000  1.0 -0.0806776258
C  C173  1  0.67660000  0.62660000  0.59220000  1.0 -0.0806776258
C  C174  1  0.82340000  0.12660000  0.90780000  1.0 -0.0806776258
C  C175  1  0.67660000  0.87340000  0.40780000  1.0 -0.0806776258
C  C176  1  0.82340000  0.37340000  0.09220000  1.0 -0.0806776258
C  C177  1  0.29920000  0.40580000  0.46870000  1.0 -0.0860425665
C  C178  1  0.20080000  0.90580000  0.03130000  1.0 -0.0860425665
C  C179  1  0.29920000  0.09420000  0.53130000  1.0 -0.0860425665
C  C180  1  0.20080000  0.59420000  0.96870000  1.0 -0.0860425665
C  C181  1  0.70080000  0.59420000  0.53130000  1.0 -0.0860425665
C  C182  1  0.79920000  0.09420000  0.96870000  1.0 -0.0860425665
C  C183  1  0.70080000  0.90580000  0.46870000  1.0 -0.0860425665
C  C184  1  0.79920000  0.40580000  0.03130000  1.0 -0.0860425665
C  C185  1  0.23300000  0.36140000  0.49640000  1.0 -0.1227650161
C  C186  1  0.26700000  0.86140000  0.00360000  1.0 -0.1227650161
C  C187  1  0.23300000  0.13860000  0.50360000  1.0 -0.1227650161
C  C188  1  0.26700000  0.63860000  0.99640000  1.0 -0.1227650161
C  C189  1  0.76700000  0.63860000  0.50360000  1.0 -0.1227650161
C  C190  1  0.73300000  0.13860000  0.99640000  1.0 -0.1227650161
C  C191  1  0.76700000  0.86140000  0.49640000  1.0 -0.1227650161
C  C192  1  0.73300000  0.36140000  0.00360000  1.0 -0.1227650161
C  C193  1  0.12540000  0.40060000  0.64040000  1.0 0.0112380832
C  C194  1  0.37460000  0.90060000  0.85960000  1.0 0.0112380832
C  C195  1  0.12540000  0.09940000  0.35960000  1.0 0.0112380832
C  C196  1  0.37460000  0.59940000  0.14040000  1.0 0.0112380832
C  C197  1  0.87460000  0.59940000  0.35960000  1.0 0.0112380832
C  C198  1  0.62540000  0.09940000  0.14040000  1.0 0.0112380832
C  C199  1  0.87460000  0.90060000  0.64040000  1.0 0.0112380832
C  C200  1  0.62540000  0.40060000  0.85960000  1.0 0.0112380832
C  C201  1  0.15280000  0.36420000  0.59040000  1.0 -0.101475606
C  C202  1  0.34720000  0.86420000  0.90960000  1.0 -0.101475606
C  C203  1  0.15280000  0.13580000  0.40960000  1.0 -0.101475606
C  C204  1  0.34720000  0.63580000  0.09040000  1.0 -0.101475606
C  C205  1  0.84720000  0.63580000  0.40960000  1.0 -0.101475606
C  C206  1  0.65280000  0.13580000  0.09040000  1.0 -0.101475606
C  C207  1  0.84720000  0.86420000  0.59040000  1.0 -0.101475606
C  C208  1  0.65280000  0.36420000  0.90960000  1.0 -0.101475606
C  C209  1  0.20470000  0.39960000  0.55420000  1.0 0.0470902265
C  C210  1  0.29530000  0.89960000  0.94580000  1.0 0.0470902265
C  C211  1  0.20470000  0.10040000  0.44580000  1.0 0.0470902265
C  C212  1  0.29530000  0.60040000  0.05420000  1.0 0.0470902265
C  C213  1  0.79530000  0.60040000  0.44580000  1.0 0.0470902265
C  C214  1  0.70470000  0.10040000  0.05420000  1.0 0.0470902265
C  C215  1  0.79530000  0.89960000  0.55420000  1.0 0.0470902265
C  C216  1  0.70470000  0.39960000  0.94580000  1.0 0.0470902265
C  C217  1  0.20780000  0.49340000  0.63500000  1.0 0.0112380832
C  C218  1  0.29220000  0.99340000  0.86500000  1.0 0.0112380832
C  C219  1  0.20780000  0.00660000  0.36500000  1.0 0.0112380832
C  C220  1  0.29220000  0.50660000  0.13500000  1.0 0.0112380832
C  C221  1  0.79220000  0.50660000  0.36500000  1.0 0.0112380832
C  C222  1  0.70780000  0.00660000  0.13500000  1.0 0.0112380832
C  C223  1  0.79220000  0.99340000  0.63500000  1.0 0.0112380832
C  C224  1  0.70780000  0.49340000  0.86500000  1.0 0.0112380832
C  C225  1  0.23270000  0.46240000  0.58200000  1.0 -0.0806776258
C  C226  1  0.26730000  0.96240000  0.91800000  1.0 -0.0806776258
C  C227  1  0.23270000  0.03760000  0.41800000  1.0 -0.0806776258
C  C228  1  0.26730000  0.53760000  0.08200000  1.0 -0.0806776258
C  C229  1  0.76730000  0.53760000  0.41800000  1.0 -0.0806776258
C  C230  1  0.73270000  0.03760000  0.08200000  1.0 -0.0806776258
C  C231  1  0.76730000  0.96240000  0.58200000  1.0 -0.0806776258
C  C232  1  0.73270000  0.46240000  0.91800000  1.0 -0.0806776258
C  C233  1  0.29320000  0.34940000  0.40110000  1.0 -0.101475606
C  C234  1  0.20680000  0.84940000  0.09890000  1.0 -0.101475606
C  C235  1  0.29320000  0.15060000  0.59890000  1.0 -0.101475606
C  C236  1  0.20680000  0.65060000  0.90110000  1.0 -0.101475606
C  C237  1  0.70680000  0.65060000  0.59890000  1.0 -0.101475606
C  C238  1  0.79320000  0.15060000  0.90110000  1.0 -0.101475606
C  C239  1  0.70680000  0.84940000  0.40110000  1.0 -0.101475606
C  C240  1  0.79320000  0.34940000  0.09890000  1.0 -0.101475606
C  C241  1  0.27020000  0.36310000  0.46700000  1.0 -0.0508908907
C  C242  1  0.22980000  0.86310000  0.03300000  1.0 -0.0508908907
C  C243  1  0.27020000  0.13690000  0.53300000  1.0 -0.0508908907
C  C244  1  0.22980000  0.63690000  0.96700000  1.0 -0.0508908907
C  C245  1  0.72980000  0.63690000  0.53300000  1.0 -0.0508908907
C  C246  1  0.77020000  0.13690000  0.96700000  1.0 -0.0508908907
C  C247  1  0.72980000  0.86310000  0.46700000  1.0 -0.0508908907
C  C248  1  0.77020000  0.36310000  0.03300000  1.0 -0.0508908907
C  C249  1  0.20860000  0.42380000  0.47230000  1.0 -0.1277082994
C  C250  1  0.29140000  0.92380000  0.02770000  1.0 -0.1277082994
C  C251  1  0.20860000  0.07620000  0.52770000  1.0 -0.1277082994
C  C252  1  0.29140000  0.57620000  0.97230000  1.0 -0.1277082994
C  C253  1  0.79140000  0.57620000  0.52770000  1.0 -0.1277082994
C  C254  1  0.70860000  0.07620000  0.97230000  1.0 -0.1277082994
C  C255  1  0.79140000  0.92380000  0.47230000  1.0 -0.1277082994
C  C256  1  0.70860000  0.42380000  0.02770000  1.0 -0.1277082994
C  C257  1  0.09980000  0.42030000  0.62610000  1.0 0.0285446455
C  C258  1  0.40020000  0.92030000  0.87390000  1.0 0.0285446455
C  C259  1  0.09980000  0.07970000  0.37390000  1.0 0.0285446455
C  C260  1  0.40020000  0.57970000  0.12610000  1.0 0.0285446455
C  C261  1  0.90020000  0.57970000  0.37390000  1.0 0.0285446455
C  C262  1  0.59980000  0.07970000  0.12610000  1.0 0.0285446455
C  C263  1  0.90020000  0.92030000  0.62610000  1.0 0.0285446455
C  C264  1  0.59980000  0.42030000  0.87390000  1.0 0.0285446455
C  C265  1  0.12550000  0.39850000  0.57020000  1.0 -0.070215829
C  C266  1  0.37450000  0.89850000  0.92980000  1.0 -0.070215829
C  C267  1  0.12550000  0.10150000  0.42980000  1.0 -0.070215829
C  C268  1  0.37450000  0.60150000  0.07020000  1.0 -0.070215829
C  C269  1  0.87450000  0.60150000  0.42980000  1.0 -0.070215829
C  C270  1  0.62550000  0.10150000  0.07020000  1.0 -0.070215829
C  C271  1  0.87450000  0.89850000  0.57020000  1.0 -0.070215829
C  C272  1  0.62550000  0.39850000  0.92980000  1.0 -0.070215829
C  C273  1  0.17850000  0.43660000  0.53630000  1.0 0.0622815651
C  C274  1  0.32150000  0.93660000  0.96370000  1.0 0.0622815651
C  C275  1  0.17850000  0.06340000  0.46370000  1.0 0.0622815651
C  C276  1  0.32150000  0.56340000  0.03630000  1.0 0.0622815651
C  C277  1  0.82150000  0.56340000  0.46370000  1.0 0.0622815651
C  C278  1  0.67850000  0.06340000  0.03630000  1.0 0.0622815651
C  C279  1  0.82150000  0.93660000  0.53630000  1.0 0.0622815651
C  C280  1  0.67850000  0.43660000  0.96370000  1.0 0.0622815651
C  C281  1  0.17820000  0.51710000  0.61890000  1.0 0.0181360908
C  C282  1  0.32180000  0.01710000  0.88110000  1.0 0.0181360908
C  C283  1  0.17820000  0.98290000  0.38110000  1.0 0.0181360908
C  C284  1  0.32180000  0.48290000  0.11890000  1.0 0.0181360908
C  C285  1  0.82180000  0.48290000  0.38110000  1.0 0.0181360908
C  C286  1  0.67820000  0.98290000  0.11890000  1.0 0.0181360908
C  C287  1  0.82180000  0.01710000  0.61890000  1.0 0.0181360908
C  C288  1  0.67820000  0.51710000  0.88110000  1.0 0.0181360908
C  C289  1  0.20220000  0.50240000  0.56120000  1.0 -0.0806776258
C  C290  1  0.29780000  0.00240000  0.93880000  1.0 -0.0806776258
C  C291  1  0.20220000  0.99760000  0.43880000  1.0 -0.0806776258
C  C292  1  0.29780000  0.49760000  0.06120000  1.0 -0.0806776258
C  C293  1  0.79780000  0.49760000  0.43880000  1.0 -0.0806776258
C  C294  1  0.70220000  0.99760000  0.06120000  1.0 -0.0806776258
C  C295  1  0.79780000  0.00240000  0.56120000  1.0 -0.0806776258
C  C296  1  0.70220000  0.50240000  0.93880000  1.0 -0.0806776258
N  N1  1  0.45840000  0.16880000  0.39560000  1.0 -0.242738629
N  N2  1  0.04160000  0.66880000  0.10440000  1.0 -0.242738629
N  N3  1  0.45840000  0.33120000  0.60440000  1.0 -0.242738629
N  N4  1  0.04160000  0.83120000  0.89560000  1.0 -0.242738629
N  N5  1  0.54160000  0.83120000  0.60440000  1.0 -0.242738629
N  N6  1  0.95840000  0.33120000  0.89560000  1.0 -0.242738629
N  N7  1  0.54160000  0.66880000  0.39560000  1.0 -0.242738629
N  N8  1  0.95840000  0.16880000  0.10440000  1.0 -0.242738629
N  N9  1  0.14010000  0.47180000  0.65730000  1.0 -0.186892113
N  N10  1  0.35990000  0.97180000  0.84270000  1.0 -0.186892113
N  N11  1  0.14010000  0.02820000  0.34270000  1.0 -0.186892113
N  N12  1  0.35990000  0.52820000  0.15730000  1.0 -0.186892113
N  N13  1  0.85990000  0.52820000  0.34270000  1.0 -0.186892113
N  N14  1  0.64010000  0.02820000  0.15730000  1.0 -0.186892113
N  N15  1  0.85990000  0.97180000  0.65730000  1.0 -0.186892113
N  N16  1  0.64010000  0.47180000  0.84270000  1.0 -0.186892113
O  O1  1  0.51660000  0.08600000  0.26750000  1.0 -0.5820606484
O  O2  1  0.98340000  0.58600000  0.23250000  1.0 -0.5820606484
O  O3  1  0.51660000  0.41400000  0.73250000  1.0 -0.5820606484
O  O4  1  0.98340000  0.91400000  0.76750000  1.0 -0.5820606484
O  O5  1  0.48340000  0.91400000  0.73250000  1.0 -0.5820606484
O  O6  1  0.01660000  0.41400000  0.76750000  1.0 -0.5820606484
O  O7  1  0.48340000  0.58600000  0.26750000  1.0 -0.5820606484
O  O8  1  0.01660000  0.08600000  0.23250000  1.0 -0.5820606484
O  O9  1  0.46330000  0.99810000  0.20990000  1.0 -0.5184296602
O  O10  1  0.03670000  0.49810000  0.29010000  1.0 -0.5184296602
O  O11  1  0.46330000  0.50190000  0.79010000  1.0 -0.5184296602
O  O12  1  0.03670000  0.00190000  0.70990000  1.0 -0.5184296602
O  O13  1  0.53670000  0.00190000  0.79010000  1.0 -0.5184296602
O  O14  1  0.96330000  0.50190000  0.70990000  1.0 -0.5184296602
O  O15  1  0.53670000  0.49810000  0.20990000  1.0 -0.5184296602
O  O16  1  0.96330000  0.99810000  0.29010000  1.0 -0.5184296602
O  O17  1  0.42400000  0.34700000  0.19710000  1.0 -0.5554449518
O  O18  1  0.07600000  0.84700000  0.30290000  1.0 -0.5554449518
O  O19  1  0.42400000  0.15300000  0.80290000  1.0 -0.5554449518
O  O20  1  0.07600000  0.65300000  0.69710000  1.0 -0.5554449518
O  O21  1  0.57600000  0.65300000  0.80290000  1.0 -0.5554449518
O  O22  1  0.92400000  0.15300000  0.69710000  1.0 -0.5554449518
O  O23  1  0.57600000  0.84700000  0.19710000  1.0 -0.5554449518
O  O24  1  0.92400000  0.34700000  0.30290000  1.0 -0.5554449518
O  O25  1  0.31720000  0.36490000  0.25070000  1.0 -0.5184296602
O  O26  1  0.18280000  0.86490000  0.24930000  1.0 -0.5184296602
O  O27  1  0.31720000  0.13510000  0.74930000  1.0 -0.5184296602
O  O28  1  0.18280000  0.63510000  0.75070000  1.0 -0.5184296602
O  O29  1  0.68280000  0.63510000  0.74930000  1.0 -0.5184296602
O  O30  1  0.81720000  0.13510000  0.75070000  1.0 -0.5184296602
O  O31  1  0.68280000  0.86490000  0.25070000  1.0 -0.5184296602
O  O32  1  0.81720000  0.36490000  0.24930000  1.0 -0.5184296602
O  O33  1  0.14610000  0.13130000  0.13750000  1.0 -0.5370768107
O  O34  1  0.35390000  0.63130000  0.36250000  1.0 -0.5370768107
O  O35  1  0.14610000  0.36870000  0.86250000  1.0 -0.5370768107
O  O36  1  0.35390000  0.86870000  0.63750000  1.0 -0.5370768107
O  O37  1  0.85390000  0.86870000  0.86250000  1.0 -0.5370768107
O  O38  1  0.64610000  0.36870000  0.63750000  1.0 -0.5370768107
O  O39  1  0.85390000  0.63130000  0.13750000  1.0 -0.5370768107
O  O40  1  0.64610000  0.13130000  0.36250000  1.0 -0.5370768107
O  O41  1  0.17320000  0.03120000  0.19360000  1.0 -0.5554449518
O  O42  1  0.32680000  0.53120000  0.30640000  1.0 -0.5543374627
O  O43  1  0.17320000  0.46880000  0.80640000  1.0 -0.5543374627
O  O44  1  0.32680000  0.96880000  0.69360000  1.0 -0.5554449518
O  O45  1  0.82680000  0.96880000  0.80640000  1.0 -0.5543374627
O  O46  1  0.67320000  0.46880000  0.69360000  1.0 -0.5554449518
O  O47  1  0.82680000  0.53120000  0.19360000  1.0 -0.5554449518
O  O48  1  0.67320000  0.03120000  0.30640000  1.0 -0.5543374627
O  O49  1  0.05900000  0.48610000  0.10830000  1.0 -0.5184296602
O  O50  1  0.44100000  0.98610000  0.39170000  1.0 -0.5184296602
O  O51  1  0.05900000  0.01390000  0.89170000  1.0 -0.5184296602
O  O52  1  0.44100000  0.51390000  0.60830000  1.0 -0.5184296602
O  O53  1  0.94100000  0.51390000  0.89170000  1.0 -0.5184296602
O  O54  1  0.55900000  0.01390000  0.60830000  1.0 -0.5184296602
O  O55  1  0.94100000  0.98610000  0.10830000  1.0 -0.5184296602
O  O56  1  0.55900000  0.48610000  0.39170000  1.0 -0.5184296602
O  O57  1  0.97280000  0.43570000  0.16760000  1.0 -0.5370768107
O  O58  1  0.52720000  0.93570000  0.33240000  1.0 -0.5370768107
O  O59  1  0.97280000  0.06430000  0.83240000  1.0 -0.5370768107
O  O60  1  0.52720000  0.56430000  0.66760000  1.0 -0.5370768107
O  O61  1  0.02720000  0.56430000  0.83240000  1.0 -0.5370768107
O  O62  1  0.47280000  0.06430000  0.66760000  1.0 -0.5370768107
O  O63  1  0.02720000  0.93570000  0.16760000  1.0 -0.5370768107
O  O64  1  0.47280000  0.43570000  0.33240000  1.0 -0.5370768107
O  O65  1  0.58380000  0.04900000  0.48130000  1.0 -0.6586322769
O  O66  1  0.91620000  0.54900000  0.01870000  1.0 -0.6586322769
O  O67  1  0.58380000  0.45100000  0.51870000  1.0 -0.6586322769
O  O68  1  0.91620000  0.95100000  0.98130000  1.0 -0.6586322769
O  O69  1  0.41620000  0.95100000  0.51870000  1.0 -0.6586322769
O  O70  1  0.08380000  0.45100000  0.98130000  1.0 -0.6586322769
O  O71  1  0.41620000  0.54900000  0.48130000  1.0 -0.6586322769
O  O72  1  0.08380000  0.04900000  0.01870000  1.0 -0.6586322769
