# DDEC6 charges by PACMAN v1.1 (https://github.com/mtap-research/PACMAN-charge/)
data_AJABAR_FSR_pacman
_symmetry_space_group_name_H-M   'P 1'
_cell_length_a   13.34820000
_cell_length_b   18.60330000
_cell_length_c   15.75320000
_cell_angle_alpha   90.00000000
_cell_angle_beta   96.68900000
_cell_angle_gamma   90.00000000
_symmetry_Int_Tables_number   1
_chemical_formula_structural   ZnH10C16S(N3O2)2
_chemical_formula_sum   'Zn8 H80 C128 S8 N48 O32'
_cell_volume   3885.21578816
_cell_formula_units_Z   8
loop_
 _symmetry_equiv_pos_site_id
 _symmetry_equiv_pos_as_xyz
  1  'x, y, z'
loop_
 _atom_site_type_symbol
 _atom_site_label
 _atom_site_symmetry_multiplicity
 _atom_site_fract_x
 _atom_site_fract_y
 _atom_site_fract_z
 _atom_site_occupancy
 _atom_site_charge
Zn  Zn1  1  0.12058000  0.56006000  0.85665000  1.0 0.823606086
Zn  Zn2  1  0.14483000  0.06198000  0.14872000  1.0 0.823606086
Zn  Zn3  1  0.12058000  0.93994000  0.35665000  1.0 0.823606086
Zn  Zn4  1  0.14483000  0.43802000  0.64872000  1.0 0.823606086
Zn  Zn5  1  0.87942000  0.06006000  0.64335000  1.0 0.823606086
Zn  Zn6  1  0.85517000  0.56198000  0.35128000  1.0 0.823606086
Zn  Zn7  1  0.87942000  0.43994000  0.14335000  1.0 0.823606086
Zn  Zn8  1  0.85517000  0.93802000  0.85128000  1.0 0.823606086
H  H1  1  0.97620000  0.15100000  0.21940000  1.0 0.121796059
H  H2  1  0.10940000  0.66170000  0.12480000  1.0 0.1284498712
H  H3  1  0.95080000  0.47230000  0.92250000  1.0 0.121796059
H  H4  1  0.95900000  0.97870000  0.07250000  1.0 0.121796059
H  H5  1  0.80440000  0.15140000  0.22060000  1.0 0.1284498712
H  H6  1  0.93130000  0.64420000  0.77540000  1.0 0.121796059
H  H7  1  0.10290000  0.76610000  0.22200000  1.0 0.1423952962
H  H8  1  0.77830000  0.46730000  0.92080000  1.0 0.1284498712
H  H9  1  0.75790000  0.64550000  0.77090000  1.0 0.121796059
H  H10  1  0.14700000  0.16130000  0.87460000  1.0 0.1284498712
H  H11  1  0.27760000  0.65300000  0.78100000  1.0 0.121796059
H  H12  1  0.78660000  0.97410000  0.07140000  1.0 0.1284498712
H  H13  1  0.15370000  0.26740000  0.78110000  1.0 0.1500301308
H  H14  1  0.31760000  0.47930000  0.92020000  1.0 0.1006872654
H  H15  1  0.32010000  0.97950000  0.08140000  1.0 0.1006872654
H  H16  1  0.33210000  0.14340000  0.23790000  1.0 0.121796059
H  H17  1  0.48010000  0.47750000  0.90850000  1.0 0.121796059
H  H18  1  0.49040000  0.97590000  0.08890000  1.0 0.1149746301
H  H19  1  0.44780000  0.66210000  0.76640000  1.0 0.1284498712
H  H20  1  0.50270000  0.14640000  0.25280000  1.0 0.121796059
H  H21  1  0.97620000  0.34900000  0.71940000  1.0 0.121796059
H  H22  1  0.10940000  0.83830000  0.62480000  1.0 0.1284498712
H  H23  1  0.95080000  0.02770000  0.42250000  1.0 0.121796059
H  H24  1  0.95900000  0.52130000  0.57250000  1.0 0.121796059
H  H25  1  0.80440000  0.34860000  0.72060000  1.0 0.1284498712
H  H26  1  0.93130000  0.85580000  0.27540000  1.0 0.121796059
H  H27  1  0.10290000  0.73390000  0.72200000  1.0 0.1423952962
H  H28  1  0.77830000  0.03270000  0.42080000  1.0 0.1284498712
H  H29  1  0.75790000  0.85450000  0.27090000  1.0 0.121796059
H  H30  1  0.14700000  0.33870000  0.37460000  1.0 0.1284498712
H  H31  1  0.27760000  0.84700000  0.28100000  1.0 0.121796059
H  H32  1  0.78660000  0.52590000  0.57140000  1.0 0.1284498712
H  H33  1  0.15370000  0.23260000  0.28110000  1.0 0.1500301308
H  H34  1  0.31760000  0.02070000  0.42020000  1.0 0.1006872654
H  H35  1  0.32010000  0.52050000  0.58140000  1.0 0.1006872654
H  H36  1  0.33210000  0.35660000  0.73790000  1.0 0.121796059
H  H37  1  0.48010000  0.02250000  0.40850000  1.0 0.121796059
H  H38  1  0.49040000  0.52410000  0.58890000  1.0 0.1149746301
H  H39  1  0.44780000  0.83790000  0.26640000  1.0 0.1284498712
H  H40  1  0.50270000  0.35360000  0.75280000  1.0 0.121796059
H  H41  1  0.02380000  0.65100000  0.28060000  1.0 0.121796059
H  H42  1  0.89060000  0.16170000  0.37520000  1.0 0.1284498712
H  H43  1  0.04920000  0.97230000  0.57750000  1.0 0.121796059
H  H44  1  0.04100000  0.47870000  0.42750000  1.0 0.121796059
H  H45  1  0.19560000  0.65140000  0.27940000  1.0 0.1284498712
H  H46  1  0.06870000  0.14420000  0.72460000  1.0 0.121796059
H  H47  1  0.89710000  0.26610000  0.27800000  1.0 0.1423952962
H  H48  1  0.22170000  0.96730000  0.57920000  1.0 0.1284498712
H  H49  1  0.24210000  0.14550000  0.72910000  1.0 0.121796059
H  H50  1  0.85300000  0.66130000  0.62540000  1.0 0.1284498712
H  H51  1  0.72240000  0.15300000  0.71900000  1.0 0.121796059
H  H52  1  0.21340000  0.47410000  0.42860000  1.0 0.1284498712
H  H53  1  0.84630000  0.76740000  0.71890000  1.0 0.1500301308
H  H54  1  0.68240000  0.97930000  0.57980000  1.0 0.1006872654
H  H55  1  0.67990000  0.47950000  0.41860000  1.0 0.1006872654
H  H56  1  0.66790000  0.64340000  0.26210000  1.0 0.121796059
H  H57  1  0.51990000  0.97750000  0.59150000  1.0 0.121796059
H  H58  1  0.50960000  0.47590000  0.41110000  1.0 0.1149746301
H  H59  1  0.55220000  0.16210000  0.73360000  1.0 0.1284498712
H  H60  1  0.49730000  0.64640000  0.24720000  1.0 0.121796059
H  H61  1  0.02380000  0.84900000  0.78060000  1.0 0.121796059
H  H62  1  0.89060000  0.33830000  0.87520000  1.0 0.1284498712
H  H63  1  0.04920000  0.52770000  0.07750000  1.0 0.121796059
H  H64  1  0.04100000  0.02130000  0.92750000  1.0 0.121796059
H  H65  1  0.19560000  0.84860000  0.77940000  1.0 0.1284498712
H  H66  1  0.06870000  0.35580000  0.22460000  1.0 0.121796059
H  H67  1  0.89710000  0.23390000  0.77800000  1.0 0.1423952962
H  H68  1  0.22170000  0.53270000  0.07920000  1.0 0.1284498712
H  H69  1  0.24210000  0.35450000  0.22910000  1.0 0.121796059
H  H70  1  0.85300000  0.83870000  0.12540000  1.0 0.1284498712
H  H71  1  0.72240000  0.34700000  0.21900000  1.0 0.121796059
H  H72  1  0.21340000  0.02590000  0.92860000  1.0 0.1284498712
H  H73  1  0.84630000  0.73260000  0.21890000  1.0 0.1500301308
H  H74  1  0.68240000  0.52070000  0.07980000  1.0 0.1006872654
H  H75  1  0.67990000  0.02050000  0.91860000  1.0 0.1006872654
H  H76  1  0.66790000  0.85660000  0.76210000  1.0 0.121796059
H  H77  1  0.51990000  0.52250000  0.09150000  1.0 0.121796059
H  H78  1  0.50960000  0.02410000  0.91110000  1.0 0.1149746301
H  H79  1  0.55220000  0.33790000  0.23360000  1.0 0.1284498712
H  H80  1  0.49730000  0.85360000  0.74720000  1.0 0.121796059
C  C1  1  0.93700000  0.11420000  0.18990000  1.0 0.0796142908
C  C2  1  0.14380000  0.22670000  0.97710000  1.0 -0.0830715028
C  C3  1  0.12360000  0.90760000  0.15830000  1.0 0.5810591998
C  C4  1  0.14490000  0.40730000  0.85000000  1.0 0.5810591998
C  C5  1  0.11540000  0.71030000  0.10730000  1.0 -0.1353230951
C  C6  1  0.91070000  0.50740000  0.89080000  1.0 0.0882392312
C  C7  1  0.92710000  0.01350000  0.10430000  1.0 0.1006872654
C  C8  1  0.83520000  0.11450000  0.19100000  1.0 -0.2609179063
C  C9  1  0.14680000  0.33320000  0.88480000  1.0 -0.1209010274
C  C10  1  0.89920000  0.60800000  0.80510000  1.0 0.0741095851
C  C11  1  0.13150000  0.68180000  0.95050000  1.0 0.5614570351
C  C12  1  0.11220000  0.77000000  0.16330000  1.0 -0.1209010274
C  C13  1  0.80820000  0.50420000  0.89060000  1.0 -0.2609179063
C  C14  1  0.79640000  0.60920000  0.80210000  1.0 -0.2702291263
C  C15  1  0.74880000  0.55610000  0.84550000  1.0 0.1284498712
C  C16  1  0.12400000  0.83370000  0.12250000  1.0 -0.1110062543
C  C17  1  0.77540000  0.06040000  0.14850000  1.0 0.1284498712
C  C18  1  0.14280000  0.17700000  0.05200000  1.0 0.5476161959
C  C19  1  0.14690000  0.20940000  0.89470000  1.0 -0.1209010274
C  C20  1  0.32220000  0.61780000  0.80770000  1.0 0.1006872654
C  C21  1  0.82420000  0.01050000  0.10320000  1.0 -0.2609179063
C  C22  1  0.14990000  0.27020000  0.84090000  1.0 -0.1110062543
C  C23  1  0.34470000  0.51640000  0.88830000  1.0 0.0796142908
C  C24  1  0.35860000  0.01320000  0.11700000  1.0 0.0796142908
C  C25  1  0.49260000  0.56740000  0.84290000  1.0 0.16698159
C  C26  1  0.36670000  0.10850000  0.20830000  1.0 0.0882392312
C  C27  1  0.44190000  0.51640000  0.88260000  1.0 -0.2702291263
C  C28  1  0.46060000  0.01200000  0.12050000  1.0 -0.3010897217
C  C29  1  0.42300000  0.62430000  0.79860000  1.0 -0.2609179063
C  C30  1  0.52460000  0.06060000  0.16750000  1.0 0.1500301308
C  C31  1  0.46780000  0.11170000  0.21630000  1.0 -0.2609179063
C  C32  1  0.12800000  0.72970000  0.02700000  1.0 -0.0882874401
C  C33  1  0.93700000  0.38580000  0.68990000  1.0 0.0796142908
C  C34  1  0.14380000  0.27330000  0.47710000  1.0 -0.0830715028
C  C35  1  0.12360000  0.59240000  0.65830000  1.0 0.5810591998
C  C36  1  0.14490000  0.09270000  0.35000000  1.0 0.5810591998
C  C37  1  0.11540000  0.78970000  0.60730000  1.0 -0.1353230951
C  C38  1  0.91070000  0.99260000  0.39080000  1.0 0.0882392312
C  C39  1  0.92710000  0.48650000  0.60430000  1.0 0.1006872654
C  C40  1  0.83520000  0.38550000  0.69100000  1.0 -0.2609179063
C  C41  1  0.14680000  0.16680000  0.38480000  1.0 -0.1209010274
C  C42  1  0.89920000  0.89200000  0.30510000  1.0 0.0741095851
C  C43  1  0.13150000  0.81820000  0.45050000  1.0 0.5614570351
C  C44  1  0.11220000  0.73000000  0.66330000  1.0 -0.1209010274
C  C45  1  0.80820000  0.99580000  0.39060000  1.0 -0.2609179063
C  C46  1  0.79640000  0.89080000  0.30210000  1.0 -0.2702291263
C  C47  1  0.74880000  0.94390000  0.34550000  1.0 0.1284498712
C  C48  1  0.12400000  0.66630000  0.62250000  1.0 -0.1110062543
C  C49  1  0.77540000  0.43960000  0.64850000  1.0 0.1284498712
C  C50  1  0.14280000  0.32300000  0.55200000  1.0 0.5476161959
C  C51  1  0.14690000  0.29060000  0.39470000  1.0 -0.1209010274
C  C52  1  0.32220000  0.88220000  0.30770000  1.0 0.1006872654
C  C53  1  0.82420000  0.48950000  0.60320000  1.0 -0.2609179063
C  C54  1  0.14990000  0.22980000  0.34090000  1.0 -0.1110062543
C  C55  1  0.34470000  0.98360000  0.38830000  1.0 0.0796142908
C  C56  1  0.35860000  0.48680000  0.61700000  1.0 0.0796142908
C  C57  1  0.49260000  0.93260000  0.34290000  1.0 0.16698159
C  C58  1  0.36670000  0.39150000  0.70830000  1.0 0.0882392312
C  C59  1  0.44190000  0.98360000  0.38260000  1.0 -0.2702291263
C  C60  1  0.46060000  0.48800000  0.62050000  1.0 -0.3010897217
C  C61  1  0.42300000  0.87570000  0.29860000  1.0 -0.2609179063
C  C62  1  0.52460000  0.43940000  0.66750000  1.0 0.1500301308
C  C63  1  0.46780000  0.38830000  0.71630000  1.0 -0.2609179063
C  C64  1  0.12800000  0.77030000  0.52700000  1.0 -0.0882874401
C  C65  1  0.06300000  0.61420000  0.31010000  1.0 0.0796142908
C  C66  1  0.85620000  0.72670000  0.52290000  1.0 -0.0830715028
C  C67  1  0.87640000  0.40760000  0.34170000  1.0 0.5810591998
C  C68  1  0.85510000  0.90730000  0.65000000  1.0 0.5810591998
C  C69  1  0.88460000  0.21030000  0.39270000  1.0 -0.1353230951
C  C70  1  0.08930000  0.00740000  0.60920000  1.0 0.0882392312
C  C71  1  0.07290000  0.51350000  0.39570000  1.0 0.1006872654
C  C72  1  0.16480000  0.61450000  0.30900000  1.0 -0.2609179063
C  C73  1  0.85320000  0.83320000  0.61520000  1.0 -0.1209010274
C  C74  1  0.10080000  0.10800000  0.69490000  1.0 0.0741095851
C  C75  1  0.86850000  0.18180000  0.54950000  1.0 0.5614570351
C  C76  1  0.88780000  0.27000000  0.33670000  1.0 -0.1209010274
C  C77  1  0.19180000  0.00420000  0.60940000  1.0 -0.2609179063
C  C78  1  0.20360000  0.10920000  0.69790000  1.0 -0.2702291263
C  C79  1  0.25120000  0.05610000  0.65450000  1.0 0.1284498712
C  C80  1  0.87600000  0.33370000  0.37750000  1.0 -0.1110062543
C  C81  1  0.22460000  0.56040000  0.35150000  1.0 0.1284498712
C  C82  1  0.85720000  0.67700000  0.44800000  1.0 0.5476161959
C  C83  1  0.85310000  0.70940000  0.60530000  1.0 -0.1209010274
C  C84  1  0.67780000  0.11780000  0.69230000  1.0 0.1006872654
C  C85  1  0.17580000  0.51050000  0.39680000  1.0 -0.2609179063
C  C86  1  0.85010000  0.77020000  0.65910000  1.0 -0.1110062543
C  C87  1  0.65530000  0.01640000  0.61170000  1.0 0.0796142908
C  C88  1  0.64140000  0.51320000  0.38300000  1.0 0.0796142908
C  C89  1  0.50740000  0.06740000  0.65710000  1.0 0.16698159
C  C90  1  0.63330000  0.60850000  0.29170000  1.0 0.0882392312
C  C91  1  0.55810000  0.01640000  0.61740000  1.0 -0.2702291263
C  C92  1  0.53940000  0.51200000  0.37950000  1.0 -0.3010897217
C  C93  1  0.57700000  0.12430000  0.70140000  1.0 -0.2609179063
C  C94  1  0.47540000  0.56060000  0.33250000  1.0 0.1500301308
C  C95  1  0.53220000  0.61170000  0.28370000  1.0 -0.2609179063
C  C96  1  0.87200000  0.22970000  0.47300000  1.0 -0.0882874401
C  C97  1  0.06300000  0.88580000  0.81010000  1.0 0.0796142908
C  C98  1  0.85620000  0.77330000  0.02290000  1.0 -0.0830715028
C  C99  1  0.87640000  0.09240000  0.84170000  1.0 0.5810591998
C  C100  1  0.85510000  0.59270000  0.15000000  1.0 0.5810591998
C  C101  1  0.88460000  0.28970000  0.89270000  1.0 -0.1353230951
C  C102  1  0.08930000  0.49260000  0.10920000  1.0 0.0882392312
C  C103  1  0.07290000  0.98650000  0.89570000  1.0 0.1006872654
C  C104  1  0.16480000  0.88550000  0.80900000  1.0 -0.2609179063
C  C105  1  0.85320000  0.66680000  0.11520000  1.0 -0.1209010274
C  C106  1  0.10080000  0.39200000  0.19490000  1.0 0.0741095851
C  C107  1  0.86850000  0.31820000  0.04950000  1.0 0.5614570351
C  C108  1  0.88780000  0.23000000  0.83670000  1.0 -0.1209010274
C  C109  1  0.19180000  0.49580000  0.10940000  1.0 -0.2609179063
C  C110  1  0.20360000  0.39080000  0.19790000  1.0 -0.2702291263
C  C111  1  0.25120000  0.44390000  0.15450000  1.0 0.1284498712
C  C112  1  0.87600000  0.16630000  0.87750000  1.0 -0.1110062543
C  C113  1  0.22460000  0.93960000  0.85150000  1.0 0.1284498712
C  C114  1  0.85720000  0.82300000  0.94800000  1.0 0.5476161959
C  C115  1  0.85310000  0.79060000  0.10530000  1.0 -0.1209010274
C  C116  1  0.67780000  0.38220000  0.19230000  1.0 0.1006872654
C  C117  1  0.17580000  0.98950000  0.89680000  1.0 -0.2609179063
C  C118  1  0.85010000  0.72980000  0.15910000  1.0 -0.1110062543
C  C119  1  0.65530000  0.48360000  0.11170000  1.0 0.0796142908
C  C120  1  0.64140000  0.98680000  0.88300000  1.0 0.0796142908
C  C121  1  0.50740000  0.43260000  0.15710000  1.0 0.16698159
C  C122  1  0.63330000  0.89150000  0.79170000  1.0 0.0882392312
C  C123  1  0.55810000  0.48360000  0.11740000  1.0 -0.2702291263
C  C124  1  0.53940000  0.98800000  0.87950000  1.0 -0.3010897217
C  C125  1  0.57700000  0.37570000  0.20140000  1.0 -0.2609179063
C  C126  1  0.47540000  0.93940000  0.83250000  1.0 0.1500301308
C  C127  1  0.53220000  0.88830000  0.78370000  1.0 -0.2609179063
C  C128  1  0.87200000  0.27030000  0.97300000  1.0 -0.0882874401
S  S1  1  0.13834000  0.31872000  0.99129000  1.0 0.1423952962
S  S2  1  0.13696000  0.82098000  0.01582000  1.0 0.1500301308
S  S3  1  0.13834000  0.18128000  0.49129000  1.0 0.1423952962
S  S4  1  0.13696000  0.67902000  0.51582000  1.0 0.1500301308
S  S5  1  0.86166000  0.81872000  0.50871000  1.0 0.1423952962
S  S6  1  0.86304000  0.32098000  0.48418000  1.0 0.1500301308
S  S7  1  0.86166000  0.68128000  0.00871000  1.0 0.1423952962
S  S8  1  0.86304000  0.17902000  0.98418000  1.0 0.1500301308
N  N1  1  0.95710000  0.55720000  0.84880000  1.0 -0.2393542723
N  N2  1  0.98410000  0.06280000  0.14780000  1.0 -0.2393542723
N  N3  1  0.28250000  0.56580000  0.85150000  1.0 -0.2310019629
N  N4  1  0.31110000  0.05940000  0.16150000  1.0 -0.2310019629
N  N5  1  0.60010000  0.54020000  0.87180000  1.0 0.0191172476
N  N6  1  0.64400000  0.57730000  0.82450000  1.0 0.0796142908
N  N7  1  0.67180000  0.04590000  0.13700000  1.0 0.0796142908
N  N8  1  0.62540000  0.08300000  0.18700000  1.0 -0.0309876641
N  N9  1  0.67850000  0.07800000  0.16650000  1.0 0.0741095851
N  N10  1  0.62480000  0.02950000  0.13700000  1.0 0.0075760663
N  N11  1  0.58750000  0.58700000  0.81460000  1.0 -0.0205171192
N  N12  1  0.64770000  0.54300000  0.85740000  1.0 0.0615079487
N  N13  1  0.95710000  0.94280000  0.34880000  1.0 -0.2393542723
N  N14  1  0.98410000  0.43720000  0.64780000  1.0 -0.2393542723
N  N15  1  0.28250000  0.93420000  0.35150000  1.0 -0.2310019629
N  N16  1  0.31110000  0.44060000  0.66150000  1.0 -0.2310019629
N  N17  1  0.60010000  0.95980000  0.37180000  1.0 0.0191172476
N  N18  1  0.64400000  0.92270000  0.32450000  1.0 0.0796142908
N  N19  1  0.67180000  0.45410000  0.63700000  1.0 0.0796142908
N  N20  1  0.62540000  0.41700000  0.68700000  1.0 -0.0309876641
N  N21  1  0.67850000  0.42200000  0.66650000  1.0 0.0741095851
N  N22  1  0.62480000  0.47050000  0.63700000  1.0 0.0075760663
N  N23  1  0.58750000  0.91300000  0.31460000  1.0 -0.0205171192
N  N24  1  0.64770000  0.95700000  0.35740000  1.0 0.0615079487
N  N25  1  0.04290000  0.05720000  0.65120000  1.0 -0.2393542723
N  N26  1  0.01590000  0.56280000  0.35220000  1.0 -0.2393542723
N  N27  1  0.71750000  0.06580000  0.64850000  1.0 -0.2310019629
N  N28  1  0.68890000  0.55940000  0.33850000  1.0 -0.2310019629
N  N29  1  0.39990000  0.04020000  0.62820000  1.0 0.0191172476
N  N30  1  0.35600000  0.07730000  0.67550000  1.0 0.0796142908
N  N31  1  0.32820000  0.54590000  0.36300000  1.0 0.0796142908
N  N32  1  0.37460000  0.58300000  0.31300000  1.0 -0.0309876641
N  N33  1  0.32150000  0.57800000  0.33350000  1.0 0.0741095851
N  N34  1  0.37520000  0.52950000  0.36300000  1.0 0.0075760663
N  N35  1  0.41250000  0.08700000  0.68540000  1.0 -0.0205171192
N  N36  1  0.35230000  0.04300000  0.64260000  1.0 0.0615079487
N  N37  1  0.04290000  0.44280000  0.15120000  1.0 -0.2393542723
N  N38  1  0.01590000  0.93720000  0.85220000  1.0 -0.2393542723
N  N39  1  0.71750000  0.43420000  0.14850000  1.0 -0.2310019629
N  N40  1  0.68890000  0.94060000  0.83850000  1.0 -0.2310019629
N  N41  1  0.39990000  0.45980000  0.12820000  1.0 0.0191172476
N  N42  1  0.35600000  0.42270000  0.17550000  1.0 0.0796142908
N  N43  1  0.32820000  0.95410000  0.86300000  1.0 0.0796142908
N  N44  1  0.37460000  0.91700000  0.81300000  1.0 -0.0309876641
N  N45  1  0.32150000  0.92200000  0.83350000  1.0 0.0741095851
N  N46  1  0.37520000  0.97050000  0.86300000  1.0 0.0075760663
N  N47  1  0.41250000  0.41300000  0.18540000  1.0 -0.0205171192
N  N48  1  0.35230000  0.45700000  0.14260000  1.0 0.0615079487
O  O1  1  0.09880000  0.91250000  0.23130000  1.0 -0.5299563048
O  O2  1  0.12850000  0.45701000  0.89870000  1.0 -0.5299563048
O  O3  1  0.14560000  0.95806000  0.11200000  1.0 -0.5299563048
O  O4  1  0.16320000  0.41360000  0.77380000  1.0 -0.548473495
O  O5  1  0.12760000  0.61550000  0.96590000  1.0 -0.5299563048
O  O6  1  0.14210000  0.20040000  0.12430000  1.0 -0.5223582564
O  O7  1  0.14250000  0.11160000  0.03350000  1.0 -0.5223582564
O  O8  1  0.13690000  0.70780000  0.87940000  1.0 -0.5299563048
O  O9  1  0.09880000  0.58750000  0.73130000  1.0 -0.5299563048
O  O10  1  0.12850000  0.04299000  0.39870000  1.0 -0.5299563048
O  O11  1  0.14560000  0.54194000  0.61200000  1.0 -0.5299563048
O  O12  1  0.16320000  0.08640000  0.27380000  1.0 -0.548473495
O  O13  1  0.12760000  0.88450000  0.46590000  1.0 -0.5299563048
O  O14  1  0.14210000  0.29960000  0.62430000  1.0 -0.5223582564
O  O15  1  0.14250000  0.38840000  0.53350000  1.0 -0.5223582564
O  O16  1  0.13690000  0.79220000  0.37940000  1.0 -0.5299563048
O  O17  1  0.90120000  0.41250000  0.26870000  1.0 -0.5299563048
O  O18  1  0.87150000  0.95701000  0.60130000  1.0 -0.5299563048
O  O19  1  0.85440000  0.45806000  0.38800000  1.0 -0.5299563048
O  O20  1  0.83680000  0.91360000  0.72620000  1.0 -0.548473495
O  O21  1  0.87240000  0.11550000  0.53410000  1.0 -0.5299563048
O  O22  1  0.85790000  0.70040000  0.37570000  1.0 -0.5223582564
O  O23  1  0.85750000  0.61160000  0.46650000  1.0 -0.5223582564
O  O24  1  0.86310000  0.20780000  0.62060000  1.0 -0.5299563048
O  O25  1  0.90120000  0.08750000  0.76870000  1.0 -0.5299563048
O  O26  1  0.87150000  0.54299000  0.10130000  1.0 -0.5299563048
O  O27  1  0.85440000  0.04194000  0.88800000  1.0 -0.5299563048
O  O28  1  0.83680000  0.58640000  0.22620000  1.0 -0.548473495
O  O29  1  0.87240000  0.38450000  0.03410000  1.0 -0.5299563048
O  O30  1  0.85790000  0.79960000  0.87570000  1.0 -0.5223582564
O  O31  1  0.85750000  0.88840000  0.96650000  1.0 -0.5223582564
O  O32  1  0.86310000  0.29220000  0.12060000  1.0 -0.5299563048
