# DDEC6 charges by PACMAN v1.1 (https://github.com/mtap-research/PACMAN-charge/)
data_AJIGIL_FSR_pacman
_symmetry_space_group_name_H-M   'P 1'
_cell_length_a   15.37450000
_cell_length_b   23.40230000
_cell_length_c   25.34430000
_cell_angle_alpha   90.00000000
_cell_angle_beta   90.00000000
_cell_angle_gamma   90.00000000
_symmetry_Int_Tables_number   1
_chemical_formula_structural   Na2CoPH95C62BrN16O19
_chemical_formula_sum   'Na8 Co4 P4 H380 C248 Br4 N64 O76'
_cell_volume   9118.84521285
_cell_formula_units_Z   4
loop_
 _symmetry_equiv_pos_site_id
 _symmetry_equiv_pos_as_xyz
  1  'x, y, z'
loop_
 _atom_site_type_symbol
 _atom_site_label
 _atom_site_symmetry_multiplicity
 _atom_site_fract_x
 _atom_site_fract_y
 _atom_site_fract_z
 _atom_site_occupancy
 _atom_site_charge
Na  Na1  1  0.27044000  0.75784000  0.83861000  1.0 0.8428030221
Na  Na2  1  0.22956000  0.24216000  0.33861000  1.0 0.8428030221
Na  Na3  1  0.77044000  0.74216000  0.16139000  1.0 0.8428030221
Na  Na4  1  0.72956000  0.25784000  0.66139000  1.0 0.8428030221
Na  Na5  1  0.21220000  0.14309000  0.56683000  1.0 0.8255560754
Na  Na6  1  0.28780000  0.85691000  0.06683000  1.0 0.8255560754
Na  Na7  1  0.71220000  0.35691000  0.43317000  1.0 0.8255560754
Na  Na8  1  0.78780000  0.64309000  0.93317000  1.0 0.8255560754
Co  Co1  1  0.25556000  0.42933000  0.73348000  1.0 0.4984538613
Co  Co2  1  0.24444000  0.57067000  0.23348000  1.0 0.4984538613
Co  Co3  1  0.75556000  0.07067000  0.26652000  1.0 0.4984538613
Co  Co4  1  0.74444000  0.92933000  0.76652000  1.0 0.4984538613
P  P1  1  0.54432000  0.25021000  0.47375000  1.0 1.3756594864
P  P2  1  0.95568000  0.74979000  0.97375000  1.0 1.3756594864
P  P3  1  0.04432000  0.24979000  0.52625000  1.0 1.3756594864
P  P4  1  0.45568000  0.75021000  0.02625000  1.0 1.3756594864
H  H1  1  0.22440000  0.63630000  0.76200000  1.0 0.0987782413
H  H2  1  0.27560000  0.36370000  0.26200000  1.0 0.0987782413
H  H3  1  0.72440000  0.86370000  0.23800000  1.0 0.0987782413
H  H4  1  0.77560000  0.13630000  0.73800000  1.0 0.0987782413
H  H5  1  0.14490000  0.59450000  0.66666667  1.0 0.0914602422
H  H6  1  0.35510000  0.40550000  0.16667000  1.0 0.0914602422
H  H7  1  0.64490000  0.90550000  0.33333333  1.0 0.0914602422
H  H8  1  0.85510000  0.09450000  0.83333000  1.0 0.0914602422
H  H9  1  0.14430000  0.65930000  0.68650000  1.0 0.0914602422
H  H10  1  0.35570000  0.34070000  0.18650000  1.0 0.0914602422
H  H11  1  0.64430000  0.84070000  0.31350000  1.0 0.0914602422
H  H12  1  0.85570000  0.15930000  0.81350000  1.0 0.0914602422
H  H13  1  0.56550000  0.42850000  0.78760000  1.0 0.0987782413
H  H14  1  0.93450000  0.57150000  0.28760000  1.0 0.0987782413
H  H15  1  0.06550000  0.07150000  0.21240000  1.0 0.0987782413
H  H16  1  0.43450000  0.92850000  0.71240000  1.0 0.0987782413
H  H17  1  0.61370000  0.53980000  0.78930000  1.0 0.1210374694
H  H18  1  0.88630000  0.46020000  0.28930000  1.0 0.1210374694
H  H19  1  0.11370000  0.96020000  0.21070000  1.0 0.1210374694
H  H20  1  0.38630000  0.03980000  0.71070000  1.0 0.1210374694
H  H21  1  0.53790000  0.58550000  0.79890000  1.0 0.1306827111
H  H22  1  0.96210000  0.41450000  0.29890000  1.0 0.1306827111
H  H23  1  0.03790000  0.91450000  0.20110000  1.0 0.1306827111
H  H24  1  0.46210000  0.08550000  0.70110000  1.0 0.1306827111
H  H25  1  0.55900000  0.56390000  0.74040000  1.0 0.1210374694
H  H26  1  0.94100000  0.43610000  0.24040000  1.0 0.1210374694
H  H27  1  0.05900000  0.93610000  0.25960000  1.0 0.1210374694
H  H28  1  0.44100000  0.06390000  0.75960000  1.0 0.1210374694
H  H29  1  0.53110000  0.49020000  0.86230000  1.0 0.1306827111
H  H30  1  0.96890000  0.50980000  0.36230000  1.0 0.1306827111
H  H31  1  0.03110000  0.00980000  0.13770000  1.0 0.1306827111
H  H32  1  0.46890000  0.99020000  0.63770000  1.0 0.1306827111
H  H33  1  0.43830000  0.46220000  0.85020000  1.0 0.1387910606
H  H34  1  0.06170000  0.53780000  0.35020000  1.0 0.1387910606
H  H35  1  0.93830000  0.03780000  0.14980000  1.0 0.1387910606
H  H36  1  0.56170000  0.96220000  0.64980000  1.0 0.1387910606
H  H37  1  0.44630000  0.52970000  0.85900000  1.0 0.1306827111
H  H38  1  0.05370000  0.47030000  0.35900000  1.0 0.1306827111
H  H39  1  0.94630000  0.97030000  0.14100000  1.0 0.1306827111
H  H40  1  0.55370000  0.02970000  0.64100000  1.0 0.1306827111
H  H41  1  0.08670000  0.55210000  0.84610000  1.0 0.1210374694
H  H42  1  0.41330000  0.44790000  0.34610000  1.0 0.1210374694
H  H43  1  0.58670000  0.94790000  0.15390000  1.0 0.1210374694
H  H44  1  0.91330000  0.05210000  0.65390000  1.0 0.1210374694
H  H45  1  0.18910000  0.55900000  0.83690000  1.0 0.1387910606
H  H46  1  0.31090000  0.44100000  0.33690000  1.0 0.1387910606
H  H47  1  0.68910000  0.94100000  0.16310000  1.0 0.1387910606
H  H48  1  0.81090000  0.05900000  0.66310000  1.0 0.1387910606
H  H49  1  0.01620000  0.60520000  0.71870000  1.0 0.1210374694
H  H50  1  0.48380000  0.39480000  0.21870000  1.0 0.1210374694
H  H51  1  0.51620000  0.89480000  0.28130000  1.0 0.1210374694
H  H52  1  0.98380000  0.10520000  0.78130000  1.0 0.1210374694
H  H53  1  0.04590000  0.65410000  0.75890000  1.0 0.1306827111
H  H54  1  0.45410000  0.34590000  0.25890000  1.0 0.1306827111
H  H55  1  0.54590000  0.84590000  0.24110000  1.0 0.1306827111
H  H56  1  0.95410000  0.15410000  0.74110000  1.0 0.1306827111
H  H57  1  0.98680000  0.60230000  0.77920000  1.0 0.1210374694
H  H58  1  0.51320000  0.39770000  0.27920000  1.0 0.1210374694
H  H59  1  0.48680000  0.89770000  0.22080000  1.0 0.1210374694
H  H60  1  0.01320000  0.10230000  0.72080000  1.0 0.1210374694
H  H61  1  0.29870000  0.66250000  0.67020000  1.0 0.1100799062
H  H62  1  0.20130000  0.33750000  0.17020000  1.0 0.1100799062
H  H63  1  0.79870000  0.83750000  0.32980000  1.0 0.1100799062
H  H64  1  0.70130000  0.16250000  0.82980000  1.0 0.1100799062
H  H65  1  0.29080000  0.60050000  0.64400000  1.0 0.1210374694
H  H66  1  0.20920000  0.39950000  0.14400000  1.0 0.1210374694
H  H67  1  0.79080000  0.89950000  0.35600000  1.0 0.1210374694
H  H68  1  0.70920000  0.10050000  0.85600000  1.0 0.1210374694
H  H69  1  0.54270000  0.48540000  0.68870000  1.0 0.0987782413
H  H70  1  0.95730000  0.51460000  0.18870000  1.0 0.0987782413
H  H71  1  0.04270000  0.01460000  0.31130000  1.0 0.0987782413
H  H72  1  0.45730000  0.98540000  0.81130000  1.0 0.0987782413
H  H73  1  0.55450000  0.41780000  0.68690000  1.0 0.0987782413
H  H74  1  0.94550000  0.58220000  0.18690000  1.0 0.0987782413
H  H75  1  0.05450000  0.08220000  0.31310000  1.0 0.0987782413
H  H76  1  0.44550000  0.91780000  0.81310000  1.0 0.0987782413
H  H77  1  0.97470000  0.51700000  0.80130000  1.0 0.1210374694
H  H78  1  0.52530000  0.48300000  0.30130000  1.0 0.1210374694
H  H79  1  0.47470000  0.98300000  0.19870000  1.0 0.1210374694
H  H80  1  0.02530000  0.01700000  0.69870000  1.0 0.1210374694
H  H81  1  0.93410000  0.45940000  0.77760000  1.0 0.1210374694
H  H82  1  0.56590000  0.54060000  0.27760000  1.0 0.1210374694
H  H83  1  0.43410000  0.04060000  0.22240000  1.0 0.1210374694
H  H84  1  0.06590000  0.95940000  0.72240000  1.0 0.1210374694
H  H85  1  0.93370000  0.51680000  0.74330000  1.0 0.1210374694
H  H86  1  0.56630000  0.48320000  0.24330000  1.0 0.1210374694
H  H87  1  0.43370000  0.98320000  0.25670000  1.0 0.1210374694
H  H88  1  0.06630000  0.01680000  0.75670000  1.0 0.1210374694
H  H89  1  0.19690000  0.30800000  0.77240000  1.0 0.0798651745
H  H90  1  0.30310000  0.69200000  0.27240000  1.0 0.0798651745
H  H91  1  0.69690000  0.19200000  0.22760000  1.0 0.0798651745
H  H92  1  0.80310000  0.80800000  0.72760000  1.0 0.0798651745
H  H93  1  0.39810000  0.40620000  0.65370000  1.0 0.1210374694
H  H94  1  0.10190000  0.59380000  0.15370000  1.0 0.1210374694
H  H95  1  0.89810000  0.09380000  0.34630000  1.0 0.1210374694
H  H96  1  0.60190000  0.90620000  0.84630000  1.0 0.1210374694
H  H97  1  0.68710000  0.47540000  0.67120000  1.0 0.1210374694
H  H98  1  0.81290000  0.52460000  0.17120000  1.0 0.1210374694
H  H99  1  0.18710000  0.02460000  0.32880000  1.0 0.1210374694
H  H100  1  0.31290000  0.97540000  0.82880000  1.0 0.1210374694
H  H101  1  0.68710000  0.48790000  0.73340000  1.0 0.0914602422
H  H102  1  0.81290000  0.51210000  0.23340000  1.0 0.0914602422
H  H103  1  0.18710000  0.01210000  0.26660000  1.0 0.0914602422
H  H104  1  0.31290000  0.98790000  0.76660000  1.0 0.0914602422
H  H105  1  0.57140000  0.34870000  0.76530000  1.0 0.1210374694
H  H106  1  0.92860000  0.65130000  0.26530000  1.0 0.1210374694
H  H107  1  0.07140000  0.15130000  0.23470000  1.0 0.1210374694
H  H108  1  0.42860000  0.84870000  0.73470000  1.0 0.1210374694
H  H109  1  0.54180000  0.30790000  0.71780000  1.0 0.1387910606
H  H110  1  0.95820000  0.69210000  0.21780000  1.0 0.1387910606
H  H111  1  0.04180000  0.19210000  0.28220000  1.0 0.1387910606
H  H112  1  0.45820000  0.80790000  0.78220000  1.0 0.1387910606
H  H113  1  0.51900000  0.29110000  0.77740000  1.0 0.1306827111
H  H114  1  0.98100000  0.70890000  0.27740000  1.0 0.1306827111
H  H115  1  0.01900000  0.20890000  0.22260000  1.0 0.1306827111
H  H116  1  0.48100000  0.79110000  0.72260000  1.0 0.1306827111
H  H117  1  0.05040000  0.68020000  0.89650000  1.0 0.3410927736
H  H118  1  0.44960000  0.31980000  0.39650000  1.0 0.3410927736
H  H119  1  0.55040000  0.81980000  0.10350000  1.0 0.3410927736
H  H120  1  0.94960000  0.18020000  0.60350000  1.0 0.3410927736
H  H121  1  0.01440000  0.62150000  0.88220000  1.0 0.2990830449
H  H122  1  0.48560000  0.37850000  0.38220000  1.0 0.2990830449
H  H123  1  0.51440000  0.87850000  0.11780000  1.0 0.2990830449
H  H124  1  0.98560000  0.12150000  0.61780000  1.0 0.2990830449
H  H125  1  0.27540000  0.66590000  0.52670000  1.0 0.3294364073
H  H126  1  0.22460000  0.33410000  0.02670000  1.0 0.3294364073
H  H127  1  0.77540000  0.83410000  0.47330000  1.0 0.3294364073
H  H128  1  0.72460000  0.16590000  0.97330000  1.0 0.3294364073
H  H129  1  0.32830000  0.62600000  0.56170000  1.0 0.3088236081
H  H130  1  0.17170000  0.37400000  0.06170000  1.0 0.3088236081
H  H131  1  0.82830000  0.87400000  0.43830000  1.0 0.3088236081
H  H132  1  0.67170000  0.12600000  0.93830000  1.0 0.3088236081
H  H133  1  0.94990000  0.38240000  0.74140000  1.0 0.0987782413
H  H134  1  0.55010000  0.61760000  0.24140000  1.0 0.0987782413
H  H135  1  0.44990000  0.11760000  0.25860000  1.0 0.0987782413
H  H136  1  0.05010000  0.88240000  0.75860000  1.0 0.0987782413
H  H137  1  0.11240000  0.35250000  0.62410000  1.0 0.1479756806
H  H138  1  0.38760000  0.64750000  0.12410000  1.0 0.1479756806
H  H139  1  0.61240000  0.14750000  0.37590000  1.0 0.1479756806
H  H140  1  0.88760000  0.85250000  0.87590000  1.0 0.1479756806
H  H141  1  0.14890000  0.28940000  0.63430000  1.0 0.1479756806
H  H142  1  0.35110000  0.71060000  0.13430000  1.0 0.1479756806
H  H143  1  0.64890000  0.21060000  0.36570000  1.0 0.1479756806
H  H144  1  0.85110000  0.78940000  0.86570000  1.0 0.1479756806
H  H145  1  0.21390000  0.34290000  0.63520000  1.0 0.1387910606
H  H146  1  0.28610000  0.65710000  0.13520000  1.0 0.1387910606
H  H147  1  0.71390000  0.15710000  0.36480000  1.0 0.1387910606
H  H148  1  0.78610000  0.84290000  0.86480000  1.0 0.1387910606
H  H149  1  0.26170000  0.25510000  0.67880000  1.0 0.0914602422
H  H150  1  0.23830000  0.74490000  0.17880000  1.0 0.0914602422
H  H151  1  0.76170000  0.24490000  0.32120000  1.0 0.0914602422
H  H152  1  0.73830000  0.75510000  0.82120000  1.0 0.0914602422
H  H153  1  0.11810000  0.49470000  0.64570000  1.0 0.1387910606
H  H154  1  0.38190000  0.50530000  0.14570000  1.0 0.1387910606
H  H155  1  0.61810000  0.00530000  0.35430000  1.0 0.1387910606
H  H156  1  0.88190000  0.99470000  0.85430000  1.0 0.1387910606
H  H157  1  0.99850000  0.38550000  0.63220000  1.0 0.0987782413
H  H158  1  0.50150000  0.61450000  0.13220000  1.0 0.0987782413
H  H159  1  0.49850000  0.11450000  0.36780000  1.0 0.0987782413
H  H160  1  0.00150000  0.88550000  0.86780000  1.0 0.0987782413
H  H161  1  0.91020000  0.35830000  0.65380000  1.0 0.0987782413
H  H162  1  0.58980000  0.64170000  0.15380000  1.0 0.0987782413
H  H163  1  0.41020000  0.14170000  0.34620000  1.0 0.0987782413
H  H164  1  0.08980000  0.85830000  0.84620000  1.0 0.0987782413
H  H165  1  0.93950000  0.26980000  0.70120000  1.0 0.1306827111
H  H166  1  0.56050000  0.73020000  0.20120000  1.0 0.1306827111
H  H167  1  0.43950000  0.23020000  0.29880000  1.0 0.1306827111
H  H168  1  0.06050000  0.76980000  0.79880000  1.0 0.1306827111
H  H169  1  0.03110000  0.23770000  0.69710000  1.0 0.1210374694
H  H170  1  0.46890000  0.76230000  0.19710000  1.0 0.1306827111
H  H171  1  0.53110000  0.26230000  0.30290000  1.0 0.1306827111
H  H172  1  0.96890000  0.73770000  0.80290000  1.0 0.1306827111
H  H173  1  0.00280000  0.28210000  0.65230000  1.0 0.1387910606
H  H174  1  0.49720000  0.71790000  0.15230000  1.0 0.1387910606
H  H175  1  0.50280000  0.21790000  0.34770000  1.0 0.1387910606
H  H176  1  0.99720000  0.78210000  0.84770000  1.0 0.1387910606
H  H177  1  0.08410000  0.27520000  0.78680000  1.0 0.1100799062
H  H178  1  0.41590000  0.72480000  0.28680000  1.0 0.1100799062
H  H179  1  0.58410000  0.22480000  0.21320000  1.0 0.1100799062
H  H180  1  0.91590000  0.77520000  0.71320000  1.0 0.1100799062
H  H181  1  0.06300000  0.34040000  0.80040000  1.0 0.1306827111
H  H182  1  0.43700000  0.65960000  0.30040000  1.0 0.1306827111
H  H183  1  0.56300000  0.15960000  0.19960000  1.0 0.1306827111
H  H184  1  0.93700000  0.84040000  0.69960000  1.0 0.1306827111
H  H185  1  0.40410000  0.25570000  0.81710000  1.0 0.1387910606
H  H186  1  0.09590000  0.74430000  0.31710000  1.0 0.1387910606
H  H187  1  0.90410000  0.24430000  0.18290000  1.0 0.1387910606
H  H188  1  0.59590000  0.75570000  0.68290000  1.0 0.1387910606
H  H189  1  0.34690000  0.20040000  0.80400000  1.0 0.1210374694
H  H190  1  0.15310000  0.79960000  0.30400000  1.0 0.1210374694
H  H191  1  0.84690000  0.29960000  0.19600000  1.0 0.1210374694
H  H192  1  0.65310000  0.70040000  0.69600000  1.0 0.1210374694
H  H193  1  0.30020000  0.25920000  0.81910000  1.0 0.1210374694
H  H194  1  0.19980000  0.74080000  0.31910000  1.0 0.1210374694
H  H195  1  0.80020000  0.24080000  0.18090000  1.0 0.1210374694
H  H196  1  0.69980000  0.75920000  0.68090000  1.0 0.1210374694
H  H197  1  0.46990000  0.22470000  0.73030000  1.0 0.0987782413
H  H198  1  0.03010000  0.77530000  0.23030000  1.0 0.0987782413
H  H199  1  0.96990000  0.27530000  0.26970000  1.0 0.0987782413
H  H200  1  0.53010000  0.72470000  0.76970000  1.0 0.0987782413
H  H201  1  0.39340000  0.18290000  0.71230000  1.0 0.0987782413
H  H202  1  0.10660000  0.81710000  0.21230000  1.0 0.0987782413
H  H203  1  0.89340000  0.31710000  0.28770000  1.0 0.0987782413
H  H204  1  0.60660000  0.68290000  0.78770000  1.0 0.0987782413
H  H205  1  0.21490000  0.19240000  0.77160000  1.0 0.1100799062
H  H206  1  0.28510000  0.80760000  0.27160000  1.0 0.1100799062
H  H207  1  0.71490000  0.30760000  0.22840000  1.0 0.1100799062
H  H208  1  0.78510000  0.69240000  0.72840000  1.0 0.1100799062
H  H209  1  0.14020000  0.20980000  0.73070000  1.0 0.1306827111
H  H210  1  0.35980000  0.79020000  0.23070000  1.0 0.1306827111
H  H211  1  0.64020000  0.29020000  0.26930000  1.0 0.1306827111
H  H212  1  0.85980000  0.70980000  0.76930000  1.0 0.1306827111
H  H213  1  0.43640000  0.45180000  0.51830000  1.0 0.0914602422
H  H214  1  0.06360000  0.54820000  0.01830000  1.0 0.0914602422
H  H215  1  0.93640000  0.04820000  0.48170000  1.0 0.0914602422
H  H216  1  0.56360000  0.95180000  0.98170000  1.0 0.0914602422
H  H217  1  0.29780000  0.49750000  0.49510000  1.0 0.1306827111
H  H218  1  0.20220000  0.50250000  0.99510000  1.0 0.1306827111
H  H219  1  0.79780000  0.00250000  0.50490000  1.0 0.1306827111
H  H220  1  0.70220000  0.99750000  0.00490000  1.0 0.1306827111
H  H221  1  0.78670000  0.36790000  0.76960000  1.0 0.320716819
H  H222  1  0.71330000  0.63210000  0.26960000  1.0 0.320716819
H  H223  1  0.28670000  0.13210000  0.23040000  1.0 0.320716819
H  H224  1  0.21330000  0.86790000  0.73040000  1.0 0.320716819
H  H225  1  0.76010000  0.42900000  0.78270000  1.0 0.2990830449
H  H226  1  0.73990000  0.57100000  0.28270000  1.0 0.2990830449
H  H227  1  0.26010000  0.07100000  0.21730000  1.0 0.2990830449
H  H228  1  0.23990000  0.92900000  0.71730000  1.0 0.2990830449
H  H229  1  0.95060000  0.47760000  0.65430000  1.0 0.1210374694
H  H230  1  0.54940000  0.52240000  0.15430000  1.0 0.1210374694
H  H231  1  0.45060000  0.02240000  0.34570000  1.0 0.1210374694
H  H232  1  0.04940000  0.97760000  0.84570000  1.0 0.1210374694
H  H233  1  0.86460000  0.45200000  0.68090000  1.0 0.1100799062
H  H234  1  0.63540000  0.54800000  0.18090000  1.0 0.1100799062
H  H235  1  0.36460000  0.04800000  0.31910000  1.0 0.1100799062
H  H236  1  0.13540000  0.95200000  0.81910000  1.0 0.1100799062
H  H237  1  0.37730000  0.22840000  0.63310000  1.0 0.1210374694
H  H238  1  0.12270000  0.77160000  0.13310000  1.0 0.1210374694
H  H239  1  0.87730000  0.27160000  0.36690000  1.0 0.1210374694
H  H240  1  0.62270000  0.72840000  0.86690000  1.0 0.1210374694
H  H241  1  0.43270000  0.28250000  0.65220000  1.0 0.1210374694
H  H242  1  0.06730000  0.71750000  0.15220000  1.0 0.1210374694
H  H243  1  0.93270000  0.21750000  0.34780000  1.0 0.1210374694
H  H244  1  0.56730000  0.78250000  0.84780000  1.0 0.1210374694
H  H245  1  0.38240000  0.36400000  0.49610000  1.0 0.0914602422
H  H246  1  0.11760000  0.63600000  0.99610000  1.0 0.0914602422
H  H247  1  0.88240000  0.13600000  0.50390000  1.0 0.0914602422
H  H248  1  0.61760000  0.86400000  0.00390000  1.0 0.0914602422
H  H249  1  0.01140000  0.55010000  0.60340000  1.0 0.1210374694
H  H250  1  0.48860000  0.44990000  0.10340000  1.0 0.1210374694
H  H251  1  0.51140000  0.94990000  0.39660000  1.0 0.1210374694
H  H252  1  0.98860000  0.05010000  0.89660000  1.0 0.1210374694
H  H253  1  0.00210000  0.53410000  0.54230000  1.0 0.1306827111
H  H254  1  0.49790000  0.46590000  0.04230000  1.0 0.1306827111
H  H255  1  0.50210000  0.96590000  0.45770000  1.0 0.1306827111
H  H256  1  0.99790000  0.03410000  0.95770000  1.0 0.1306827111
H  H257  1  0.04760000  0.59280000  0.55930000  1.0 0.1387910606
H  H258  1  0.45240000  0.40720000  0.05930000  1.0 0.1387910606
H  H259  1  0.54760000  0.90720000  0.44070000  1.0 0.1387910606
H  H260  1  0.95240000  0.09280000  0.94070000  1.0 0.1387910606
H  H261  1  0.91000000  0.23660000  0.85530000  1.0 0.3294364073
H  H262  1  0.59000000  0.76340000  0.35530000  1.0 0.3294364073
H  H263  1  0.41000000  0.26340000  0.14470000  1.0 0.3294364073
H  H264  1  0.09000000  0.73660000  0.64470000  1.0 0.3294364073
H  H265  1  0.00820000  0.23260000  0.84790000  1.0 0.3088236081
H  H266  1  0.49180000  0.76740000  0.34790000  1.0 0.3088236081
H  H267  1  0.50820000  0.26740000  0.15210000  1.0 0.3088236081
H  H268  1  0.99180000  0.73260000  0.65210000  1.0 0.3088236081
H  H269  1  0.23300000  0.06810000  0.70770000  1.0 0.2914044095
H  H270  1  0.26700000  0.93190000  0.20770000  1.0 0.2914044095
H  H271  1  0.73300000  0.43190000  0.29230000  1.0 0.2914044095
H  H272  1  0.76700000  0.56810000  0.79230000  1.0 0.2914044095
H  H273  1  0.20710000  0.09880000  0.75840000  1.0 0.2914044095
H  H274  1  0.29290000  0.90120000  0.25840000  1.0 0.2914044095
H  H275  1  0.70710000  0.40120000  0.24160000  1.0 0.2914044095
H  H276  1  0.79290000  0.59880000  0.74160000  1.0 0.2914044095
H  H277  1  0.53220000  0.35720000  0.48970000  1.0 0.0798651745
H  H278  1  0.96780000  0.64280000  0.98970000  1.0 0.0798651745
H  H279  1  0.03220000  0.14280000  0.51030000  1.0 0.0798651745
H  H280  1  0.46780000  0.85720000  0.01030000  1.0 0.0798651745
H  H281  1  0.36120000  0.30070000  0.55900000  1.0 0.3088236081
H  H282  1  0.13880000  0.69930000  0.05900000  1.0 0.3088236081
H  H283  1  0.86120000  0.19930000  0.44100000  1.0 0.3088236081
H  H284  1  0.63880000  0.80070000  0.94100000  1.0 0.3088236081
H  H285  1  0.54670000  0.34690000  0.60240000  1.0 0.1100799062
H  H286  1  0.95330000  0.65310000  0.10240000  1.0 0.1100799062
H  H287  1  0.04670000  0.15310000  0.39760000  1.0 0.1100799062
H  H288  1  0.45330000  0.84690000  0.89760000  1.0 0.1100799062
H  H289  1  0.08830000  0.56290000  0.47970000  1.0 0.1306827111
H  H290  1  0.41170000  0.43710000  0.97970000  1.0 0.1306827111
H  H291  1  0.58830000  0.93710000  0.52030000  1.0 0.1306827111
H  H292  1  0.91170000  0.06290000  0.02030000  1.0 0.1306827111
H  H293  1  0.14620000  0.51950000  0.44590000  1.0 0.1306827111
H  H294  1  0.35380000  0.48050000  0.94590000  1.0 0.1306827111
H  H295  1  0.64620000  0.98050000  0.55410000  1.0 0.1306827111
H  H296  1  0.85380000  0.01950000  0.05410000  1.0 0.1306827111
H  H297  1  0.18520000  0.58010000  0.46300000  1.0 0.1306827111
H  H298  1  0.31480000  0.41990000  0.96300000  1.0 0.1306827111
H  H299  1  0.68520000  0.91990000  0.53700000  1.0 0.1306827111
H  H300  1  0.81480000  0.08010000  0.03700000  1.0 0.1306827111
H  H301  1  0.78820000  0.27010000  0.76880000  1.0 0.3598176597
H  H302  1  0.71180000  0.72990000  0.26880000  1.0 0.3598176597
H  H303  1  0.28820000  0.22990000  0.23120000  1.0 0.3598176597
H  H304  1  0.21180000  0.77010000  0.73120000  1.0 0.3598176597
H  H305  1  0.70120000  0.25420000  0.78800000  1.0 0.3598176597
H  H306  1  0.79880000  0.74580000  0.28800000  1.0 0.3598176597
H  H307  1  0.20120000  0.24580000  0.21200000  1.0 0.3598176597
H  H308  1  0.29880000  0.75420000  0.71200000  1.0 0.3598176597
H  H309  1  0.83000000  0.33110000  0.57910000  1.0 0.3410927736
H  H310  1  0.67000000  0.66890000  0.07910000  1.0 0.3410927736
H  H311  1  0.33000000  0.16890000  0.42090000  1.0 0.3410927736
H  H312  1  0.17000000  0.83110000  0.92090000  1.0 0.3410927736
H  H313  1  0.87140000  0.27630000  0.57780000  1.0 0.3598176597
H  H314  1  0.62860000  0.72370000  0.07780000  1.0 0.3598176597
H  H315  1  0.37140000  0.22370000  0.42220000  1.0 0.3598176597
H  H316  1  0.12860000  0.77630000  0.92220000  1.0 0.3598176597
H  H317  1  0.79080000  0.50450000  0.56140000  1.0 0.3088236081
H  H318  1  0.70920000  0.49550000  0.06140000  1.0 0.3088236081
H  H319  1  0.29080000  0.99550000  0.43860000  1.0 0.3088236081
H  H320  1  0.20920000  0.00450000  0.93860000  1.0 0.3088236081
H  H321  1  0.82170000  0.52580000  0.61500000  1.0 0.2914044095
H  H322  1  0.67830000  0.47420000  0.11500000  1.0 0.2914044095
H  H323  1  0.32170000  0.97420000  0.38500000  1.0 0.2914044095
H  H324  1  0.17830000  0.02580000  0.88500000  1.0 0.2914044095
H  H325  1  0.44500000  0.15830000  0.59240000  1.0 0.2842168419
H  H326  1  0.05500000  0.84170000  0.09240000  1.0 0.2842168419
H  H327  1  0.94500000  0.34170000  0.40760000  1.0 0.2842168419
H  H328  1  0.55500000  0.65830000  0.90760000  1.0 0.2842168419
H  H329  1  0.67660000  0.40390000  0.58800000  1.0 0.0987782413
H  H330  1  0.82340000  0.59610000  0.08800000  1.0 0.0987782413
H  H331  1  0.17660000  0.09610000  0.41200000  1.0 0.0987782413
H  H332  1  0.32340000  0.90390000  0.91200000  1.0 0.0987782413
H  H333  1  0.68220000  0.34290000  0.55940000  1.0 0.1210374694
H  H334  1  0.81780000  0.65710000  0.05940000  1.0 0.1210374694
H  H335  1  0.18220000  0.15710000  0.44060000  1.0 0.1210374694
H  H336  1  0.31780000  0.84290000  0.94060000  1.0 0.1210374694
H  H337  1  0.55070000  0.10280000  0.56100000  1.0 0.1100799062
H  H338  1  0.94930000  0.89720000  0.06100000  1.0 0.1100799062
H  H339  1  0.05070000  0.39720000  0.43900000  1.0 0.1100799062
H  H340  1  0.44930000  0.60280000  0.93900000  1.0 0.1100799062
H  H341  1  0.61420000  0.12960000  0.60440000  1.0 0.1100799062
H  H342  1  0.88580000  0.87040000  0.10440000  1.0 0.1100799062
H  H343  1  0.11420000  0.37040000  0.39560000  1.0 0.1100799062
H  H344  1  0.38580000  0.62960000  0.89560000  1.0 0.1100799062
H  H345  1  0.68250000  0.44610000  0.50650000  1.0 0.3294364073
H  H346  1  0.81750000  0.55390000  0.00650000  1.0 0.3294364073
H  H347  1  0.18250000  0.05390000  0.49350000  1.0 0.3294364073
H  H348  1  0.31750000  0.94610000  0.99350000  1.0 0.3294364073
H  H349  1  0.64480000  0.20810000  0.54910000  1.0 0.0685561133
H  H350  1  0.85520000  0.79190000  0.04910000  1.0 0.0685561133
H  H351  1  0.14480000  0.29190000  0.45090000  1.0 0.0685561133
H  H352  1  0.35520000  0.70810000  0.95090000  1.0 0.0685561133
H  H353  1  0.72480000  0.12080000  0.53330000  1.0 0.1387910606
H  H354  1  0.77520000  0.87920000  0.03330000  1.0 0.1387910606
H  H355  1  0.22480000  0.37920000  0.46670000  1.0 0.1387910606
H  H356  1  0.27520000  0.62080000  0.96670000  1.0 0.1387910606
H  H357  1  0.71530000  0.15810000  0.48080000  1.0 0.1479756806
H  H358  1  0.78470000  0.84190000  0.98080000  1.0 0.1479756806
H  H359  1  0.21530000  0.34190000  0.51920000  1.0 0.1479756806
H  H360  1  0.28470000  0.65810000  0.01920000  1.0 0.1479756806
H  H361  1  0.65430000  0.10360000  0.48970000  1.0 0.1387910606
H  H362  1  0.84570000  0.89640000  0.98970000  1.0 0.1387910606
H  H363  1  0.15430000  0.39640000  0.51030000  1.0 0.1387910606
H  H364  1  0.34570000  0.60360000  0.01030000  1.0 0.1387910606
H  H365  1  0.56240000  0.45620000  0.40990000  1.0 0.3598176597
H  H366  1  0.93760000  0.54380000  0.90990000  1.0 0.3598176597
H  H367  1  0.06240000  0.04380000  0.59010000  1.0 0.3598176597
H  H368  1  0.43760000  0.95620000  0.09010000  1.0 0.3598176597
H  H369  1  0.64320000  0.45320000  0.37900000  1.0 0.3410927736
H  H370  1  0.85680000  0.54680000  0.87900000  1.0 0.3410927736
H  H371  1  0.14320000  0.04680000  0.62100000  1.0 0.3410927736
H  H372  1  0.35680000  0.95320000  0.12100000  1.0 0.3410927736
H  H373  1  0.85600000  0.40240000  0.48940000  1.0 0.3730136065
H  H374  1  0.64400000  0.59760000  0.98940000  1.0 0.3730136065
H  H375  1  0.35600000  0.09760000  0.51060000  1.0 0.3730136065
H  H376  1  0.14400000  0.90240000  0.01060000  1.0 0.3730136065
H  H377  1  0.84310000  0.43660000  0.43830000  1.0 0.3598176597
H  H378  1  0.65690000  0.56340000  0.93830000  1.0 0.3598176597
H  H379  1  0.34310000  0.06340000  0.56170000  1.0 0.3598176597
H  H380  1  0.15690000  0.93660000  0.06170000  1.0 0.3598176597
C  C1  1  0.34590000  0.55330000  0.75210000  1.0 -0.0990261989
C  C2  1  0.15410000  0.44670000  0.25210000  1.0 -0.0990261989
C  C3  1  0.84590000  0.94670000  0.24790000  1.0 -0.0990261989
C  C4  1  0.65410000  0.05330000  0.74790000  1.0 -0.0990261989
C  C5  1  0.25800000  0.55260000  0.74290000  1.0 0.1619259263
C  C6  1  0.24200000  0.44740000  0.24290000  1.0 0.1619259263
C  C7  1  0.75800000  0.94740000  0.25710000  1.0 0.1619259263
C  C8  1  0.74200000  0.05260000  0.75710000  1.0 0.1619259263
C  C9  1  0.40070000  0.50540000  0.75900000  1.0 0.1755102894
C  C10  1  0.09930000  0.49460000  0.25900000  1.0 0.1755102894
C  C11  1  0.90070000  0.99460000  0.24100000  1.0 0.1755102894
C  C12  1  0.59930000  0.00540000  0.74100000  1.0 0.1755102894
C  C13  1  0.19960000  0.60430000  0.74060000  1.0 -0.1104723594
C  C14  1  0.30040000  0.39570000  0.24060000  1.0 -0.1104723594
C  C15  1  0.69960000  0.89570000  0.25940000  1.0 -0.0990261989
C  C16  1  0.80040000  0.10430000  0.75940000  1.0 -0.1104723594
C  C17  1  0.49080000  0.50420000  0.78410000  1.0 0.1861025438
C  C18  1  0.00920000  0.49580000  0.28410000  1.0 0.1861025438
C  C19  1  0.99080000  0.99580000  0.21590000  1.0 0.1861025438
C  C20  1  0.50920000  0.00420000  0.71590000  1.0 0.1861025438
C  C21  1  0.11650000  0.57860000  0.76850000  1.0 0.1861025438
C  C22  1  0.38350000  0.42140000  0.26850000  1.0 0.1861025438
C  C23  1  0.61650000  0.92140000  0.23150000  1.0 0.1861025438
C  C24  1  0.88350000  0.07860000  0.73150000  1.0 0.1861025438
C  C25  1  0.18010000  0.62420000  0.68450000  1.0 -0.1605470272
C  C26  1  0.31990000  0.37580000  0.18450000  1.0 -0.1605470272
C  C27  1  0.68010000  0.87580000  0.31550000  1.0 -0.1605470272
C  C28  1  0.81990000  0.12420000  0.81550000  1.0 -0.1605470272
C  C29  1  0.12190000  0.51710000  0.74920000  1.0 0.1100799062
C  C30  1  0.37810000  0.48290000  0.24920000  1.0 0.1100799062
C  C31  1  0.62190000  0.98290000  0.25080000  1.0 0.1100799062
C  C32  1  0.87810000  0.01710000  0.75080000  1.0 0.1100799062
C  C33  1  0.52580000  0.44750000  0.76180000  1.0 -0.0814137681
C  C34  1  0.97420000  0.55250000  0.26180000  1.0 -0.0814137681
C  C35  1  0.02580000  0.05250000  0.23820000  1.0 -0.0814137681
C  C36  1  0.47420000  0.94750000  0.73820000  1.0 -0.0814137681
C  C37  1  0.55620000  0.55270000  0.77760000  1.0 -0.4831255915
C  C38  1  0.94380000  0.44730000  0.27760000  1.0 -0.4831255915
C  C39  1  0.05620000  0.94730000  0.22240000  1.0 -0.4831255915
C  C40  1  0.44380000  0.05270000  0.72240000  1.0 -0.4831255915
C  C41  1  0.47520000  0.49580000  0.84450000  1.0 -0.4593781393
C  C42  1  0.02480000  0.50420000  0.34450000  1.0 -0.4593781393
C  C43  1  0.97520000  0.00420000  0.15550000  1.0 -0.4706825586
C  C44  1  0.52480000  0.99580000  0.65550000  1.0 -0.4706825586
C  C45  1  0.44160000  0.41230000  0.75410000  1.0 0.1100799062
C  C46  1  0.05840000  0.58770000  0.25410000  1.0 0.1100799062
C  C47  1  0.94160000  0.08770000  0.24590000  1.0 0.1100799062
C  C48  1  0.55840000  0.91230000  0.74590000  1.0 0.1100799062
C  C49  1  0.13180000  0.57660000  0.82970000  1.0 -0.3965876716
C  C50  1  0.36820000  0.42340000  0.32970000  1.0 -0.3965876716
C  C51  1  0.63180000  0.92340000  0.17030000  1.0 -0.3965876716
C  C52  1  0.86820000  0.07660000  0.67030000  1.0 -0.3965876716
C  C53  1  0.03380000  0.61320000  0.75510000  1.0 -0.4889980646
C  C54  1  0.46620000  0.38680000  0.25510000  1.0 -0.4889980646
C  C55  1  0.53380000  0.88680000  0.24490000  1.0 -0.4889980646
C  C56  1  0.96620000  0.11320000  0.74490000  1.0 -0.4889980646
C  C57  1  0.25920000  0.63660000  0.65080000  1.0 -0.3477243239
C  C58  1  0.24080000  0.36340000  0.15080000  1.0 -0.3477243239
C  C59  1  0.75920000  0.86340000  0.34920000  1.0 -0.3477243239
C  C60  1  0.74080000  0.13660000  0.84920000  1.0 -0.3477243239
C  C61  1  0.05520000  0.47840000  0.74610000  1.0 0.0009701466
C  C62  1  0.44480000  0.52160000  0.24610000  1.0 0.0009701466
C  C63  1  0.55520000  0.02160000  0.25390000  1.0 0.0009701466
C  C64  1  0.94480000  0.97840000  0.75390000  1.0 0.0009701466
C  C65  1  0.56920000  0.45250000  0.70730000  1.0 -0.167087117
C  C66  1  0.93080000  0.54750000  0.20730000  1.0 -0.167087117
C  C67  1  0.06920000  0.04750000  0.29270000  1.0 -0.167087117
C  C68  1  0.43080000  0.95250000  0.79270000  1.0 -0.167087117
C  C69  1  0.44100000  0.35520000  0.74850000  1.0 -0.0202250337
C  C70  1  0.05900000  0.64480000  0.24850000  1.0 -0.0202250337
C  C71  1  0.94100000  0.14480000  0.25150000  1.0 -0.014883926
C  C72  1  0.55900000  0.85520000  0.75150000  1.0 -0.0202250337
C  C73  1  0.12890000  0.63510000  0.85500000  1.0 0.5978869406
C  C74  1  0.37110000  0.36490000  0.35500000  1.0 0.5978869406
C  C75  1  0.62890000  0.86490000  0.14500000  1.0 0.5978869406
C  C76  1  0.87110000  0.13510000  0.64500000  1.0 0.5978869406
C  C77  1  0.23430000  0.66370000  0.59900000  1.0 0.5910198522
C  C78  1  0.26570000  0.33630000  0.09900000  1.0 0.5910198522
C  C79  1  0.73430000  0.83630000  0.40100000  1.0 0.5910198522
C  C80  1  0.76570000  0.16370000  0.90100000  1.0 0.5910198522
C  C81  1  0.06740000  0.42240000  0.72700000  1.0 0.1861025438
C  C82  1  0.43260000  0.57760000  0.22700000  1.0 0.1861025438
C  C83  1  0.56740000  0.07760000  0.27300000  1.0 0.1861025438
C  C84  1  0.93260000  0.92240000  0.77300000  1.0 0.1861025438
C  C85  1  0.96640000  0.49430000  0.76910000  1.0 -0.4406150969
C  C86  1  0.53360000  0.50570000  0.26910000  1.0 -0.4406150969
C  C87  1  0.46640000  0.00570000  0.23090000  1.0 -0.4406150969
C  C88  1  0.03360000  0.99430000  0.73090000  1.0 -0.4406150969
C  C89  1  0.13890000  0.33700000  0.70340000  1.0 0.2100483386
C  C90  1  0.36110000  0.66300000  0.20340000  1.0 0.2100483386
C  C91  1  0.63890000  0.16300000  0.29660000  1.0 0.2100483386
C  C92  1  0.86110000  0.83700000  0.79660000  1.0 0.2100483386
C  C93  1  0.36050000  0.32460000  0.74040000  1.0 0.1619259263
C  C94  1  0.13950000  0.67540000  0.24040000  1.0 0.1619259263
C  C95  1  0.86050000  0.17540000  0.25960000  1.0 0.1619259263
C  C96  1  0.63950000  0.82460000  0.75960000  1.0 0.1619259263
C  C97  1  0.21500000  0.31130000  0.73460000  1.0 -0.029369219
C  C98  1  0.28500000  0.68870000  0.23460000  1.0 -0.029369219
C  C99  1  0.71500000  0.18870000  0.26540000  1.0 -0.029369219
C  C100  1  0.78500000  0.81130000  0.76540000  1.0 -0.029369219
C  C101  1  0.35470000  0.42750000  0.63570000  1.0 0.1619259263
C  C102  1  0.14530000  0.57250000  0.13570000  1.0 0.1619259263
C  C103  1  0.85470000  0.07250000  0.36430000  1.0 0.1619259263
C  C104  1  0.64530000  0.92750000  0.86430000  1.0 0.1619259263
C  C105  1  0.23450000  0.47040000  0.61710000  1.0 0.1306827111
C  C106  1  0.26550000  0.52960000  0.11710000  1.0 0.1306827111
C  C107  1  0.73450000  0.02960000  0.38290000  1.0 0.1306827111
C  C108  1  0.76550000  0.97040000  0.88290000  1.0 0.1306827111
C  C109  1  0.66930000  0.46010000  0.70600000  1.0 -0.3387113231
C  C110  1  0.83070000  0.53990000  0.20600000  1.0 -0.3387113231
C  C111  1  0.16930000  0.03990000  0.29400000  1.0 -0.3387113231
C  C112  1  0.33070000  0.96010000  0.79400000  1.0 -0.3387113231
C  C113  1  0.52570000  0.32290000  0.75260000  1.0 -0.4294789897
C  C114  1  0.97430000  0.67710000  0.25260000  1.0 -0.4294789897
C  C115  1  0.02570000  0.17710000  0.24740000  1.0 -0.4294789897
C  C116  1  0.47430000  0.82290000  0.74740000  1.0 -0.4294789897
C  C117  1  0.99600000  0.37950000  0.71370000  1.0 -0.1104723594
C  C118  1  0.50400000  0.62050000  0.21370000  1.0 -0.1104723594
C  C119  1  0.49600000  0.12050000  0.28630000  1.0 -0.1104723594
C  C120  1  0.00400000  0.87950000  0.78630000  1.0 -0.1104723594
C  C121  1  0.04290000  0.32140000  0.72070000  1.0 0.1719707532
C  C122  1  0.45710000  0.67860000  0.22070000  1.0 0.1719707532
C  C123  1  0.54290000  0.17860000  0.27930000  1.0 0.1719707532
C  C124  1  0.95710000  0.82140000  0.77930000  1.0 0.1719707532
C  C125  1  0.15500000  0.32980000  0.64390000  1.0 -0.4706825586
C  C126  1  0.34500000  0.67020000  0.14390000  1.0 -0.4706825586
C  C127  1  0.65500000  0.17020000  0.35610000  1.0 -0.4706825586
C  C128  1  0.84500000  0.82980000  0.85610000  1.0 -0.4706825586
C  C129  1  0.34820000  0.25930000  0.74220000  1.0 0.1387910606
C  C130  1  0.15180000  0.74070000  0.24220000  1.0 0.1387910606
C  C131  1  0.84820000  0.24070000  0.25780000  1.0 0.1387910606
C  C132  1  0.65180000  0.75930000  0.75780000  1.0 0.1387910606
C  C133  1  0.25590000  0.25500000  0.71810000  1.0 -0.0202250337
C  C134  1  0.24410000  0.74500000  0.21810000  1.0 -0.0202250337
C  C135  1  0.75590000  0.24500000  0.28190000  1.0 -0.0202250337
C  C136  1  0.74410000  0.75500000  0.78190000  1.0 -0.0202250337
C  C137  1  0.15460000  0.49580000  0.61540000  1.0 -0.2663538845
C  C138  1  0.34540000  0.50420000  0.11540000  1.0 -0.2663538845
C  C139  1  0.65460000  0.00420000  0.38460000  1.0 -0.2663538845
C  C140  1  0.84540000  0.99580000  0.88460000  1.0 -0.2663538845
C  C141  1  0.28850000  0.47270000  0.57240000  1.0 0.0798651745
C  C142  1  0.21150000  0.52730000  0.07240000  1.0 0.0798651745
C  C143  1  0.78850000  0.02730000  0.42760000  1.0 0.0798651745
C  C144  1  0.71150000  0.97270000  0.92760000  1.0 0.0798651745
C  C145  1  0.71490000  0.40260000  0.71590000  1.0 0.5801584927
C  C146  1  0.78510000  0.59740000  0.21590000  1.0 0.5801584927
C  C147  1  0.21490000  0.09740000  0.28410000  1.0 0.5801584927
C  C148  1  0.28510000  0.90260000  0.78410000  1.0 0.5801584927
C  C149  1  0.95310000  0.38920000  0.65970000  1.0 -0.1344299408
C  C150  1  0.54690000  0.61080000  0.15970000  1.0 -0.1344299408
C  C151  1  0.45310000  0.11080000  0.34030000  1.0 -0.1344299408
C  C152  1  0.04690000  0.88920000  0.84030000  1.0 -0.1344299408
C  C153  1  0.00030000  0.27360000  0.69020000  1.0 -0.4889980646
C  C154  1  0.49970000  0.72640000  0.19020000  1.0 -0.4889980646
C  C155  1  0.50030000  0.22640000  0.30980000  1.0 -0.4889980646
C  C156  1  0.99970000  0.77360000  0.80980000  1.0 -0.4889980646
C  C157  1  0.04210000  0.30660000  0.78050000  1.0 -0.4086360128
C  C158  1  0.45790000  0.69340000  0.28050000  1.0 -0.4086360128
C  C159  1  0.54210000  0.19340000  0.21950000  1.0 -0.4086360128
C  C160  1  0.95790000  0.80660000  0.71950000  1.0 -0.4086360128
C  C161  1  0.35000000  0.24210000  0.80100000  1.0 -0.4593781393
C  C162  1  0.15000000  0.75790000  0.30100000  1.0 -0.4593781393
C  C163  1  0.85000000  0.25790000  0.19900000  1.0 -0.4593781393
C  C164  1  0.65000000  0.74210000  0.69900000  1.0 -0.4593781393
C  C165  1  0.41340000  0.22310000  0.71170000  1.0 -0.1996997686
C  C166  1  0.08660000  0.77690000  0.21170000  1.0 -0.1996997686
C  C167  1  0.91340000  0.27690000  0.28830000  1.0 -0.1996997686
C  C168  1  0.58660000  0.72310000  0.78830000  1.0 -0.1996997686
C  C169  1  0.20310000  0.20140000  0.73410000  1.0 -0.3811361616
C  C170  1  0.29690000  0.79860000  0.23410000  1.0 -0.3811361616
C  C171  1  0.70310000  0.29860000  0.26590000  1.0 -0.3811361616
C  C172  1  0.79690000  0.70140000  0.76590000  1.0 -0.3811361616
C  C173  1  0.43290000  0.42540000  0.54920000  1.0 0.1479756806
C  C174  1  0.06710000  0.57460000  0.04920000  1.0 0.1479756806
C  C175  1  0.93290000  0.07460000  0.45080000  1.0 0.1479756806
C  C176  1  0.56710000  0.92540000  0.95080000  1.0 0.1479756806
C  C177  1  0.12640000  0.52280000  0.57050000  1.0 0.1210374694
C  C178  1  0.37360000  0.47720000  0.07050000  1.0 0.1210374694
C  C179  1  0.62640000  0.97720000  0.42950000  1.0 0.1210374694
C  C180  1  0.87360000  0.02280000  0.92950000  1.0 0.1210374694
C  C181  1  0.26140000  0.49770000  0.52540000  1.0 -0.2774241658
C  C182  1  0.23860000  0.50230000  0.02540000  1.0 -0.2774241658
C  C183  1  0.76140000  0.00230000  0.47460000  1.0 -0.2774241658
C  C184  1  0.73860000  0.99770000  0.97460000  1.0 -0.2774241658
C  C185  1  0.90720000  0.44640000  0.65210000  1.0 -0.3387113231
C  C186  1  0.59280000  0.55360000  0.15210000  1.0 -0.3387113231
C  C187  1  0.40720000  0.05360000  0.34790000  1.0 -0.3387113231
C  C188  1  0.09280000  0.94640000  0.84790000  1.0 -0.3387113231
C  C189  1  0.95430000  0.28870000  0.80310000  1.0 0.5910198522
C  C190  1  0.54570000  0.71130000  0.30310000  1.0 0.5910198522
C  C191  1  0.45430000  0.21130000  0.19690000  1.0 0.5910198522
C  C192  1  0.04570000  0.78870000  0.69690000  1.0 0.5910198522
C  C193  1  0.42780000  0.24040000  0.65450000  1.0 -0.3477243239
C  C194  1  0.07220000  0.75960000  0.15450000  1.0 -0.3477243239
C  C195  1  0.92780000  0.25960000  0.34550000  1.0 -0.3477243239
C  C196  1  0.57220000  0.74040000  0.84550000  1.0 -0.3477243239
C  C197  1  0.22550000  0.14950000  0.70010000  1.0 0.5801584927
C  C198  1  0.27450000  0.85050000  0.20010000  1.0 0.5801584927
C  C199  1  0.72550000  0.35050000  0.29990000  1.0 0.5801584927
C  C200  1  0.77450000  0.64950000  0.79990000  1.0 0.5801584927
C  C201  1  0.41480000  0.36440000  0.53030000  1.0 0.0274345644
C  C202  1  0.08520000  0.63560000  0.03030000  1.0 0.0274345644
C  C203  1  0.91480000  0.13560000  0.46970000  1.0 0.0274345644
C  C204  1  0.58520000  0.86440000  0.96970000  1.0 0.0274345644
C  C205  1  0.18170000  0.52240000  0.52390000  1.0 0.1210374694
C  C206  1  0.31830000  0.47760000  0.02390000  1.0 0.1210374694
C  C207  1  0.68170000  0.97760000  0.47610000  1.0 0.1210374694
C  C208  1  0.81830000  0.02240000  0.97610000  1.0 0.1306827111
C  C209  1  0.03920000  0.55260000  0.56870000  1.0 -0.4706825586
C  C210  1  0.46080000  0.44740000  0.06870000  1.0 -0.4706825586
C  C211  1  0.53920000  0.94740000  0.43130000  1.0 -0.4706825586
C  C212  1  0.96080000  0.05260000  0.93130000  1.0 -0.4706825586
C  C213  1  0.85980000  0.45020000  0.59890000  1.0 0.5686715452
C  C214  1  0.64020000  0.54980000  0.09890000  1.0 0.5686715452
C  C215  1  0.35980000  0.04980000  0.40110000  1.0 0.5686715452
C  C216  1  0.14020000  0.95020000  0.90110000  1.0 0.5686715452
C  C217  1  0.50940000  0.21340000  0.63280000  1.0 0.5267762152
C  C218  1  0.99060000  0.78660000  0.13280000  1.0 0.5267762152
C  C219  1  0.00940000  0.28660000  0.36720000  1.0 0.5267762152
C  C220  1  0.49060000  0.71340000  0.86720000  1.0 0.5267762152
C  C221  1  0.50750000  0.34290000  0.52370000  1.0 0.0914602422
C  C222  1  0.99250000  0.65710000  0.02370000  1.0 0.0914602422
C  C223  1  0.00750000  0.15710000  0.47630000  1.0 0.0914602422
C  C224  1  0.49250000  0.84290000  0.97630000  1.0 0.0914602422
C  C225  1  0.55450000  0.37060000  0.56990000  1.0 0.0645275695
C  C226  1  0.94550000  0.62940000  0.06990000  1.0 0.0645275695
C  C227  1  0.05450000  0.12940000  0.43010000  1.0 0.0645275695
C  C228  1  0.44550000  0.87060000  0.93010000  1.0 0.0645275695
C  C229  1  0.14730000  0.54850000  0.47370000  1.0 -0.4532477471
C  C230  1  0.35270000  0.45150000  0.97370000  1.0 -0.4532477471
C  C231  1  0.64730000  0.95150000  0.52630000  1.0 -0.4532477471
C  C232  1  0.85270000  0.04850000  0.02630000  1.0 -0.4532477471
C  C233  1  0.65170000  0.38020000  0.55930000  1.0 -0.029369219
C  C234  1  0.84830000  0.61980000  0.05930000  1.0 -0.029369219
C  C235  1  0.15170000  0.11980000  0.44070000  1.0 -0.029369219
C  C236  1  0.34830000  0.88020000  0.94070000  1.0 -0.029369219
C  C237  1  0.57180000  0.13920000  0.57640000  1.0 -0.1444214227
C  C238  1  0.92820000  0.86080000  0.07640000  1.0 -0.1444214227
C  C239  1  0.07180000  0.36080000  0.42360000  1.0 -0.1444214227
C  C240  1  0.42820000  0.63920000  0.92360000  1.0 -0.1444214227
C  C241  1  0.61710000  0.17300000  0.53420000  1.0 0.24079383
C  C242  1  0.88290000  0.82700000  0.03420000  1.0 0.24079383
C  C243  1  0.11710000  0.32700000  0.46580000  1.0 0.24079383
C  C244  1  0.38290000  0.67300000  0.96580000  1.0 0.24079383
C  C245  1  0.68370000  0.13560000  0.50710000  1.0 -0.5005256662
C  C246  1  0.81630000  0.86440000  0.00710000  1.0 -0.5005256662
C  C247  1  0.18370000  0.36440000  0.49290000  1.0 -0.5005256662
C  C248  1  0.31630000  0.63560000  0.99290000  1.0 -0.5005256662
Br  Br1  1  0.39305000  0.62701000  0.76485000  1.0 -0.0024538732
Br  Br2  1  0.10695000  0.37299000  0.26485000  1.0 -0.0024538732
Br  Br3  1  0.89305000  0.87299000  0.23515000  1.0 -0.0024538732
Br  Br4  1  0.60695000  0.12701000  0.73515000  1.0 -0.0024538732
N  N1  1  0.20840000  0.50410000  0.73860000  1.0 -0.3093452061
N  N2  1  0.29160000  0.49590000  0.23860000  1.0 -0.3093452061
N  N3  1  0.70840000  0.99590000  0.26140000  1.0 -0.3093452061
N  N4  1  0.79160000  0.00410000  0.76140000  1.0 -0.3093452061
N  N5  1  0.37350000  0.45230000  0.74980000  1.0 -0.3165881688
N  N6  1  0.12650000  0.54770000  0.24980000  1.0 -0.3165881688
N  N7  1  0.87350000  0.04770000  0.25020000  1.0 -0.3165881688
N  N8  1  0.62650000  0.95230000  0.75020000  1.0 -0.3165881688
N  N9  1  0.14280000  0.39880000  0.71830000  1.0 -0.3165881688
N  N10  1  0.35720000  0.60120000  0.21830000  1.0 -0.3165881688
N  N11  1  0.64280000  0.10120000  0.28170000  1.0 -0.3165881688
N  N12  1  0.85720000  0.89880000  0.78170000  1.0 -0.3165881688
N  N13  1  0.22770000  0.42390000  0.80810000  1.0 -0.3863745026
N  N14  1  0.27230000  0.57610000  0.30810000  1.0 -0.3811361616
N  N15  1  0.72770000  0.07610000  0.19190000  1.0 -0.3811361616
N  N16  1  0.77230000  0.92390000  0.69190000  1.0 -0.3811361616
N  N17  1  0.28760000  0.35150000  0.73160000  1.0 -0.2927950712
N  N18  1  0.21240000  0.64850000  0.23160000  1.0 -0.2927950712
N  N19  1  0.78760000  0.14850000  0.26840000  1.0 -0.2927950712
N  N20  1  0.71240000  0.85150000  0.76840000  1.0 -0.2927950712
N  N21  1  0.28150000  0.44230000  0.65810000  1.0 -0.3014798926
N  N22  1  0.21850000  0.55770000  0.15810000  1.0 -0.3014798926
N  N23  1  0.78150000  0.05770000  0.34190000  1.0 -0.3014798926
N  N24  1  0.71850000  0.94230000  0.84190000  1.0 -0.3014798926
N  N25  1  0.26910000  0.39580000  0.83460000  1.0 0.3859060911
N  N26  1  0.23090000  0.60420000  0.33460000  1.0 0.3859060911
N  N27  1  0.76910000  0.10420000  0.16540000  1.0 0.3859060911
N  N28  1  0.73090000  0.89580000  0.66540000  1.0 0.3859060911
N  N29  1  0.05650000  0.64690000  0.88070000  1.0 -0.6105941725
N  N30  1  0.44350000  0.35310000  0.38070000  1.0 -0.6105941725
N  N31  1  0.55650000  0.85310000  0.11930000  1.0 -0.6105941725
N  N32  1  0.94350000  0.14690000  0.61930000  1.0 -0.6105941725
N  N33  1  0.28510000  0.65030000  0.55770000  1.0 -0.6288324388
N  N34  1  0.21490000  0.34970000  0.05770000  1.0 -0.6288324388
N  N35  1  0.78510000  0.84970000  0.44230000  1.0 -0.6288324388
N  N36  1  0.71490000  0.15030000  0.94230000  1.0 -0.6288324388
N  N37  1  0.31160000  0.36810000  0.86350000  1.0 -0.3579861464
N  N38  1  0.18840000  0.63190000  0.36350000  1.0 -0.3579861464
N  N39  1  0.81160000  0.13190000  0.13650000  1.0 -0.3579861464
N  N40  1  0.68840000  0.86810000  0.63650000  1.0 -0.3579861464
N  N41  1  0.36400000  0.44470000  0.58570000  1.0 -0.0706649477
N  N42  1  0.13600000  0.55530000  0.08570000  1.0 -0.0706649477
N  N43  1  0.86400000  0.05530000  0.41430000  1.0 -0.0706649477
N  N44  1  0.63600000  0.94470000  0.91430000  1.0 -0.0706649477
N  N45  1  0.75890000  0.39950000  0.76120000  1.0 -0.6195035867
N  N46  1  0.74110000  0.60050000  0.26120000  1.0 -0.6105941725
N  N47  1  0.25890000  0.10050000  0.23880000  1.0 -0.6105941725
N  N48  1  0.24110000  0.89950000  0.73880000  1.0 -0.6195035867
N  N49  1  0.95790000  0.24810000  0.83950000  1.0 -0.5918887424
N  N50  1  0.54210000  0.75190000  0.33950000  1.0 -0.5918887424
N  N51  1  0.45790000  0.25190000  0.16050000  1.0 -0.5918887424
N  N52  1  0.04210000  0.74810000  0.66050000  1.0 -0.5918887424
N  N53  1  0.22140000  0.10000000  0.72480000  1.0 -0.6195035867
N  N54  1  0.27860000  0.90000000  0.22480000  1.0 -0.6195035867
N  N55  1  0.72140000  0.40000000  0.27520000  1.0 -0.6195035867
N  N56  1  0.77860000  0.60000000  0.77520000  1.0 -0.6195035867
N  N57  1  0.81970000  0.49880000  0.59090000  1.0 -0.5692180934
N  N58  1  0.68030000  0.50120000  0.09090000  1.0 -0.5692180934
N  N59  1  0.31970000  0.00120000  0.40910000  1.0 -0.5692180934
N  N60  1  0.18030000  0.99880000  0.90910000  1.0 -0.5692180934
N  N61  1  0.49820000  0.16940000  0.60010000  1.0 -0.3093452061
N  N62  1  0.00180000  0.83060000  0.10010000  1.0 -0.3093452061
N  N63  1  0.99820000  0.33060000  0.39990000  1.0 -0.3093452061
N  N64  1  0.50180000  0.66940000  0.89990000  1.0 -0.3093452061
O  O1  1  0.18980000  0.66860000  0.85150000  1.0 -0.5618123354
O  O2  1  0.31020000  0.33140000  0.35150000  1.0 -0.5618123354
O  O3  1  0.68980000  0.83140000  0.14850000  1.0 -0.5618123354
O  O4  1  0.81020000  0.16860000  0.64850000  1.0 -0.5618123354
O  O5  1  0.17360000  0.69740000  0.59500000  1.0 -0.5381630453
O  O6  1  0.32640000  0.30260000  0.09500000  1.0 -0.5381630453
O  O7  1  0.67360000  0.80260000  0.40500000  1.0 -0.5381630453
O  O8  1  0.82640000  0.19740000  0.90500000  1.0 -0.5381630453
O  O9  1  0.70990000  0.36390000  0.68400000  1.0 -0.5479511859
O  O10  1  0.79010000  0.63610000  0.18400000  1.0 -0.5479511859
O  O11  1  0.20990000  0.13610000  0.31600000  1.0 -0.5479511859
O  O12  1  0.29010000  0.86390000  0.81600000  1.0 -0.5479511859
O  O13  1  0.51280000  0.42519000  0.57665000  1.0 -0.2582997994
O  O14  1  0.98720000  0.57481000  0.07665000  1.0 -0.2582997994
O  O15  1  0.01280000  0.07481000  0.42335000  1.0 -0.2582997994
O  O16  1  0.48720000  0.92519000  0.92335000  1.0 -0.2582997994
O  O17  1  0.88500000  0.31110000  0.79070000  1.0 -0.5316415222
O  O18  1  0.61500000  0.68890000  0.29070000  1.0 -0.5316415222
O  O19  1  0.38500000  0.18890000  0.20930000  1.0 -0.5316415222
O  O20  1  0.11500000  0.81110000  0.70930000  1.0 -0.5316415222
O  O21  1  0.24520000  0.15460000  0.65270000  1.0 -0.600883642
O  O22  1  0.25480000  0.84540000  0.15270000  1.0 -0.600883642
O  O23  1  0.74520000  0.34540000  0.34730000  1.0 -0.600883642
O  O24  1  0.75480000  0.65460000  0.84730000  1.0 -0.600883642
O  O25  1  0.37060000  0.33425000  0.56938000  1.0 -0.4593781393
O  O26  1  0.12940000  0.66575000  0.06938000  1.0 -0.4593781393
O  O27  1  0.87060000  0.16575000  0.43062000  1.0 -0.4593781393
O  O28  1  0.62940000  0.83425000  0.93062000  1.0 -0.4593781393
O  O29  1  0.58240000  0.23090000  0.64680000  1.0 -0.5918887424
O  O30  1  0.91760000  0.76910000  0.14680000  1.0 -0.5918887424
O  O31  1  0.08240000  0.26910000  0.35320000  1.0 -0.5918887424
O  O32  1  0.41760000  0.73090000  0.85320000  1.0 -0.5918887424
O  O33  1  0.73790000  0.24950000  0.75820000  1.0 -0.8102644177
O  O34  1  0.76210000  0.75050000  0.25820000  1.0 -0.8102644177
O  O35  1  0.23790000  0.25050000  0.24180000  1.0 -0.8102644177
O  O36  1  0.26210000  0.74950000  0.74180000  1.0 -0.8102644177
O  O37  1  0.81570000  0.29210000  0.58480000  1.0 -0.7886023911
O  O38  1  0.68430000  0.70790000  0.08480000  1.0 -0.7886023911
O  O39  1  0.31570000  0.20790000  0.41520000  1.0 -0.7886023911
O  O40  1  0.18430000  0.79210000  0.91520000  1.0 -0.7886023911
O  O41  1  0.86050000  0.40960000  0.56690000  1.0 -0.5479511859
O  O42  1  0.63950000  0.59040000  0.06690000  1.0 -0.5479511859
O  O43  1  0.36050000  0.09040000  0.43310000  1.0 -0.5479511859
O  O44  1  0.13950000  0.90960000  0.93310000  1.0 -0.5479511859
O  O45  1  0.51510000  0.28328000  0.52605000  1.0 -0.4406150969
O  O46  1  0.98490000  0.71672000  0.02605000  1.0 -0.4406150969
O  O47  1  0.01510000  0.21672000  0.47395000  1.0 -0.4406150969
O  O48  1  0.48490000  0.78328000  0.97395000  1.0 -0.4406150969
O  O49  1  0.66550000  0.40730000  0.51100000  1.0 -0.5005256662
O  O50  1  0.83450000  0.59270000  0.01100000  1.0 -0.5005256662
O  O51  1  0.16550000  0.09270000  0.48900000  1.0 -0.5005256662
O  O52  1  0.33450000  0.90730000  0.98900000  1.0 -0.5005256662
O  O53  1  0.55240000  0.18760000  0.49453000  1.0 -0.4593781393
O  O54  1  0.94760000  0.81240000  0.99453000  1.0 -0.4593781393
O  O55  1  0.05240000  0.31240000  0.50547000  1.0 -0.4593781393
O  O56  1  0.44760000  0.68760000  0.00547000  1.0 -0.4532477471
O  O57  1  0.62910000  0.27469000  0.45550000  1.0 -0.7714061786
O  O58  1  0.87090000  0.72531000  0.95550000  1.0 -0.7714061786
O  O59  1  0.12910000  0.22531000  0.54450000  1.0 -0.7714061786
O  O60  1  0.37090000  0.77469000  0.04450000  1.0 -0.7714061786
O  O61  1  0.47170000  0.25110000  0.43520000  1.0 -0.7329842689
O  O62  1  0.02830000  0.74890000  0.93520000  1.0 -0.7329842689
O  O63  1  0.97170000  0.24890000  0.56480000  1.0 -0.7329842689
O  O64  1  0.52830000  0.75110000  0.06480000  1.0 -0.7329842689
O  O65  1  0.60240000  0.42900000  0.39620000  1.0 -0.7714061786
O  O66  1  0.89760000  0.57100000  0.89620000  1.0 -0.7752332481
O  O67  1  0.10240000  0.07100000  0.60380000  1.0 -0.7714061786
O  O68  1  0.39760000  0.92900000  0.10380000  1.0 -0.7714061786
O  O69  1  0.80060000  0.26530000  0.46940000  1.0 -0.3811361616
O  O70  1  0.69940000  0.73470000  0.96940000  1.0 -0.3811361616
O  O71  1  0.30060000  0.23470000  0.53060000  1.0 -0.3863745026
O  O72  1  0.19940000  0.76530000  0.03060000  1.0 -0.3863745026
O  O73  1  0.85350000  0.39950000  0.45200000  1.0 -0.7957710566
O  O74  1  0.64650000  0.60050000  0.95200000  1.0 -0.7957710566
O  O75  1  0.35350000  0.10050000  0.54800000  1.0 -0.7957710566
O  O76  1  0.14650000  0.89950000  0.04800000  1.0 -0.7957710566
