# DDEC6 charges by PACMAN v1.1 (https://github.com/mtap-research/PACMAN-charge/)
data_AJOPIB_ASR_pacman
_symmetry_space_group_name_H-M   'P 1'
_cell_length_a   31.21040000
_cell_length_b   31.21040000
_cell_length_c   26.66160000
_cell_angle_alpha   70.58960000
_cell_angle_beta   109.41000000
_cell_angle_gamma   64.72680000
_symmetry_Int_Tables_number   1
_chemical_formula_structural   Yb8H37C64(NO8)5
_chemical_formula_sum   'Yb32 H148 C256 N20 O160'
_cell_volume   18410.65477687
_cell_formula_units_Z   4
loop_
 _symmetry_equiv_pos_site_id
 _symmetry_equiv_pos_as_xyz
  1  'x, y, z'
loop_
 _atom_site_type_symbol
 _atom_site_label
 _atom_site_symmetry_multiplicity
 _atom_site_fract_x
 _atom_site_fract_y
 _atom_site_fract_z
 _atom_site_occupancy
 _atom_site_charge
Yb  Yb1  1  0.08284000  0.41810000  0.76166000  1.0 2.1290108536
Yb  Yb2  1  0.11861000  0.28413000  0.87689000  1.0 2.1009406082
Yb  Yb3  1  0.14223000  0.36953000  0.93254000  1.0 2.1493869101
Yb  Yb4  1  0.99663000  0.41929000  0.83059000  1.0 2.1493869101
Yb  Yb5  1  0.74920000  0.15432000  0.80432000  1.0 2.1009406082
Yb  Yb6  1  0.82128000  0.17932000  0.72856000  1.0 2.0164799069
Yb  Yb7  1  0.67004000  0.24496000  0.63001000  1.0 2.1401660417
Yb  Yb8  1  0.71499000  0.29761000  0.72570000  1.0 2.1896260355
Yb  Yb9  1  0.41810000  0.08284000  0.73834000  1.0 2.1290108536
Yb  Yb10  1  0.28413000  0.11861000  0.62311000  1.0 2.1009406082
Yb  Yb11  1  0.36953000  0.14223000  0.56746000  1.0 2.1493869101
Yb  Yb12  1  0.41929000  0.99663000  0.66941000  1.0 2.1493869101
Yb  Yb13  1  0.15432000  0.74920000  0.69568000  1.0 2.1009406082
Yb  Yb14  1  0.17932000  0.82128000  0.77144000  1.0 2.0164799069
Yb  Yb15  1  0.24496000  0.67004000  0.86999000  1.0 2.1401660417
Yb  Yb16  1  0.29761000  0.71499000  0.77430000  1.0 2.1896260355
Yb  Yb17  1  0.91716000  0.58190000  0.23834000  1.0 2.1290108536
Yb  Yb18  1  0.88139000  0.71587000  0.12311000  1.0 2.1009406082
Yb  Yb19  1  0.85777000  0.63047000  0.06746000  1.0 2.1493869101
Yb  Yb20  1  0.00337000  0.58071000  0.16941000  1.0 2.1493869101
Yb  Yb21  1  0.25080000  0.84568000  0.19568000  1.0 2.1009406082
Yb  Yb22  1  0.17872000  0.82068000  0.27144000  1.0 2.0164799069
Yb  Yb23  1  0.32996000  0.75504000  0.36999000  1.0 2.1401660417
Yb  Yb24  1  0.28501000  0.70239000  0.27430000  1.0 2.1896260355
Yb  Yb25  1  0.58190000  0.91716000  0.26166000  1.0 2.1290108536
Yb  Yb26  1  0.71587000  0.88139000  0.37689000  1.0 2.1009406082
Yb  Yb27  1  0.63047000  0.85777000  0.43254000  1.0 2.1493869101
Yb  Yb28  1  0.58071000  0.00337000  0.33059000  1.0 2.1493869101
Yb  Yb29  1  0.84568000  0.25080000  0.30432000  1.0 2.1057140206
Yb  Yb30  1  0.82068000  0.17872000  0.22856000  1.0 2.0164799069
Yb  Yb31  1  0.75504000  0.32996000  0.13001000  1.0 2.1401660417
Yb  Yb32  1  0.70239000  0.28501000  0.22570000  1.0 2.1896260355
H  H1  1  0.30040000  0.12880000  0.03020000  1.0 0.1284088008
H  H2  1  0.23130000  0.30110000  0.74840000  1.0 0.1284088008
H  H3  1  0.21120000  0.46600000  0.91690000  1.0 0.1284088008
H  H4  1  0.05830000  0.52030000  0.55140000  1.0 0.1284088008
H  H5  1  0.93320000  0.50660000  0.91720000  1.0 0.1198155838
H  H6  1  0.03050000  0.54230000  0.44830000  1.0 0.1387000128
H  H7  1  0.41220000  0.15220000  0.16880000  1.0 0.1284088008
H  H8  1  0.92110000  0.00770000  0.99440000  1.0 0.1198155838
H  H9  1  0.22720000  0.53420000  0.90140000  1.0 0.113712055
H  H10  1  0.31320000  0.22820000  0.08650000  1.0 0.1284088008
H  H11  1  0.00160000  0.23920000  0.79970000  1.0 0.1284088008
H  H12  1  0.82110000  0.35510000  0.75480000  1.0 0.1198155838
H  H13  1  0.17460000  0.20920000  0.78250000  1.0 0.1387000128
H  H14  1  0.88540000  0.37060000  0.78840000  1.0 0.1198155838
H  H15  1  0.99180000  0.03980000  0.89980000  1.0 0.1198155838
H  H16  1  0.92780000  0.99920000  0.75420000  1.0 0.1387000128
H  H17  1  0.40010000  0.05570000  0.10710000  1.0 0.1198155838
H  H18  1  0.83940000  0.21460000  0.56860000  1.0 0.1198155838
H  H19  1  0.67230000  0.28530000  0.46220000  1.0 0.1198155838
H  H20  1  0.67590000  0.30270000  0.37220000  1.0 0.1198155838
H  H21  1  0.21480000  0.00020000  0.01640000  1.0 0.1284088008
H  H22  1  0.15230000  0.13350000  0.06440000  1.0 0.1387000128
H  H23  1  0.17850000  0.03690000  0.12590000  1.0 0.1387000128
H  H24  1  0.20200000  0.08760000  0.95890000  1.0 0.1284088008
H  H25  1  0.90100000  0.55180000  0.97610000  1.0 0.1387000128
H  H26  1  0.56650000  0.47590000  0.59630000  1.0 0.1198155838
H  H27  1  0.51330000  0.42930000  0.48000000  1.0 0.1198155838
H  H28  1  0.12380000  0.65220000  0.68040000  1.0 0.3185561758
H  H29  1  0.10340000  0.62160000  0.65970000  1.0 0.2897569306
H  H30  1  0.92840000  0.20160000  0.75280000  1.0 0.3185561758
H  H31  1  0.98190000  0.19770000  0.77610000  1.0 0.2897569306
H  H32  1  0.89160000  0.21500000  0.52340000  1.0 0.2897569306
H  H33  1  0.86880000  0.23380000  0.45470000  1.0 0.3117254351
H  H34  1  0.98060000  0.10980000  0.75270000  1.0 0.3252002646
H  H35  1  0.03700000  0.07840000  0.76000000  1.0 0.2764552509
H  H36  1  0.11440000  0.51560000  0.70380000  1.0 0.3380082523
H  H37  1  0.10960000  0.56840000  0.66950000  1.0 0.295536158
H  H38  1  0.12880000  0.30040000  0.46980000  1.0 0.1284088008
H  H39  1  0.30110000  0.23130000  0.75160000  1.0 0.1284088008
H  H40  1  0.46600000  0.21120000  0.58310000  1.0 0.1284088008
H  H41  1  0.52030000  0.05830000  0.94860000  1.0 0.1284088008
H  H42  1  0.50660000  0.93320000  0.58280000  1.0 0.1198155838
H  H43  1  0.54230000  0.03050000  0.05170000  1.0 0.1387000128
H  H44  1  0.15220000  0.41220000  0.33120000  1.0 0.1284088008
H  H45  1  0.00770000  0.92110000  0.50560000  1.0 0.1198155838
H  H46  1  0.53420000  0.22720000  0.59860000  1.0 0.113712055
H  H47  1  0.22820000  0.31320000  0.41350000  1.0 0.1284088008
H  H48  1  0.23920000  0.00160000  0.70030000  1.0 0.1284088008
H  H49  1  0.35510000  0.82110000  0.74520000  1.0 0.1198155838
H  H50  1  0.20920000  0.17460000  0.71750000  1.0 0.1387000128
H  H51  1  0.37060000  0.88540000  0.71160000  1.0 0.1198155838
H  H52  1  0.03980000  0.99180000  0.60020000  1.0 0.1198155838
H  H53  1  0.99920000  0.92780000  0.74580000  1.0 0.1387000128
H  H54  1  0.05570000  0.40010000  0.39290000  1.0 0.1198155838
H  H55  1  0.21460000  0.83940000  0.93140000  1.0 0.1198155838
H  H56  1  0.28530000  0.67230000  0.03780000  1.0 0.1198155838
H  H57  1  0.30270000  0.67590000  0.12780000  1.0 0.1198155838
H  H58  1  0.00020000  0.21480000  0.48360000  1.0 0.1284088008
H  H59  1  0.13350000  0.15230000  0.43560000  1.0 0.1387000128
H  H60  1  0.03690000  0.17850000  0.37410000  1.0 0.1387000128
H  H61  1  0.08760000  0.20200000  0.54110000  1.0 0.1284088008
H  H62  1  0.55180000  0.90100000  0.52390000  1.0 0.1387000128
H  H63  1  0.47590000  0.56650000  0.90370000  1.0 0.1284088008
H  H64  1  0.42930000  0.51330000  0.02000000  1.0 0.1198155838
H  H65  1  0.65220000  0.12380000  0.81960000  1.0 0.3185561758
H  H66  1  0.62160000  0.10340000  0.84030000  1.0 0.2897569306
H  H67  1  0.20160000  0.92840000  0.74720000  1.0 0.3185561758
H  H68  1  0.19770000  0.98190000  0.72390000  1.0 0.2897569306
H  H69  1  0.21500000  0.89160000  0.97660000  1.0 0.2897569306
H  H70  1  0.23380000  0.86880000  0.04530000  1.0 0.3117254351
H  H71  1  0.10980000  0.98060000  0.74730000  1.0 0.3252002646
H  H72  1  0.07840000  0.03700000  0.74000000  1.0 0.2764552509
H  H73  1  0.51560000  0.11440000  0.79620000  1.0 0.3380082523
H  H74  1  0.56840000  0.10960000  0.83050000  1.0 0.295536158
H  H75  1  0.69960000  0.87120000  0.96980000  1.0 0.1284088008
H  H76  1  0.76870000  0.69890000  0.25160000  1.0 0.1284088008
H  H77  1  0.78880000  0.53400000  0.08310000  1.0 0.1284088008
H  H78  1  0.94170000  0.47970000  0.44860000  1.0 0.1284088008
H  H79  1  0.06680000  0.49340000  0.08280000  1.0 0.1198155838
H  H80  1  0.96950000  0.45770000  0.55170000  1.0 0.1387000128
H  H81  1  0.58780000  0.84780000  0.83120000  1.0 0.1284088008
H  H82  1  0.07890000  0.99230000  0.00560000  1.0 0.1198155838
H  H83  1  0.77280000  0.46580000  0.09860000  1.0 0.113712055
H  H84  1  0.68680000  0.77180000  0.91350000  1.0 0.1284088008
H  H85  1  0.99840000  0.76080000  0.20030000  1.0 0.1284088008
H  H86  1  0.17890000  0.64490000  0.24520000  1.0 0.1198155838
H  H87  1  0.82540000  0.79080000  0.21750000  1.0 0.1387000128
H  H88  1  0.11460000  0.62940000  0.21160000  1.0 0.1198155838
H  H89  1  0.00820000  0.96020000  0.10020000  1.0 0.1198155838
H  H90  1  0.07220000  0.00080000  0.24580000  1.0 0.1387000128
H  H91  1  0.59990000  0.94430000  0.89290000  1.0 0.1198155838
H  H92  1  0.16060000  0.78540000  0.43140000  1.0 0.1198155838
H  H93  1  0.32770000  0.71470000  0.53780000  1.0 0.1198155838
H  H94  1  0.32410000  0.69730000  0.62780000  1.0 0.1198155838
H  H95  1  0.78520000  0.99980000  0.98360000  1.0 0.1284088008
H  H96  1  0.84770000  0.86650000  0.93560000  1.0 0.1387000128
H  H97  1  0.82150000  0.96310000  0.87410000  1.0 0.1387000128
H  H98  1  0.79800000  0.91240000  0.04110000  1.0 0.1284088008
H  H99  1  0.09900000  0.44820000  0.02390000  1.0 0.1387000128
H  H100  1  0.43350000  0.52410000  0.40370000  1.0 0.1198155838
H  H101  1  0.48670000  0.57070000  0.52000000  1.0 0.1198155838
H  H102  1  0.87620000  0.34780000  0.31960000  1.0 0.3185561758
H  H103  1  0.89660000  0.37840000  0.34030000  1.0 0.2897569306
H  H104  1  0.07160000  0.79840000  0.24720000  1.0 0.3185561758
H  H105  1  0.01810000  0.80230000  0.22390000  1.0 0.2897569306
H  H106  1  0.10840000  0.78500000  0.47660000  1.0 0.2897569306
H  H107  1  0.13120000  0.76620000  0.54530000  1.0 0.3117254351
H  H108  1  0.01940000  0.89020000  0.24730000  1.0 0.3252002646
H  H109  1  0.96300000  0.92160000  0.24000000  1.0 0.2764552509
H  H110  1  0.88560000  0.48440000  0.29620000  1.0 0.3380082523
H  H111  1  0.89040000  0.43160000  0.33050000  1.0 0.2897569306
H  H112  1  0.87120000  0.69960000  0.53020000  1.0 0.1284088008
H  H113  1  0.69890000  0.76870000  0.24840000  1.0 0.1284088008
H  H114  1  0.53400000  0.78880000  0.41690000  1.0 0.1284088008
H  H115  1  0.47970000  0.94170000  0.05140000  1.0 0.1284088008
H  H116  1  0.49340000  0.06680000  0.41720000  1.0 0.1198155838
H  H117  1  0.45770000  0.96950000  0.94830000  1.0 0.1387000128
H  H118  1  0.84780000  0.58780000  0.66880000  1.0 0.1284088008
H  H119  1  0.99230000  0.07890000  0.49440000  1.0 0.1198155838
H  H120  1  0.46580000  0.77280000  0.40140000  1.0 0.113712055
H  H121  1  0.77180000  0.68680000  0.58650000  1.0 0.1284088008
H  H122  1  0.76080000  0.99840000  0.29970000  1.0 0.1284088008
H  H123  1  0.64490000  0.17890000  0.25480000  1.0 0.1198155838
H  H124  1  0.79080000  0.82540000  0.28250000  1.0 0.1387000128
H  H125  1  0.62940000  0.11460000  0.28840000  1.0 0.1198155838
H  H126  1  0.96020000  0.00820000  0.39980000  1.0 0.1198155838
H  H127  1  0.00080000  0.07220000  0.25420000  1.0 0.1387000128
H  H128  1  0.94430000  0.59990000  0.60710000  1.0 0.1198155838
H  H129  1  0.78540000  0.16060000  0.06860000  1.0 0.1198155838
H  H130  1  0.71470000  0.32770000  0.96220000  1.0 0.1198155838
H  H131  1  0.69730000  0.32410000  0.87220000  1.0 0.1198155838
H  H132  1  0.99980000  0.78520000  0.51640000  1.0 0.1284088008
H  H133  1  0.86650000  0.84770000  0.56440000  1.0 0.1387000128
H  H134  1  0.96310000  0.82150000  0.62590000  1.0 0.1387000128
H  H135  1  0.91240000  0.79800000  0.45890000  1.0 0.1284088008
H  H136  1  0.44820000  0.09900000  0.47610000  1.0 0.1387000128
H  H137  1  0.52410000  0.43350000  0.09630000  1.0 0.1198155838
H  H138  1  0.57070000  0.48670000  0.98000000  1.0 0.1198155838
H  H139  1  0.34780000  0.87620000  0.18040000  1.0 0.3185561758
H  H140  1  0.37840000  0.89660000  0.15970000  1.0 0.2897569306
H  H141  1  0.79840000  0.07160000  0.25280000  1.0 0.3185561758
H  H142  1  0.80230000  0.01810000  0.27610000  1.0 0.2897569306
H  H143  1  0.78500000  0.10840000  0.02340000  1.0 0.2897569306
H  H144  1  0.76620000  0.13120000  0.95470000  1.0 0.3117254351
H  H145  1  0.89020000  0.01940000  0.25270000  1.0 0.3252002646
H  H146  1  0.92160000  0.96300000  0.26000000  1.0 0.2764552509
H  H147  1  0.48440000  0.88560000  0.20380000  1.0 0.3380082523
H  H148  1  0.43160000  0.89040000  0.16950000  1.0 0.295536158
C  C1  1  0.02250000  0.47890000  0.56280000  1.0 0.0117311481
C  C2  1  0.16480000  0.49680000  0.82480000  1.0 -0.1176736221
C  C3  1  0.32220000  0.13500000  0.05670000  1.0 -0.102460848
C  C4  1  0.23180000  0.26980000  0.75300000  1.0 -0.0793502811
C  C5  1  0.19550000  0.26450000  0.76300000  1.0 -0.019963175
C  C6  1  0.15750000  0.45210000  0.83480000  1.0 0.6496191546
C  C7  1  0.15610000  0.29930000  0.77700000  1.0 0.6316947539
C  C8  1  0.19570000  0.49490000  0.87540000  1.0 -0.1176736221
C  C9  1  0.29610000  0.18850000  0.04970000  1.0 0.0214623916
C  C10  1  0.95500000  0.04560000  0.74000000  1.0 -0.1088219919
C  C11  1  0.23060000  0.23800000  0.99730000  1.0 0.6195562904
C  C12  1  0.03660000  0.51060000  0.53120000  1.0 -0.1088219919
C  C13  1  0.04210000  0.45950000  0.63430000  1.0 0.5409882043
C  C14  1  0.95890000  0.50490000  0.95000000  1.0 -0.0793502811
C  C15  1  0.14440000  0.53620000  0.76160000  1.0 0.2166890924
C  C16  1  0.01680000  0.52680000  0.46920000  1.0 -0.0913780886
C  C17  1  0.39040000  0.14660000  0.14120000  1.0 -0.0793502811
C  C18  1  0.22540000  0.94900000  0.12700000  1.0 0.5282759641
C  C19  1  0.89220000  0.07960000  0.87700000  1.0 0.6195562904
C  C20  1  0.94690000  0.03850000  0.94200000  1.0 -0.019963175
C  C21  1  0.94770000  0.31170000  0.79810000  1.0 -0.031627524
C  C22  1  0.95210000  0.00730000  0.99700000  1.0 -0.0913780886
C  C23  1  0.17880000  0.58140000  0.80100000  1.0 -0.1088219919
C  C24  1  0.90760000  0.09320000  0.74000000  1.0 0.5684357856
C  C25  1  0.20470000  0.53570000  0.86610000  1.0 -0.0793502811
C  C26  1  0.32940000  0.19320000  0.09030000  1.0 -0.1088219919
C  C27  1  0.15020000  0.18020000  0.95900000  1.0 0.5409882043
C  C28  1  0.96520000  0.26360000  0.79100000  1.0 -0.2113585982
C  C29  1  0.85750000  0.33150000  0.76300000  1.0 -0.0612938802
C  C30  1  0.47340000  0.04680000  0.19660000  1.0 0.6496191546
C  C31  1  0.03330000  0.45530000  0.93500000  1.0 0.6063687478
C  C32  1  0.19230000  0.22070000  0.76500000  1.0 -0.0913780886
C  C33  1  0.89730000  0.33930000  0.78400000  1.0 -0.1088219919
C  C34  1  0.99380000  0.02720000  0.93800000  1.0 -0.1088219919
C  C35  1  0.95510000  0.00190000  0.74900000  1.0 -0.0730885233
C  C36  1  0.99890000  0.04610000  0.74900000  1.0 0.1870354836
C  C37  1  0.18620000  0.62520000  0.79300000  1.0 0.6672231232
C  C38  1  0.01450000  0.47850000  0.96700000  1.0 -0.0913780886
C  C39  1  0.92200000  0.25800000  0.76850000  1.0 0.2360245672
C  C40  1  0.15140000  0.57940000  0.75670000  1.0 0.1387000128
C  C41  1  0.98740000  0.32300000  0.82000000  1.0 0.6496191546
C  C42  1  0.41340000  0.09740000  0.14690000  1.0 -0.031627524
C  C43  1  0.87270000  0.28570000  0.75490000  1.0 -0.16019762
C  C44  1  0.38220000  0.09000000  0.10470000  1.0 -0.0913780886
C  C45  1  0.83550000  0.27150000  0.73300000  1.0 0.637529326
C  C46  1  0.76210000  0.27930000  0.36200000  1.0 0.6316947539
C  C47  1  0.80850000  0.24270000  0.47500000  1.0 0.252227505
C  C48  1  0.80640000  0.23240000  0.52900000  1.0 -0.1484978448
C  C49  1  0.75550000  0.24830000  0.52410000  1.0 -0.0913780886
C  C50  1  0.70680000  0.27460000  0.46500000  1.0 -0.0730885233
C  C51  1  0.70880000  0.28500000  0.41180000  1.0 -0.0793502811
C  C52  1  0.75980000  0.26900000  0.41670000  1.0 -0.16019762
C  C53  1  0.16500000  0.12060000  0.99900000  1.0 0.0117311481
C  C54  1  0.20830000  0.00850000  0.07800000  1.0 0.0214623916
C  C55  1  0.20650000  0.02510000  0.03000000  1.0 -0.102460848
C  C56  1  0.16410000  0.10730000  0.05300000  1.0 -0.0793502811
C  C57  1  0.18340000  0.04760000  0.09200000  1.0 -0.1313951264
C  C58  1  0.19270000  0.08050000  0.98900000  1.0 -0.102460848
C  C59  1  0.93810000  0.53210000  0.98500000  1.0 -0.1088219919
C  C60  1  0.75480000  0.23280000  0.57460000  1.0 0.5546042596
C  C61  1  0.53880000  0.48560000  0.55760000  1.0 -0.0913780886
C  C62  1  0.50770000  0.45730000  0.48900000  1.0 -0.102460848
C  C63  1  0.60140000  0.37740000  0.59200000  1.0 0.5920105402
C  C64  1  0.54520000  0.44260000  0.54800000  1.0 0.0214623916
C  C65  1  0.47890000  0.02250000  0.93720000  1.0 0.0117311481
C  C66  1  0.49680000  0.16480000  0.67520000  1.0 -0.1176736221
C  C67  1  0.13500000  0.32220000  0.44330000  1.0 -0.102460848
C  C68  1  0.26980000  0.23180000  0.74700000  1.0 -0.0793502811
C  C69  1  0.26450000  0.19550000  0.73700000  1.0 -0.019963175
C  C70  1  0.45210000  0.15750000  0.66520000  1.0 0.6496191546
C  C71  1  0.29930000  0.15610000  0.72300000  1.0 0.6316947539
C  C72  1  0.49490000  0.19570000  0.62460000  1.0 -0.1088219919
C  C73  1  0.18850000  0.29610000  0.45030000  1.0 0.0214623916
C  C74  1  0.04560000  0.95500000  0.76000000  1.0 -0.1088219919
C  C75  1  0.23800000  0.23060000  0.50270000  1.0 0.6195562904
C  C76  1  0.51060000  0.03660000  0.96880000  1.0 -0.1088219919
C  C77  1  0.45950000  0.04210000  0.86570000  1.0 0.5409882043
C  C78  1  0.50490000  0.95890000  0.55000000  1.0 -0.0793502811
C  C79  1  0.53620000  0.14440000  0.73840000  1.0 0.2166890924
C  C80  1  0.52680000  0.01680000  0.03080000  1.0 -0.0913780886
C  C81  1  0.14660000  0.39040000  0.35880000  1.0 -0.0793502811
C  C82  1  0.94900000  0.22540000  0.37300000  1.0 0.5282759641
C  C83  1  0.07960000  0.89220000  0.62300000  1.0 0.6195562904
C  C84  1  0.03850000  0.94690000  0.55800000  1.0 -0.019963175
C  C85  1  0.31170000  0.94770000  0.70190000  1.0 -0.031627524
C  C86  1  0.00730000  0.95210000  0.50300000  1.0 -0.0913780886
C  C87  1  0.58140000  0.17880000  0.69900000  1.0 -0.1088219919
C  C88  1  0.09320000  0.90760000  0.76000000  1.0 0.5684357856
C  C89  1  0.53570000  0.20470000  0.63390000  1.0 -0.0793502811
C  C90  1  0.19320000  0.32940000  0.40970000  1.0 -0.1088219919
C  C91  1  0.18020000  0.15020000  0.54100000  1.0 0.5409882043
C  C92  1  0.26360000  0.96520000  0.70900000  1.0 -0.2113585982
C  C93  1  0.33150000  0.85750000  0.73700000  1.0 -0.0612938802
C  C94  1  0.04680000  0.47340000  0.30340000  1.0 0.6496191546
C  C95  1  0.45530000  0.03330000  0.56500000  1.0 0.6063687478
C  C96  1  0.22070000  0.19230000  0.73500000  1.0 -0.0913780886
C  C97  1  0.33930000  0.89730000  0.71600000  1.0 -0.1088219919
C  C98  1  0.02720000  0.99380000  0.56200000  1.0 -0.1088219919
C  C99  1  0.00190000  0.95510000  0.75100000  1.0 -0.0793502811
C  C100  1  0.04610000  0.99890000  0.75100000  1.0 0.1870354836
C  C101  1  0.62520000  0.18620000  0.70700000  1.0 0.6672231232
C  C102  1  0.47850000  0.01450000  0.53300000  1.0 -0.0913780886
C  C103  1  0.25800000  0.92200000  0.73150000  1.0 0.2360245672
C  C104  1  0.57940000  0.15140000  0.74330000  1.0 0.1387000128
C  C105  1  0.32300000  0.98740000  0.68000000  1.0 0.6496191546
C  C106  1  0.09740000  0.41340000  0.35310000  1.0 -0.031627524
C  C107  1  0.28570000  0.87270000  0.74510000  1.0 -0.16019762
C  C108  1  0.09000000  0.38220000  0.39530000  1.0 -0.0913780886
C  C109  1  0.27150000  0.83550000  0.76700000  1.0 0.637529326
C  C110  1  0.27930000  0.76210000  0.13800000  1.0 0.6316947539
C  C111  1  0.24270000  0.80850000  0.02500000  1.0 0.252227505
C  C112  1  0.23240000  0.80640000  0.97100000  1.0 -0.1484978448
C  C113  1  0.24830000  0.75550000  0.97590000  1.0 -0.0913780886
C  C114  1  0.27460000  0.70680000  0.03500000  1.0 -0.0730885233
C  C115  1  0.28500000  0.70880000  0.08820000  1.0 -0.0793502811
C  C116  1  0.26900000  0.75980000  0.08330000  1.0 -0.16019762
C  C117  1  0.12060000  0.16500000  0.50100000  1.0 0.0117311481
C  C118  1  0.00850000  0.20830000  0.42200000  1.0 0.0214623916
C  C119  1  0.02510000  0.20650000  0.47000000  1.0 -0.102460848
C  C120  1  0.10730000  0.16410000  0.44700000  1.0 -0.0793502811
C  C121  1  0.04760000  0.18340000  0.40800000  1.0 -0.1313951264
C  C122  1  0.08050000  0.19270000  0.51100000  1.0 -0.102460848
C  C123  1  0.53210000  0.93810000  0.51500000  1.0 -0.1088219919
C  C124  1  0.23280000  0.75480000  0.92540000  1.0 0.5546042596
C  C125  1  0.48560000  0.53880000  0.94240000  1.0 -0.102460848
C  C126  1  0.45730000  0.50770000  0.01100000  1.0 -0.102460848
C  C127  1  0.37740000  0.60140000  0.90800000  1.0 0.5920105402
C  C128  1  0.44260000  0.54520000  0.95200000  1.0 0.0277776339
C  C129  1  0.97750000  0.52110000  0.43720000  1.0 0.0117311481
C  C130  1  0.83520000  0.50320000  0.17520000  1.0 -0.1176736221
C  C131  1  0.67780000  0.86500000  0.94330000  1.0 -0.102460848
C  C132  1  0.76820000  0.73020000  0.24700000  1.0 -0.0793502811
C  C133  1  0.80450000  0.73550000  0.23700000  1.0 -0.019963175
C  C134  1  0.84250000  0.54790000  0.16520000  1.0 0.6496191546
C  C135  1  0.84390000  0.70070000  0.22300000  1.0 0.6316947539
C  C136  1  0.80430000  0.50510000  0.12460000  1.0 -0.1176736221
C  C137  1  0.70390000  0.81150000  0.95030000  1.0 0.0214623916
C  C138  1  0.04500000  0.95440000  0.26000000  1.0 -0.1088219919
C  C139  1  0.76940000  0.76200000  0.00270000  1.0 0.6195562904
C  C140  1  0.96340000  0.48940000  0.46880000  1.0 -0.102460848
C  C141  1  0.95790000  0.54050000  0.36570000  1.0 0.5409882043
C  C142  1  0.04110000  0.49510000  0.05000000  1.0 -0.0793502811
C  C143  1  0.85560000  0.46380000  0.23840000  1.0 0.2166890924
C  C144  1  0.98320000  0.47320000  0.53080000  1.0 -0.0913780886
C  C145  1  0.60960000  0.85340000  0.85880000  1.0 -0.0793502811
C  C146  1  0.77460000  0.05100000  0.87300000  1.0 0.5282759641
C  C147  1  0.10780000  0.92040000  0.12300000  1.0 0.6195562904
C  C148  1  0.05310000  0.96150000  0.05800000  1.0 -0.019963175
C  C149  1  0.05230000  0.68830000  0.20190000  1.0 -0.0361802603
C  C150  1  0.04790000  0.99270000  0.00300000  1.0 -0.0913780886
C  C151  1  0.82120000  0.41860000  0.19900000  1.0 -0.1088219919
C  C152  1  0.09240000  0.90680000  0.26000000  1.0 0.5684357856
C  C153  1  0.79530000  0.46430000  0.13390000  1.0 -0.0793502811
C  C154  1  0.67060000  0.80680000  0.90970000  1.0 -0.1088219919
C  C155  1  0.84980000  0.81980000  0.04100000  1.0 0.5409882043
C  C156  1  0.03480000  0.73640000  0.20900000  1.0 -0.2113585982
C  C157  1  0.14250000  0.66850000  0.23700000  1.0 -0.0612938802
C  C158  1  0.52660000  0.95320000  0.80340000  1.0 0.6496191546
C  C159  1  0.96670000  0.54470000  0.06500000  1.0 0.6063687478
C  C160  1  0.80770000  0.77930000  0.23500000  1.0 -0.0913780886
C  C161  1  0.10270000  0.66070000  0.21600000  1.0 -0.1088219919
C  C162  1  0.00620000  0.97280000  0.06200000  1.0 -0.1088219919
C  C163  1  0.04490000  0.99810000  0.25100000  1.0 -0.0793502811
C  C164  1  0.00110000  0.95390000  0.25100000  1.0 0.1870354836
C  C165  1  0.81380000  0.37480000  0.20700000  1.0 0.6672231232
C  C166  1  0.98550000  0.52150000  0.03300000  1.0 -0.0913780886
C  C167  1  0.07800000  0.74200000  0.23150000  1.0 0.2360245672
C  C168  1  0.84860000  0.42060000  0.24330000  1.0 0.1387000128
C  C169  1  0.01260000  0.67700000  0.18000000  1.0 0.6496191546
C  C170  1  0.58660000  0.90260000  0.85310000  1.0 -0.031627524
C  C171  1  0.12730000  0.71430000  0.24510000  1.0 -0.16019762
C  C172  1  0.61780000  0.91000000  0.89530000  1.0 -0.0913780886
C  C173  1  0.16450000  0.72850000  0.26700000  1.0 0.637529326
C  C174  1  0.23790000  0.72070000  0.63800000  1.0 0.6316947539
C  C175  1  0.19150000  0.75730000  0.52500000  1.0 0.252227505
C  C176  1  0.19360000  0.76760000  0.47100000  1.0 -0.1484978448
C  C177  1  0.24450000  0.75170000  0.47590000  1.0 -0.0913780886
C  C178  1  0.29320000  0.72540000  0.53500000  1.0 -0.0730885233
C  C179  1  0.29120000  0.71500000  0.58820000  1.0 -0.0793502811
C  C180  1  0.24020000  0.73100000  0.58330000  1.0 -0.16019762
C  C181  1  0.83500000  0.87940000  0.00100000  1.0 0.0117311481
C  C182  1  0.79170000  0.99150000  0.92200000  1.0 0.0214623916
C  C183  1  0.79350000  0.97490000  0.97000000  1.0 -0.102460848
C  C184  1  0.83590000  0.89270000  0.94700000  1.0 -0.0793502811
C  C185  1  0.81660000  0.95240000  0.90800000  1.0 -0.1313951264
C  C186  1  0.80730000  0.91950000  0.01100000  1.0 -0.102460848
C  C187  1  0.06190000  0.46790000  0.01500000  1.0 -0.1088219919
C  C188  1  0.24520000  0.76720000  0.42540000  1.0 0.5558605765
C  C189  1  0.46120000  0.51440000  0.44240000  1.0 -0.0913780886
C  C190  1  0.49230000  0.54270000  0.51100000  1.0 -0.102460848
C  C191  1  0.39860000  0.62260000  0.40800000  1.0 0.5920105402
C  C192  1  0.45480000  0.55740000  0.45200000  1.0 0.0214623916
C  C193  1  0.52110000  0.97750000  0.06280000  1.0 0.0117311481
C  C194  1  0.50320000  0.83520000  0.32480000  1.0 -0.1176736221
C  C195  1  0.86500000  0.67780000  0.55670000  1.0 -0.102460848
C  C196  1  0.73020000  0.76820000  0.25300000  1.0 -0.0793502811
C  C197  1  0.73550000  0.80450000  0.26300000  1.0 -0.019963175
C  C198  1  0.54790000  0.84250000  0.33480000  1.0 0.6496191546
C  C199  1  0.70070000  0.84390000  0.27700000  1.0 0.6316947539
C  C200  1  0.50510000  0.80430000  0.37540000  1.0 -0.1176736221
C  C201  1  0.81150000  0.70390000  0.54970000  1.0 0.0214623916
C  C202  1  0.95440000  0.04500000  0.24000000  1.0 -0.1088219919
C  C203  1  0.76200000  0.76940000  0.49730000  1.0 0.6195562904
C  C204  1  0.48940000  0.96340000  0.03120000  1.0 -0.1088219919
C  C205  1  0.54050000  0.95790000  0.13430000  1.0 0.5409882043
C  C206  1  0.49510000  0.04110000  0.45000000  1.0 -0.0793502811
C  C207  1  0.46380000  0.85560000  0.26160000  1.0 0.2166890924
C  C208  1  0.47320000  0.98320000  0.96920000  1.0 -0.0913780886
C  C209  1  0.85340000  0.60960000  0.64120000  1.0 -0.0793502811
C  C210  1  0.05100000  0.77460000  0.62700000  1.0 0.5282759641
C  C211  1  0.92040000  0.10780000  0.37700000  1.0 0.6195562904
C  C212  1  0.96150000  0.05310000  0.44200000  1.0 -0.019963175
C  C213  1  0.68830000  0.05230000  0.29810000  1.0 -0.031627524
C  C214  1  0.99270000  0.04790000  0.49700000  1.0 -0.0913780886
C  C215  1  0.41860000  0.82120000  0.30100000  1.0 -0.1088219919
C  C216  1  0.90680000  0.09240000  0.24000000  1.0 0.5684357856
C  C217  1  0.46430000  0.79530000  0.36610000  1.0 -0.0793502811
C  C218  1  0.80680000  0.67060000  0.59030000  1.0 -0.1088219919
C  C219  1  0.81980000  0.84980000  0.45900000  1.0 0.5409882043
C  C220  1  0.73640000  0.03480000  0.29100000  1.0 -0.2113585982
C  C221  1  0.66850000  0.14250000  0.26300000  1.0 -0.0612938802
C  C222  1  0.95320000  0.52660000  0.69660000  1.0 0.6496191546
C  C223  1  0.54470000  0.96670000  0.43500000  1.0 0.6063687478
C  C224  1  0.77930000  0.80770000  0.26500000  1.0 -0.0913780886
C  C225  1  0.66070000  0.10270000  0.28400000  1.0 -0.1088219919
C  C226  1  0.97280000  0.00620000  0.43800000  1.0 -0.1088219919
C  C227  1  0.99810000  0.04490000  0.24900000  1.0 -0.0793502811
C  C228  1  0.95390000  0.00110000  0.24900000  1.0 0.1870354836
C  C229  1  0.37480000  0.81380000  0.29300000  1.0 0.6672231232
C  C230  1  0.52150000  0.98550000  0.46700000  1.0 -0.0913780886
C  C231  1  0.74200000  0.07800000  0.26850000  1.0 0.2360245672
C  C232  1  0.42060000  0.84860000  0.25670000  1.0 0.1387000128
C  C233  1  0.67700000  0.01260000  0.32000000  1.0 0.6496191546
C  C234  1  0.90260000  0.58660000  0.64690000  1.0 -0.031627524
C  C235  1  0.71430000  0.12730000  0.25490000  1.0 -0.16019762
C  C236  1  0.91000000  0.61780000  0.60470000  1.0 -0.0913780886
C  C237  1  0.72850000  0.16450000  0.23300000  1.0 0.637529326
C  C238  1  0.72070000  0.23790000  0.86200000  1.0 0.6316947539
C  C239  1  0.75730000  0.19150000  0.97500000  1.0 0.252227505
C  C240  1  0.76760000  0.19360000  0.02900000  1.0 -0.1484978448
C  C241  1  0.75170000  0.24450000  0.02410000  1.0 -0.0913780886
C  C242  1  0.72540000  0.29320000  0.96500000  1.0 -0.0730885233
C  C243  1  0.71500000  0.29120000  0.91180000  1.0 -0.0793502811
C  C244  1  0.73100000  0.24020000  0.91670000  1.0 -0.16019762
C  C245  1  0.87940000  0.83500000  0.49900000  1.0 0.0117311481
C  C246  1  0.99150000  0.79170000  0.57800000  1.0 0.0214623916
C  C247  1  0.97490000  0.79350000  0.53000000  1.0 -0.102460848
C  C248  1  0.89270000  0.83590000  0.55300000  1.0 -0.0793502811
C  C249  1  0.95240000  0.81660000  0.59200000  1.0 -0.1313951264
C  C250  1  0.91950000  0.80730000  0.48900000  1.0 -0.102460848
C  C251  1  0.46790000  0.06190000  0.48500000  1.0 -0.1088219919
C  C252  1  0.76720000  0.24520000  0.07460000  1.0 0.5558605765
C  C253  1  0.51440000  0.46120000  0.05760000  1.0 -0.0913780886
C  C254  1  0.54270000  0.49230000  0.98900000  1.0 -0.102460848
C  C255  1  0.62260000  0.39860000  0.09200000  1.0 0.5920105402
C  C256  1  0.55740000  0.45480000  0.04800000  1.0 0.0214623916
N  N1  1  0.12200000  0.62400000  0.69000000  1.0 -0.5604439829
N  N2  1  0.94650000  0.21450000  0.76500000  1.0 -0.4543799783
N  N3  1  0.86420000  0.22820000  0.48600000  1.0 -0.6228793884
N  N4  1  0.00610000  0.08210000  0.75400000  1.0 -0.4977198864
N  N5  1  0.12020000  0.54020000  0.70500000  1.0 -0.5191583062
N  N6  1  0.62400000  0.12200000  0.81000000  1.0 -0.5604439829
N  N7  1  0.21450000  0.94650000  0.73500000  1.0 -0.4543799783
N  N8  1  0.22820000  0.86420000  0.01400000  1.0 -0.6228793884
N  N9  1  0.08210000  0.00610000  0.74600000  1.0 -0.4977198864
N  N10  1  0.54020000  0.12020000  0.79500000  1.0 -0.5191583062
N  N11  1  0.87800000  0.37600000  0.31000000  1.0 -0.5604439829
N  N12  1  0.05350000  0.78550000  0.23500000  1.0 -0.4543799783
N  N13  1  0.13580000  0.77180000  0.51400000  1.0 -0.6228793884
N  N14  1  0.99390000  0.91790000  0.24600000  1.0 -0.4977198864
N  N15  1  0.87980000  0.45980000  0.29500000  1.0 -0.5191583062
N  N16  1  0.37600000  0.87800000  0.19000000  1.0 -0.5604439829
N  N17  1  0.78550000  0.05350000  0.26500000  1.0 -0.4559912409
N  N18  1  0.77180000  0.13580000  0.98600000  1.0 -0.6228793884
N  N19  1  0.91790000  0.99390000  0.25400000  1.0 -0.4977198864
N  N20  1  0.45980000  0.87980000  0.20500000  1.0 -0.5191583062
O  O1  1  0.14800000  0.34160000  0.86320000  1.0 -1.091154256
O  O2  1  0.05960000  0.43800000  0.82890000  1.0 -1.091154256
O  O3  1  0.04270000  0.37750000  0.78700000  1.0 -1.0356210495
O  O4  1  0.75340000  0.15920000  0.73140000  1.0 -1.1685810114
O  O5  1  0.78790000  0.20370000  0.80320000  1.0 -0.9805016245
O  O6  1  0.08810000  0.33630000  0.91690000  1.0 -1.1493533577
O  O7  1  0.14850000  0.34870000  0.76000000  1.0 -0.6280902575
O  O8  1  0.20870000  0.22790000  0.96220000  1.0 -0.5382538165
O  O9  1  0.07460000  0.46720000  0.66350000  1.0 -0.5670838023
O  O10  1  0.13890000  0.27970000  0.80600000  1.0 -0.5604439829
O  O11  1  0.13310000  0.44970000  0.78870000  1.0 -0.6002430004
O  O12  1  0.03080000  0.42860000  0.66250000  1.0 -0.5604439829
O  O13  1  0.49470000  0.00070000  0.20090000  1.0 -0.5807524945
O  O14  1  0.17220000  0.41800000  0.89060000  1.0 -0.6280902575
O  O15  1  0.22070000  0.93990000  0.17510000  1.0 -0.5382538165
O  O16  1  0.80820000  0.26580000  0.35790000  1.0 -0.6493260141
O  O17  1  0.15480000  0.18920000  0.90660000  1.0 -0.6820772265
O  O18  1  0.67720000  0.25100000  0.71750000  1.0 -1.0815493319
O  O19  1  0.03860000  0.28980000  0.83770000  1.0 -0.5670838023
O  O20  1  0.12570000  0.21630000  0.96700000  1.0 -0.4876391466
O  O21  1  0.23990000  0.91630000  0.11050000  1.0 -0.5491449113
O  O22  1  0.90960000  0.13360000  0.73560000  1.0 -0.5807524945
O  O23  1  0.86470000  0.09330000  0.72750000  1.0 -0.5296676259
O  O24  1  0.21900000  0.28000000  0.00240000  1.0 -0.6404285605
O  O25  1  0.72020000  0.29300000  0.30910000  1.0 -0.6404285605
O  O26  1  0.50190000  0.05790000  0.23430000  1.0 -0.6820772265
O  O27  1  0.84810000  0.08870000  0.88020000  1.0 -0.5807524945
O  O28  1  0.85130000  0.23110000  0.73300000  1.0 -0.5191583062
O  O29  1  0.21480000  0.62320000  0.84440000  1.0 -0.6820772265
O  O30  1  0.88910000  0.10490000  0.83100000  1.0 -0.5296676259
O  O31  1  0.99920000  0.45080000  0.89480000  1.0 -0.6636660273
O  O32  1  0.97100000  0.36720000  0.81800000  1.0 -0.6002430004
O  O33  1  0.78530000  0.30290000  0.73000000  1.0 -0.7178080107
O  O34  1  0.08810000  0.42750000  0.94920000  1.0 -0.706199127
O  O35  1  0.16350000  0.66550000  0.73950000  1.0 -0.5491449113
O  O36  1  0.79880000  0.20580000  0.62980000  1.0 -0.5932880963
O  O37  1  0.70880000  0.24640000  0.56900000  1.0 -0.5670838023
O  O38  1  0.63240000  0.37240000  0.64800000  1.0 -0.7299092437
O  O39  1  0.60260000  0.34500000  0.58100000  1.0 -0.5191583062
O  O40  1  0.73120000  0.26920000  0.66180000  1.0 -1.1894249047
O  O41  1  0.34160000  0.14800000  0.63680000  1.0 -1.091154256
O  O42  1  0.43800000  0.05960000  0.67110000  1.0 -1.0815493319
O  O43  1  0.37750000  0.04270000  0.71300000  1.0 -1.0356210495
O  O44  1  0.15920000  0.75340000  0.76860000  1.0 -1.1685810114
O  O45  1  0.20370000  0.78790000  0.69680000  1.0 -0.9805016245
O  O46  1  0.33630000  0.08810000  0.58310000  1.0 -1.1493533577
O  O47  1  0.34870000  0.14850000  0.74000000  1.0 -0.6280902575
O  O48  1  0.22790000  0.20870000  0.53780000  1.0 -0.5382538165
O  O49  1  0.46720000  0.07460000  0.83650000  1.0 -0.5670838023
O  O50  1  0.27970000  0.13890000  0.69400000  1.0 -0.5604439829
O  O51  1  0.44970000  0.13310000  0.71130000  1.0 -0.6002430004
O  O52  1  0.42860000  0.03080000  0.83750000  1.0 -0.5604439829
O  O53  1  0.00070000  0.49470000  0.29910000  1.0 -0.5807524945
O  O54  1  0.41800000  0.17220000  0.60940000  1.0 -0.6280902575
O  O55  1  0.93990000  0.22070000  0.32490000  1.0 -0.5382538165
O  O56  1  0.26580000  0.80820000  0.14210000  1.0 -0.6493260141
O  O57  1  0.18920000  0.15480000  0.59340000  1.0 -0.6820772265
O  O58  1  0.25100000  0.67720000  0.78250000  1.0 -1.0815493319
O  O59  1  0.28980000  0.03860000  0.66230000  1.0 -0.5604439829
O  O60  1  0.21630000  0.12570000  0.53300000  1.0 -0.4876391466
O  O61  1  0.91630000  0.23990000  0.38950000  1.0 -0.5491449113
O  O62  1  0.13360000  0.90960000  0.76440000  1.0 -0.5807524945
O  O63  1  0.09330000  0.86470000  0.77250000  1.0 -0.5296676259
O  O64  1  0.28000000  0.21900000  0.49760000  1.0 -0.6404285605
O  O65  1  0.29300000  0.72020000  0.19090000  1.0 -0.6404285605
O  O66  1  0.05790000  0.50190000  0.26570000  1.0 -0.6820772265
O  O67  1  0.08870000  0.84810000  0.61980000  1.0 -0.5807524945
O  O68  1  0.23110000  0.85130000  0.76700000  1.0 -0.5296676259
O  O69  1  0.62320000  0.21480000  0.65560000  1.0 -0.6820772265
O  O70  1  0.10490000  0.88910000  0.66900000  1.0 -0.5382538165
O  O71  1  0.45080000  0.99920000  0.60520000  1.0 -0.6636660273
O  O72  1  0.36720000  0.97100000  0.68200000  1.0 -0.6002430004
O  O73  1  0.30290000  0.78530000  0.77000000  1.0 -0.7178080107
O  O74  1  0.42750000  0.08810000  0.55080000  1.0 -0.706199127
O  O75  1  0.66550000  0.16350000  0.76050000  1.0 -0.5491449113
O  O76  1  0.20580000  0.79880000  0.87020000  1.0 -0.5932880963
O  O77  1  0.24640000  0.70880000  0.93100000  1.0 -0.5670838023
O  O78  1  0.37240000  0.63240000  0.85200000  1.0 -0.7299092437
O  O79  1  0.34500000  0.60260000  0.91900000  1.0 -0.5191583062
O  O80  1  0.26920000  0.73120000  0.83820000  1.0 -1.1894249047
O  O81  1  0.85200000  0.65840000  0.13680000  1.0 -1.091154256
O  O82  1  0.94040000  0.56200000  0.17110000  1.0 -1.0815493319
O  O83  1  0.95730000  0.62250000  0.21300000  1.0 -1.0323635961
O  O84  1  0.24660000  0.84080000  0.26860000  1.0 -1.1685810114
O  O85  1  0.21210000  0.79630000  0.19680000  1.0 -0.9805016245
O  O86  1  0.91190000  0.66370000  0.08310000  1.0 -1.1493533577
O  O87  1  0.85150000  0.65130000  0.24000000  1.0 -0.6280902575
O  O88  1  0.79130000  0.77210000  0.03780000  1.0 -0.5382538165
O  O89  1  0.92540000  0.53280000  0.33650000  1.0 -0.5670838023
O  O90  1  0.86110000  0.72030000  0.19400000  1.0 -0.5604439829
O  O91  1  0.86690000  0.55030000  0.21130000  1.0 -0.6002430004
O  O92  1  0.96920000  0.57140000  0.33750000  1.0 -0.5604439829
O  O93  1  0.50530000  0.99930000  0.79910000  1.0 -0.5807524945
O  O94  1  0.82780000  0.58200000  0.10940000  1.0 -0.6280902575
O  O95  1  0.77930000  0.06010000  0.82490000  1.0 -0.5382538165
O  O96  1  0.19180000  0.73420000  0.64210000  1.0 -0.6493260141
O  O97  1  0.84520000  0.81080000  0.09340000  1.0 -0.6820772265
O  O98  1  0.32280000  0.74900000  0.28250000  1.0 -1.0815493319
O  O99  1  0.96140000  0.71020000  0.16230000  1.0 -0.5604439829
O  O100  1  0.87430000  0.78370000  0.03300000  1.0 -0.4876391466
O  O101  1  0.76010000  0.08370000  0.88950000  1.0 -0.5491449113
O  O102  1  0.09040000  0.86640000  0.26440000  1.0 -0.5807524945
O  O103  1  0.13530000  0.90670000  0.27250000  1.0 -0.5296676259
O  O104  1  0.78100000  0.72000000  0.99760000  1.0 -0.6404285605
O  O105  1  0.27980000  0.70700000  0.69090000  1.0 -0.6404285605
O  O106  1  0.49810000  0.94210000  0.76570000  1.0 -0.6820772265
O  O107  1  0.15190000  0.91130000  0.11980000  1.0 -0.5807524945
O  O108  1  0.14870000  0.76890000  0.26700000  1.0 -0.5296676259
O  O109  1  0.78520000  0.37680000  0.15560000  1.0 -0.6820772265
O  O110  1  0.11090000  0.89510000  0.16900000  1.0 -0.5382538165
O  O111  1  0.00080000  0.54920000  0.10520000  1.0 -0.6636660273
O  O112  1  0.02900000  0.63280000  0.18200000  1.0 -0.605331185
O  O113  1  0.21470000  0.69710000  0.27000000  1.0 -0.7178080107
O  O114  1  0.91190000  0.57250000  0.05080000  1.0 -0.706199127
O  O115  1  0.83650000  0.33450000  0.26050000  1.0 -0.5491449113
O  O116  1  0.20120000  0.79420000  0.37020000  1.0 -0.5932880963
O  O117  1  0.29120000  0.75360000  0.43100000  1.0 -0.5670838023
O  O118  1  0.36760000  0.62760000  0.35200000  1.0 -0.7299092437
O  O119  1  0.39740000  0.65500000  0.41900000  1.0 -0.5191583062
O  O120  1  0.26880000  0.73080000  0.33820000  1.0 -1.1894249047
O  O121  1  0.65840000  0.85200000  0.36320000  1.0 -1.091154256
O  O122  1  0.56200000  0.94040000  0.32890000  1.0 -1.0815493319
O  O123  1  0.62250000  0.95730000  0.28700000  1.0 -1.0323635961
O  O124  1  0.84080000  0.24660000  0.23140000  1.0 -1.1685810114
O  O125  1  0.79630000  0.21210000  0.30320000  1.0 -0.9805016245
O  O126  1  0.66370000  0.91190000  0.41690000  1.0 -1.1493533577
O  O127  1  0.65130000  0.85150000  0.26000000  1.0 -0.6280902575
O  O128  1  0.77210000  0.79130000  0.46220000  1.0 -0.5382538165
O  O129  1  0.53280000  0.92540000  0.16350000  1.0 -0.5670838023
O  O130  1  0.72030000  0.86110000  0.30600000  1.0 -0.5604439829
O  O131  1  0.55030000  0.86690000  0.28870000  1.0 -0.6002430004
O  O132  1  0.57140000  0.96920000  0.16250000  1.0 -0.5604439829
O  O133  1  0.99930000  0.50530000  0.70090000  1.0 -0.5807524945
O  O134  1  0.58200000  0.82780000  0.39060000  1.0 -0.6280902575
O  O135  1  0.06010000  0.77930000  0.67510000  1.0 -0.5382538165
O  O136  1  0.73420000  0.19180000  0.85790000  1.0 -0.6493260141
O  O137  1  0.81080000  0.84520000  0.40660000  1.0 -0.6820772265
O  O138  1  0.74900000  0.32280000  0.21750000  1.0 -1.0815493319
O  O139  1  0.71020000  0.96140000  0.33770000  1.0 -0.5670838023
O  O140  1  0.78370000  0.87430000  0.46700000  1.0 -0.4876391466
O  O141  1  0.08370000  0.76010000  0.61050000  1.0 -0.5491449113
O  O142  1  0.86640000  0.09040000  0.23560000  1.0 -0.5807524945
O  O143  1  0.90670000  0.13530000  0.22750000  1.0 -0.5296676259
O  O144  1  0.72000000  0.78100000  0.50240000  1.0 -0.6404285605
O  O145  1  0.70700000  0.27980000  0.80910000  1.0 -0.6404285605
O  O146  1  0.94210000  0.49810000  0.73430000  1.0 -0.6820772265
O  O147  1  0.91130000  0.15190000  0.38020000  1.0 -0.5807524945
O  O148  1  0.76890000  0.14870000  0.23300000  1.0 -0.5191583062
O  O149  1  0.37680000  0.78520000  0.34440000  1.0 -0.6820772265
O  O150  1  0.89510000  0.11090000  0.33100000  1.0 -0.5296676259
O  O151  1  0.54920000  0.00080000  0.39480000  1.0 -0.6636660273
O  O152  1  0.63280000  0.02900000  0.31800000  1.0 -0.6002430004
O  O153  1  0.69710000  0.21470000  0.23000000  1.0 -0.7178080107
O  O154  1  0.57250000  0.91190000  0.44920000  1.0 -0.706199127
O  O155  1  0.33450000  0.83650000  0.23950000  1.0 -0.5491449113
O  O156  1  0.79420000  0.20120000  0.12980000  1.0 -0.5932880963
O  O157  1  0.75360000  0.29120000  0.06900000  1.0 -0.5670838023
O  O158  1  0.62760000  0.36760000  0.14800000  1.0 -0.7299092437
O  O159  1  0.65500000  0.39740000  0.08100000  1.0 -0.5191583062
O  O160  1  0.73080000  0.26880000  0.16180000  1.0 -1.1894249047
