# DDEC6 charges by PACMAN v1.1 (https://github.com/mtap-research/PACMAN-charge/)
data_AJOTEY_FSR_pacman
_symmetry_space_group_name_H-M   'P 1'
_cell_length_a   9.16570000
_cell_length_b   14.18060000
_cell_length_c   19.07660000
_cell_angle_alpha   90.00000000
_cell_angle_beta   90.00000000
_cell_angle_gamma   90.00000000
_symmetry_Int_Tables_number   1
_chemical_formula_structural   V3(P2O9)2
_chemical_formula_sum   'V12 P16 O72'
_cell_volume   2479.48347759
_cell_formula_units_Z   4
loop_
 _symmetry_equiv_pos_site_id
 _symmetry_equiv_pos_as_xyz
  1  'x, y, z'
loop_
 _atom_site_type_symbol
 _atom_site_label
 _atom_site_symmetry_multiplicity
 _atom_site_fract_x
 _atom_site_fract_y
 _atom_site_fract_z
 _atom_site_occupancy
 _atom_site_charge
V  V1  1  0.23073000  0.13449000  0.13916000  1.0 1.8279419848
V  V2  1  0.76927000  0.63449000  0.86084000  1.0 1.8279419848
V  V3  1  0.73073000  0.63449000  0.36084000  1.0 1.8279419848
V  V4  1  0.26927000  0.13449000  0.63916000  1.0 1.8279419848
V  V5  1  0.71660000  0.35135000  0.99958000  1.0 1.8668243596
V  V6  1  0.28340000  0.85135000  0.00042000  1.0 1.8626705954
V  V7  1  0.21660000  0.85135000  0.50042000  1.0 1.8626705954
V  V8  1  0.78340000  0.35135000  0.49958000  1.0 1.8668243596
V  V9  1  0.75327000  0.33742000  0.24556000  1.0 1.8626705954
V  V10  1  0.24673000  0.83742000  0.75444000  1.0 1.8626705954
V  V11  1  0.25327000  0.83742000  0.25444000  1.0 1.8523732731
V  V12  1  0.74673000  0.33742000  0.74556000  1.0 1.8626705954
P  P1  1  0.92576000  0.23766000  0.11568000  1.0 1.4407320627
P  P2  1  0.07424000  0.73766000  0.88432000  1.0 1.4407320627
P  P3  1  0.42576000  0.73766000  0.38432000  1.0 1.4407320627
P  P4  1  0.57424000  0.23766000  0.61568000  1.0 1.4407320627
P  P5  1  0.06368000  0.93163000  0.12393000  1.0 1.4622463891
P  P6  1  0.93632000  0.43163000  0.87607000  1.0 1.4622463891
P  P7  1  0.56368000  0.43163000  0.37607000  1.0 1.4622463891
P  P8  1  0.43632000  0.93163000  0.62393000  1.0 1.4622463891
P  P9  1  0.52983000  0.26083000  0.12241000  1.0 1.416997821
P  P10  1  0.47017000  0.76083000  0.87759000  1.0 1.413056285
P  P11  1  0.02983000  0.76083000  0.37759000  1.0 1.413056285
P  P12  1  0.97017000  0.26083000  0.62241000  1.0 1.416997821
P  P13  1  0.45803000  0.95072000  0.13616000  1.0 1.4659187504
P  P14  1  0.54197000  0.45072000  0.86384000  1.0 1.4622463891
P  P15  1  0.95803000  0.45072000  0.36384000  1.0 1.4659187504
P  P16  1  0.04197000  0.95072000  0.63616000  1.0 1.4622463891
O  O1  1  0.08850000  0.22610000  0.09910000  1.0 -0.7981572664
O  O2  1  0.91150000  0.72610000  0.90090000  1.0 -0.7981572664
O  O3  1  0.58850000  0.72610000  0.40090000  1.0 -0.7981572664
O  O4  1  0.41150000  0.22610000  0.59910000  1.0 -0.7981572664
O  O5  1  0.90220000  0.31220000  0.17190000  1.0 -0.8298556769
O  O6  1  0.09780000  0.81220000  0.82810000  1.0 -0.8298556769
O  O7  1  0.40220000  0.81220000  0.32810000  1.0 -0.8298556769
O  O8  1  0.59780000  0.31220000  0.67190000  1.0 -0.8298556769
O  O9  1  0.84420000  0.25700000  0.04830000  1.0 -0.850608487
O  O10  1  0.15580000  0.75700000  0.95170000  1.0 -0.850608487
O  O11  1  0.34420000  0.75700000  0.45170000  1.0 -0.850608487
O  O12  1  0.65580000  0.25700000  0.54830000  1.0 -0.850608487
O  O13  1  0.10080000  0.03220000  0.10640000  1.0 -0.87450385
O  O14  1  0.89920000  0.53220000  0.89360000  1.0 -0.87450385
O  O15  1  0.60080000  0.53220000  0.39360000  1.0 -0.87450385
O  O16  1  0.39920000  0.03220000  0.60640000  1.0 -0.87450385
O  O17  1  0.10370000  0.90490000  0.19810000  1.0 -0.8246209314
O  O18  1  0.89630000  0.40490000  0.80190000  1.0 -0.8298556769
O  O19  1  0.60370000  0.40490000  0.30190000  1.0 -0.8298556769
O  O20  1  0.39630000  0.90490000  0.69810000  1.0 -0.8298556769
O  O21  1  0.12290000  0.86150000  0.07060000  1.0 -0.8574824622
O  O22  1  0.87710000  0.36150000  0.92940000  1.0 -0.8574824622
O  O23  1  0.62290000  0.36150000  0.42940000  1.0 -0.8574824622
O  O24  1  0.37710000  0.86150000  0.57060000  1.0 -0.8574824622
O  O25  1  0.37220000  0.24180000  0.14050000  1.0 -0.7981572664
O  O26  1  0.62780000  0.74180000  0.85950000  1.0 -0.7981572664
O  O27  1  0.87220000  0.74180000  0.35950000  1.0 -0.7981572664
O  O28  1  0.12780000  0.24180000  0.64050000  1.0 -0.7981572664
O  O29  1  0.54300000  0.29750000  0.04800000  1.0 -0.8298556769
O  O30  1  0.45700000  0.79750000  0.95200000  1.0 -0.8298556769
O  O31  1  0.04300000  0.79750000  0.45200000  1.0 -0.8298556769
O  O32  1  0.95700000  0.29750000  0.54800000  1.0 -0.8298556769
O  O33  1  0.59450000  0.32890000  0.17530000  1.0 -0.850608487
O  O34  1  0.40550000  0.82890000  0.82470000  1.0 -0.850608487
O  O35  1  0.09450000  0.82890000  0.32470000  1.0 -0.850608487
O  O36  1  0.90550000  0.32890000  0.67530000  1.0 -0.850608487
O  O37  1  0.39980000  0.04970000  0.14490000  1.0 -0.8839225661
O  O38  1  0.60020000  0.54970000  0.85510000  1.0 -0.8839225661
O  O39  1  0.89980000  0.54970000  0.35510000  1.0 -0.8856382659
O  O40  1  0.10020000  0.04970000  0.64490000  1.0 -0.8839225661
O  O41  1  0.43060000  0.91220000  0.06360000  1.0 -0.850608487
O  O42  1  0.56940000  0.41220000  0.93640000  1.0 -0.850608487
O  O43  1  0.93060000  0.41220000  0.43640000  1.0 -0.850608487
O  O44  1  0.06940000  0.91220000  0.56360000  1.0 -0.850608487
O  O45  1  0.41470000  0.88560000  0.19490000  1.0 -0.8443035176
O  O46  1  0.58530000  0.38560000  0.80510000  1.0 -0.8443035176
O  O47  1  0.91470000  0.38560000  0.30510000  1.0 -0.8443035176
O  O48  1  0.08530000  0.88560000  0.69490000  1.0 -0.8443035176
O  O49  1  0.18450000  0.13840000  0.21970000  1.0 -0.6312416187
O  O50  1  0.81550000  0.63840000  0.78030000  1.0 -0.6312416187
O  O51  1  0.68450000  0.63840000  0.28030000  1.0 -0.6312416187
O  O52  1  0.31550000  0.13840000  0.71970000  1.0 -0.6312416187
O  O53  1  0.28490000  0.12840000  0.01780000  1.0 0.1822150843
O  O54  1  0.71510000  0.62840000  0.98220000  1.0 0.1822150843
O  O55  1  0.78490000  0.62840000  0.48220000  1.0 0.1822150843
O  O56  1  0.21510000  0.12840000  0.51780000  1.0 0.1822150843
O  O57  1  0.74980000  0.44240000  0.04610000  1.0 -0.605685561
O  O58  1  0.25020000  0.94240000  0.95390000  1.0 -0.605685561
O  O59  1  0.24980000  0.94240000  0.45390000  1.0 -0.605685561
O  O60  1  0.75020000  0.44240000  0.54610000  1.0 -0.605685561
O  O61  1  0.67470000  0.22080000  0.92780000  1.0 0.1934748822
O  O62  1  0.32530000  0.72080000  0.07220000  1.0 0.1955932536
O  O63  1  0.17470000  0.72080000  0.57220000  1.0 0.1934748822
O  O64  1  0.82530000  0.22080000  0.42780000  1.0 0.1955932536
O  O65  1  0.74080000  0.23390000  0.27860000  1.0 -0.6526631555
O  O66  1  0.25920000  0.73390000  0.72140000  1.0 -0.6526631555
O  O67  1  0.24080000  0.73390000  0.22140000  1.0 -0.6526631555
O  O68  1  0.75920000  0.23390000  0.77860000  1.0 -0.6526631555
O  O69  1  0.78320000  0.48530000  0.19280000  1.0 0.2763988583
O  O70  1  0.21680000  0.98530000  0.80720000  1.0 0.2708315858
O  O71  1  0.28320000  0.98530000  0.30720000  1.0 0.2763988583
O  O72  1  0.71680000  0.48530000  0.69280000  1.0 0.2763988583
