# DDEC6 charges by PACMAN v1.1 (https://github.com/mtap-research/PACMAN-charge/)
data_AJUFET_FSR_pacman
_chemical_formula_sum              "Mn12 O40 N20 C160 H132"
_cell_length_a       17.369
_cell_length_b       17.369
_cell_length_c       27.571
_cell_angle_alpha    90
_cell_angle_beta     90
_cell_angle_gamma    120

_symmetry_space_group_name_H-M    "P 1"
_symmetry_Int_Tables_number       1

loop_
  _symmetry_equiv_pos_as_xyz
  'x, y, z'

loop_
  _atom_site_type_symbol
  _atom_site_label
  _atom_site_symmetry_multiplicity
  _atom_site_fract_x
  _atom_site_fract_y
  _atom_site_fract_z
  _atom_site_occupancy
 _atom_site_charge
Mn  Mn1       1.0  0.26288  0.73743  0.68674  1.0000 0.9714030898
O   O1        1.0  0.34340  0.81960  0.74978  1.0000 -0.614355035
N   N1        1.0  0.18870  0.81100  0.68460  1.0000 -0.2403510705
O   O2        1.0  0.35270  0.83160  0.63740  1.0000 -0.5336158122
C   C1        1.0  0.09230  0.04730  0.68050  1.0000 -0.3004836007
C   C2        1.0  0.04420  0.95340  0.68100  1.0000 0.1618831979
C   C3        1.0  0.09410  0.90500  0.68160  1.0000 0.0568528542
C   C4        1.0  0.42430  0.84660  0.62070  1.0000 0.5582673477
C   C5        1.0  0.18520  0.94780  0.68160  1.0000 -0.2403510705
H   H1        1.0  0.21859  0.00952  0.68077  1.0000 0.1216774747
C   C6        1.0  0.05220  0.81470  0.68190  1.0000 -0.2192202611
H   H2        1.0  0.99046  0.78175  0.68156  1.0000 0.1275887488
C   C7        1.0  0.22780  0.89590  0.68280  1.0000 0.0931881817
H   H3        1.0  0.28957  0.92653  0.68225  1.0000 0.1127562907
C   C8        1.0  0.10140  0.77100  0.68290  1.0000 0.0716298864
H   H4        1.0  0.07014  0.70923  0.68238  1.0000 0.1127562907
C   C9        1.0  0.45080  0.90810  0.57730  1.0000 -0.0216975043
C   C10       1.0  0.52820  0.93840  0.55100  1.0000 -0.1479451221
H   H5        1.0  0.57403  0.92781  0.55930  1.0000 0.1275887488
H   H6        1.0  0.54417  0.98413  0.75017  1.0000 0.0325225224
H   H7        1.0  0.46624  0.98413  0.72149  1.0000 0.0501412593
H   H8        1.0  0.46578  0.98413  0.77835  1.0000 0.0501412593
C   C11       1.0  0.38710  0.92820  0.55770  1.0000 -0.0963575578
H   H9        1.0  0.33028  0.89572  0.57072  1.0000 0.1216774747
C   C12       1.0  0.60330  0.01160  0.47760  1.0000 -0.1585662438
H   H10       1.0  0.64106  0.98835  0.48062  1.0000 0.1216774747
C   C13       1.0  0.52920  0.98800  0.50930  1.0000 0.0501412593
O   O3        1.0  0.48050  0.83160  0.63770  1.0000 -0.5336158122
N   N2        1.0  0.95270  0.04500  0.68050  1.0000 -0.2485890908
H   H11       1.0  0.15412  0.07823  0.67978  1.0000 0.2682660894
Mn  Mn2       1.0  0.26257  0.52545  0.68674  1.0000 0.9714030898
O   O4        1.0  0.18040  0.52380  0.74978  1.0000 -0.614355035
N   N3        1.0  0.18900  0.37770  0.68460  1.0000 -0.2403510705
O   O5        1.0  0.16840  0.52110  0.63740  1.0000 -0.5336158122
C   C14       1.0  0.04660  0.09080  0.68100  1.0000 0.2081023419
C   C15       1.0  0.09500  0.18910  0.68160  1.0000 0.0434320337
C   C16       1.0  0.15340  0.57770  0.62070  1.0000 0.5582673477
C   C17       1.0  0.05220  0.23740  0.68160  1.0000 -0.2257411404
H   H12       1.0  0.99048  0.20907  0.68077  1.0000 0.1275887488
C   C18       1.0  0.18530  0.23750  0.68190  1.0000 -0.2192202611
H   H13       1.0  0.21825  0.20871  0.68156  1.0000 0.1216774747
C   C19       1.0  0.10410  0.33190  0.68280  1.0000 0.0931881817
H   H14       1.0  0.07347  0.36304  0.68225  1.0000 0.1127562907
C   C20       1.0  0.22900  0.33040  0.68290  1.0000 0.0716298864
H   H15       1.0  0.29077  0.36092  0.68238  1.0000 0.1127562907
C   C21       1.0  0.09190  0.54270  0.57730  1.0000 -0.0216975043
C   C22       1.0  0.06160  0.58980  0.55100  1.0000 -0.1479451221
H   H16       1.0  0.07219  0.64622  0.55930  1.0000 0.1275887488
H   H17       1.0  0.01587  0.56004  0.75017  1.0000 0.0325225224
H   H18       1.0  0.01587  0.48211  0.72149  1.0000 0.0501412593
H   H19       1.0  0.01587  0.48165  0.77835  1.0000 0.0501412593
C   C23       1.0  0.07180  0.45890  0.55770  1.0000 -0.0963575578
H   H20       1.0  0.10428  0.43455  0.57072  1.0000 0.1216774747
C   C24       1.0  0.98840  0.59170  0.47760  1.0000 -0.1585662438
H   H21       1.0  0.01165  0.65271  0.48062  1.0000 0.1216774747
C   C25       1.0  0.01200  0.54120  0.50930  1.0000 0.0434320337
O   O6        1.0  0.16840  0.64890  0.63770  1.0000 -0.5336158122
N   N4        1.0  0.95500  0.90770  0.68050  1.0000 -0.2485890908
H   H22       1.0  0.92177  0.07589  0.67978  1.0000 0.1216774747
Mn  Mn3       1.0  0.47455  0.73712  0.68674  1.0000 0.9714030898
O   O7        1.0  0.47620  0.65660  0.74978  1.0000 -0.614355035
N   N5        1.0  0.62230  0.81130  0.68460  1.0000 -0.2485890908
O   O8        1.0  0.47890  0.64730  0.63740  1.0000 -0.5336158122
C   C26       1.0  0.90920  0.95580  0.68100  1.0000 0.1127562907
C   C27       1.0  0.81090  0.90590  0.68160  1.0000 0.0931881817
C   C28       1.0  0.42230  0.57570  0.62070  1.0000 0.5582673477
C   C29       1.0  0.76260  0.81480  0.68160  1.0000 -0.2403510705
H   H23       1.0  0.79093  0.78141  0.68077  1.0000 0.1275887488
C   C30       1.0  0.76250  0.94780  0.68190  1.0000 -0.2192202611
H   H24       1.0  0.79129  0.00954  0.68156  1.0000 0.1275887488
C   C31       1.0  0.66810  0.77220  0.68280  1.0000 0.0931881817
H   H25       1.0  0.63696  0.71043  0.68225  1.0000 0.1127562907
C   C32       1.0  0.66960  0.89860  0.68290  1.0000 0.0716298864
H   H26       1.0  0.63908  0.92986  0.68238  1.0000 0.1127562907
C   C33       1.0  0.45730  0.54920  0.57730  1.0000 -0.0216975043
C   C34       1.0  0.41020  0.47180  0.55100  1.0000 -0.1479451221
H   H27       1.0  0.35378  0.42597  0.55930  1.0000 0.1275887488
H   H28       1.0  0.43996  0.45583  0.75017  1.0000 0.0325225224
H   H29       1.0  0.51789  0.53376  0.72149  1.0000 0.0501412593
H   H30       1.0  0.51835  0.53422  0.77835  1.0000 0.0434320337
C   C35       1.0  0.54110  0.61290  0.55770  1.0000 -0.0963575578
H   H31       1.0  0.56545  0.66972  0.57072  1.0000 0.1216774747
C   C36       1.0  0.40830  0.39670  0.47760  1.0000 -0.1585662438
H   H32       1.0  0.34729  0.35894  0.48062  1.0000 0.1216774747
C   C37       1.0  0.45880  0.47080  0.50930  1.0000 0.0434320337
O   O9        1.0  0.35110  0.51950  0.63770  1.0000 -0.5336158122
H   H33       1.0  0.92411  0.84588  0.67978  1.0000 0.1216774747
Mn  Mn4       1.0  0.26257  0.73712  0.81326  1.0000 0.9714030898
O   O10       1.0  0.18040  0.65660  0.75022  1.0000 -0.614355035
N   N6        1.0  0.18900  0.81130  0.81540  1.0000 -0.2403510705
O   O11       1.0  0.16840  0.64730  0.86260  1.0000 -0.5336158122
C   C38       1.0  0.95270  0.90770  0.81950  1.0000 -0.3004836007
C   C39       1.0  0.04660  0.95580  0.81900  1.0000 0.1618831979
C   C40       1.0  0.09500  0.90590  0.81840  1.0000 0.0568528542
C   C41       1.0  0.15340  0.57570  0.87930  1.0000 0.5582673477
C   C42       1.0  0.05220  0.81480  0.81840  1.0000 -0.2403510705
H   H34       1.0  0.99048  0.78141  0.81923  1.0000 0.1216774747
C   C43       1.0  0.18530  0.94780  0.81810  1.0000 -0.2192202611
H   H35       1.0  0.21825  0.00954  0.81844  1.0000 0.1275887488
C   C44       1.0  0.10410  0.77220  0.81720  1.0000 0.0931881817
H   H36       1.0  0.07347  0.71043  0.81775  1.0000 0.1127562907
C   C45       1.0  0.22900  0.89860  0.81710  1.0000 0.0716298864
H   H37       1.0  0.29077  0.92986  0.81762  1.0000 0.1127562907
C   C46       1.0  0.09190  0.54920  0.92270  1.0000 -0.0216975043
C   C47       1.0  0.06160  0.47180  0.94900  1.0000 -0.1479451221
H   H38       1.0  0.07219  0.42597  0.94070  1.0000 0.1275887488
H   H39       1.0  0.01587  0.45583  0.74983  1.0000 0.0325225224
H   H40       1.0  0.01587  0.53376  0.77851  1.0000 0.0501412593
H   H41       1.0  0.01587  0.53422  0.72165  1.0000 0.0434320337
C   C48       1.0  0.07180  0.61290  0.94230  1.0000 -0.0963575578
H   H42       1.0  0.10428  0.66972  0.92928  1.0000 0.1216774747
C   C49       1.0  0.98840  0.39670  0.02240  1.0000 -0.1585662438
H   H43       1.0  0.01165  0.35894  0.01938  1.0000 0.1216774747
C   C50       1.0  0.01200  0.47080  0.99070  1.0000 0.0434320337
O   O12       1.0  0.16840  0.51950  0.86230  1.0000 -0.5336158122
N   N7        1.0  0.95500  0.04730  0.81950  1.0000 -0.2485890908
H   H44       1.0  0.92177  0.84588  0.82022  1.0000 0.2682660894
Mn  Mn5       1.0  0.47455  0.73743  0.81326  1.0000 0.9714030898
O   O13       1.0  0.47620  0.81960  0.75022  1.0000 -0.614355035
N   N8        1.0  0.62230  0.81100  0.81540  1.0000 -0.2403510705
O   O14       1.0  0.47890  0.83160  0.86260  1.0000 -0.5336158122
C   C51       1.0  0.90920  0.95340  0.81900  1.0000 0.2081023419
C   C52       1.0  0.81090  0.90500  0.81840  1.0000 0.0434320337
C   C53       1.0  0.42230  0.84660  0.87930  1.0000 0.5582673477
C   C54       1.0  0.76260  0.94780  0.81840  1.0000 -0.2257411404
H   H45       1.0  0.79093  0.00952  0.81923  1.0000 0.1275887488
C   C55       1.0  0.76250  0.81470  0.81810  1.0000 -0.2192202611
H   H46       1.0  0.79129  0.78175  0.81844  1.0000 0.1216774747
C   C56       1.0  0.66810  0.89590  0.81720  1.0000 0.0931881817
H   H47       1.0  0.63696  0.92653  0.81775  1.0000 0.1127562907
C   C57       1.0  0.66960  0.77100  0.81710  1.0000 0.0716298864
H   H48       1.0  0.63908  0.70923  0.81762  1.0000 0.1127562907
C   C58       1.0  0.45730  0.90810  0.92270  1.0000 -0.0216975043
C   C59       1.0  0.41020  0.93840  0.94900  1.0000 -0.1479451221
H   H49       1.0  0.35378  0.92781  0.94070  1.0000 0.1275887488
H   H50       1.0  0.43996  0.98413  0.74983  1.0000 0.0325225224
H   H51       1.0  0.51789  0.98413  0.77851  1.0000 0.0501412593
H   H52       1.0  0.51835  0.98413  0.72165  1.0000 0.0501412593
C   C60       1.0  0.54110  0.92820  0.94230  1.0000 -0.0963575578
H   H53       1.0  0.56545  0.89572  0.92928  1.0000 0.1216774747
C   C61       1.0  0.40830  0.01160  0.02240  1.0000 -0.1585662438
H   H54       1.0  0.34729  0.98835  0.01938  1.0000 0.1216774747
C   C62       1.0  0.45880  0.98800  0.99070  1.0000 0.0434320337
O   O15       1.0  0.35110  0.83160  0.86230  1.0000 -0.5336158122
N   N9        1.0  0.09230  0.04500  0.81950  1.0000 -0.2485890908
H   H55       1.0  0.92411  0.07823  0.82022  1.0000 0.1275887488
Mn  Mn6       1.0  0.26288  0.52545  0.81326  1.0000 0.9714030898
O   O16       1.0  0.34340  0.52380  0.75022  1.0000 -0.614355035
N   N10       1.0  0.18870  0.37770  0.81540  1.0000 -0.2485890908
O   O17       1.0  0.35270  0.52110  0.86260  1.0000 -0.5336158122
C   C63       1.0  0.04420  0.09080  0.81900  1.0000 0.1127562907
C   C64       1.0  0.09410  0.18910  0.81840  1.0000 0.0931881817
C   C65       1.0  0.42430  0.57770  0.87930  1.0000 0.5582673477
C   C66       1.0  0.18520  0.23740  0.81840  1.0000 -0.2403510705
H   H56       1.0  0.21859  0.20907  0.81923  1.0000 0.1275887488
C   C67       1.0  0.05220  0.23750  0.81810  1.0000 -0.2192202611
H   H57       1.0  0.99046  0.20871  0.81844  1.0000 0.1275887488
C   C68       1.0  0.22780  0.33190  0.81720  1.0000 0.0952554421
H   H58       1.0  0.28957  0.36304  0.81775  1.0000 0.1127562907
C   C69       1.0  0.10140  0.33040  0.81710  1.0000 0.0716298864
H   H59       1.0  0.07014  0.36092  0.81762  1.0000 0.1127562907
C   C70       1.0  0.45080  0.54270  0.92270  1.0000 -0.0216975043
C   C71       1.0  0.52820  0.58980  0.94900  1.0000 -0.1479451221
H   H60       1.0  0.57403  0.64622  0.94070  1.0000 0.1275887488
H   H61       1.0  0.54417  0.56004  0.74983  1.0000 0.0325225224
H   H62       1.0  0.46624  0.48211  0.77851  1.0000 0.0568528542
H   H63       1.0  0.46578  0.48165  0.72165  1.0000 0.0501412593
C   C72       1.0  0.38710  0.45890  0.94230  1.0000 -0.0963575578
H   H64       1.0  0.33028  0.43455  0.92928  1.0000 0.1216774747
C   C73       1.0  0.60330  0.59170  0.02240  1.0000 -0.1585662438
H   H65       1.0  0.64106  0.65271  0.01938  1.0000 0.1216774747
C   C74       1.0  0.52920  0.54120  0.99070  1.0000 0.0434320337
O   O18       1.0  0.48050  0.64890  0.86230  1.0000 -0.5350065751
H   H66       1.0  0.15412  0.07589  0.82022  1.0000 0.1216774747
Mn  Mn7       1.0  0.73712  0.26257  0.31326  1.0000 0.9714030898
O   O19       1.0  0.65660  0.18040  0.25022  1.0000 -0.614355035
N   N11       1.0  0.81130  0.18900  0.31540  1.0000 -0.2403510705
O   O20       1.0  0.64730  0.16840  0.36260  1.0000 -0.5336158122
C   C75       1.0  0.90770  0.95270  0.31950  1.0000 -0.3004836007
C   C76       1.0  0.95580  0.04660  0.31900  1.0000 0.1618831979
C   C77       1.0  0.90590  0.09500  0.31840  1.0000 0.0568528542
C   C78       1.0  0.57570  0.15340  0.37930  1.0000 0.5582673477
C   C79       1.0  0.81480  0.05220  0.31840  1.0000 -0.2403510705
H   H67       1.0  0.78141  0.99048  0.31923  1.0000 0.1216774747
C   C80       1.0  0.94780  0.18530  0.31810  1.0000 -0.2192202611
H   H68       1.0  0.00954  0.21825  0.31844  1.0000 0.1275887488
C   C81       1.0  0.77220  0.10410  0.31720  1.0000 0.0931881817
H   H69       1.0  0.71043  0.07347  0.31775  1.0000 0.1127562907
C   C82       1.0  0.89860  0.22900  0.31710  1.0000 0.0716298864
H   H70       1.0  0.92986  0.29077  0.31762  1.0000 0.1127562907
C   C83       1.0  0.54920  0.09190  0.42270  1.0000 -0.0216975043
C   C84       1.0  0.47180  0.06160  0.44900  1.0000 -0.1479451221
H   H71       1.0  0.42597  0.07219  0.44070  1.0000 0.1275887488
H   H72       1.0  0.45583  0.01587  0.24983  1.0000 0.0325225224
H   H73       1.0  0.53376  0.01587  0.27851  1.0000 0.0501412593
H   H74       1.0  0.53422  0.01587  0.22165  1.0000 0.0434320337
C   C85       1.0  0.61290  0.07180  0.44230  1.0000 -0.0963575578
H   H75       1.0  0.66972  0.10428  0.42928  1.0000 0.1216774747
C   C86       1.0  0.39670  0.98840  0.52240  1.0000 -0.1585662438
H   H76       1.0  0.35894  0.01165  0.51938  1.0000 0.1216774747
C   C87       1.0  0.47080  0.01200  0.49070  1.0000 0.0434320337
O   O21       1.0  0.51950  0.16840  0.36230  1.0000 -0.5336158122
N   N12       1.0  0.04730  0.95500  0.31950  1.0000 -0.2485890908
H   H77       1.0  0.84588  0.92177  0.32022  1.0000 0.2682660894
Mn  Mn8       1.0  0.73743  0.47455  0.31326  1.0000 0.9714030898
O   O22       1.0  0.81960  0.47620  0.25022  1.0000 -0.614355035
N   N13       1.0  0.81100  0.62230  0.31540  1.0000 -0.2403510705
O   O23       1.0  0.83160  0.47890  0.36260  1.0000 -0.5336158122
C   C88       1.0  0.95340  0.90920  0.31900  1.0000 0.2081023419
C   C89       1.0  0.90500  0.81090  0.31840  1.0000 0.0434320337
C   C90       1.0  0.84660  0.42230  0.37930  1.0000 0.5582673477
C   C91       1.0  0.94780  0.76260  0.31840  1.0000 -0.2257411404
H   H78       1.0  0.00952  0.79093  0.31923  1.0000 0.1275887488
C   C92       1.0  0.81470  0.76250  0.31810  1.0000 -0.2192202611
H   H79       1.0  0.78175  0.79129  0.31844  1.0000 0.1216774747
C   C93       1.0  0.89590  0.66810  0.31720  1.0000 0.0931881817
H   H80       1.0  0.92653  0.63696  0.31775  1.0000 0.1127562907
C   C94       1.0  0.77100  0.66960  0.31710  1.0000 0.0716298864
H   H81       1.0  0.70923  0.63908  0.31762  1.0000 0.1127562907
C   C95       1.0  0.90810  0.45730  0.42270  1.0000 -0.0216975043
C   C96       1.0  0.93840  0.41020  0.44900  1.0000 -0.1479451221
H   H82       1.0  0.92781  0.35378  0.44070  1.0000 0.1275887488
H   H83       1.0  0.98413  0.43996  0.24983  1.0000 0.0325225224
H   H84       1.0  0.98413  0.51789  0.27851  1.0000 0.0501412593
H   H85       1.0  0.98413  0.51835  0.22165  1.0000 0.0434320337
C   C97       1.0  0.92820  0.54110  0.44230  1.0000 -0.0963575578
H   H86       1.0  0.89572  0.56545  0.42928  1.0000 0.1216774747
C   C98       1.0  0.01160  0.40830  0.52240  1.0000 -0.1585662438
H   H87       1.0  0.98835  0.34729  0.51938  1.0000 0.1216774747
C   C99       1.0  0.98800  0.45880  0.49070  1.0000 0.0501412593
O   O24       1.0  0.83160  0.35110  0.36230  1.0000 -0.5336158122
N   N14       1.0  0.04500  0.09230  0.31950  1.0000 -0.2485890908
H   H88       1.0  0.07823  0.92411  0.32022  1.0000 0.1216774747
Mn  Mn9       1.0  0.52545  0.26288  0.31326  1.0000 0.9714030898
O   O25       1.0  0.52380  0.34340  0.25022  1.0000 -0.614355035
N   N15       1.0  0.37770  0.18870  0.31540  1.0000 -0.2485890908
O   O26       1.0  0.52110  0.35270  0.36260  1.0000 -0.5336158122
C   C100      1.0  0.09080  0.04420  0.31900  1.0000 0.1127562907
C   C101      1.0  0.18910  0.09410  0.31840  1.0000 0.0931881817
C   C102      1.0  0.57770  0.42430  0.37930  1.0000 0.5582673477
C   C103      1.0  0.23740  0.18520  0.31840  1.0000 -0.2403510705
H   H89       1.0  0.20907  0.21859  0.31923  1.0000 0.1275887488
C   C104      1.0  0.23750  0.05220  0.31810  1.0000 -0.2257411404
H   H90       1.0  0.20871  0.99046  0.31844  1.0000 0.1275887488
C   C105      1.0  0.33190  0.22780  0.31720  1.0000 0.0931881817
H   H91       1.0  0.36304  0.28957  0.31775  1.0000 0.1127562907
C   C106      1.0  0.33040  0.10140  0.31710  1.0000 0.0716298864
H   H92       1.0  0.36092  0.07014  0.31762  1.0000 0.1127562907
C   C107      1.0  0.54270  0.45080  0.42270  1.0000 -0.0216975043
C   C108      1.0  0.58980  0.52820  0.44900  1.0000 -0.1479451221
H   H93       1.0  0.64622  0.57403  0.44070  1.0000 0.1275887488
H   H94       1.0  0.56004  0.54417  0.24983  1.0000 0.0325225224
H   H95       1.0  0.48211  0.46624  0.27851  1.0000 0.0501412593
H   H96       1.0  0.48165  0.46578  0.22165  1.0000 0.0434320337
C   C109      1.0  0.45890  0.38710  0.44230  1.0000 -0.0963575578
H   H97       1.0  0.43455  0.33028  0.42928  1.0000 0.1216774747
C   C110      1.0  0.59170  0.60330  0.52240  1.0000 -0.1585662438
H   H98       1.0  0.65271  0.64106  0.51938  1.0000 0.1216774747
C   C111      1.0  0.54120  0.52920  0.49070  1.0000 0.0434320337
O   O27       1.0  0.64890  0.48050  0.36230  1.0000 -0.5336158122
H   H99       1.0  0.07589  0.15412  0.32022  1.0000 0.1216774747
Mn  Mn10      1.0  0.73743  0.26288  0.18674  1.0000 0.9714030898
O   O28       1.0  0.81960  0.34340  0.24978  1.0000 -0.614355035
N   N16       1.0  0.81100  0.18870  0.18460  1.0000 -0.2403510705
O   O29       1.0  0.83160  0.35270  0.13740  1.0000 -0.5336158122
C   C112      1.0  0.04730  0.09230  0.18050  1.0000 -0.3004836007
C   C113      1.0  0.95340  0.04420  0.18100  1.0000 0.1618831979
C   C114      1.0  0.90500  0.09410  0.18160  1.0000 0.0568528542
C   C115      1.0  0.84660  0.42430  0.12070  1.0000 0.5582673477
C   C116      1.0  0.94780  0.18520  0.18160  1.0000 -0.2403510705
H   H100      1.0  0.00952  0.21859  0.18077  1.0000 0.1216774747
C   C117      1.0  0.81470  0.05220  0.18190  1.0000 -0.2192202611
H   H101      1.0  0.78175  0.99046  0.18156  1.0000 0.1275887488
C   C118      1.0  0.89590  0.22780  0.18280  1.0000 0.0952554421
H   H102      1.0  0.92653  0.28957  0.18225  1.0000 0.1127562907
C   C119      1.0  0.77100  0.10140  0.18290  1.0000 0.0716298864
H   H103      1.0  0.70923  0.07015  0.18238  1.0000 0.1127562907
C   C120      1.0  0.90810  0.45080  0.07730  1.0000 -0.0216975043
C   C121      1.0  0.93840  0.52820  0.05100  1.0000 -0.1479451221
H   H104      1.0  0.92781  0.57403  0.05930  1.0000 0.1275887488
H   H105      1.0  0.98413  0.54417  0.25017  1.0000 0.0325225224
H   H106      1.0  0.98413  0.46624  0.22149  1.0000 0.0501412593
H   H107      1.0  0.98413  0.46578  0.27835  1.0000 0.0434320337
C   C122      1.0  0.92820  0.38710  0.05770  1.0000 -0.0963575578
H   H108      1.0  0.89572  0.33028  0.07072  1.0000 0.1216774747
C   C123      1.0  0.01160  0.60330  0.97760  1.0000 -0.1585662438
H   H109      1.0  0.98835  0.64106  0.98062  1.0000 0.1216774747
C   C124      1.0  0.98800  0.52920  0.00930  1.0000 0.0501412593
O   O30       1.0  0.83160  0.48050  0.13770  1.0000 -0.5336158122
N   N17       1.0  0.04500  0.95270  0.18050  1.0000 -0.2485890908
H   H110      1.0  0.07823  0.15412  0.17978  1.0000 0.2682660894
Mn  Mn11      1.0  0.52545  0.26257  0.18674  1.0000 0.9714030898
O   O31       1.0  0.52380  0.18040  0.24978  1.0000 -0.614355035
N   N18       1.0  0.37770  0.18900  0.18460  1.0000 -0.2403510705
O   O32       1.0  0.52110  0.16840  0.13740  1.0000 -0.5336158122
C   C125      1.0  0.09080  0.04660  0.18100  1.0000 0.2081023419
C   C126      1.0  0.18910  0.09500  0.18160  1.0000 0.0434320337
C   C127      1.0  0.57770  0.15340  0.12070  1.0000 0.5582673477
C   C128      1.0  0.23740  0.05220  0.18160  1.0000 -0.2257411404
H   H111      1.0  0.20907  0.99048  0.18077  1.0000 0.1275887488
C   C129      1.0  0.23750  0.18530  0.18190  1.0000 -0.2192202611
H   H112      1.0  0.20871  0.21825  0.18156  1.0000 0.1216774747
C   C130      1.0  0.33190  0.10410  0.18280  1.0000 0.0931881817
H   H113      1.0  0.36304  0.07347  0.18225  1.0000 0.1127562907
C   C131      1.0  0.33040  0.22900  0.18290  1.0000 0.0716298864
H   H114      1.0  0.36092  0.29077  0.18238  1.0000 0.1127562907
C   C132      1.0  0.54270  0.09190  0.07730  1.0000 -0.0216975043
C   C133      1.0  0.58980  0.06160  0.05100  1.0000 -0.1479451221
H   H115      1.0  0.64622  0.07219  0.05930  1.0000 0.1275887488
H   H116      1.0  0.56004  0.01587  0.25017  1.0000 0.0325225224
H   H117      1.0  0.48211  0.01587  0.22149  1.0000 0.0501412593
H   H118      1.0  0.48165  0.01587  0.27835  1.0000 0.0501412593
C   C134      1.0  0.45890  0.07180  0.05770  1.0000 -0.0963575578
H   H119      1.0  0.43455  0.10428  0.07072  1.0000 0.1216774747
C   C135      1.0  0.59170  0.98840  0.97760  1.0000 -0.1585662438
H   H120      1.0  0.65271  0.01165  0.98062  1.0000 0.1216774747
C   C136      1.0  0.54120  0.01200  0.00930  1.0000 0.0434320337
O   O33       1.0  0.64890  0.16840  0.13770  1.0000 -0.5336158122
N   N19       1.0  0.90770  0.95500  0.18050  1.0000 -0.2485890908
H   H121      1.0  0.07589  0.92177  0.17978  1.0000 0.1216774747
Mn  Mn12      1.0  0.73712  0.47455  0.18674  1.0000 0.9714030898
O   O34       1.0  0.65660  0.47620  0.24978  1.0000 -0.614355035
N   N20       1.0  0.81130  0.62230  0.18460  1.0000 -0.2485890908
O   O35       1.0  0.64730  0.47890  0.13740  1.0000 -0.5336158122
C   C137      1.0  0.95580  0.90920  0.18100  1.0000 0.1127562907
C   C138      1.0  0.90590  0.81090  0.18160  1.0000 0.0931881817
C   C139      1.0  0.57570  0.42230  0.12070  1.0000 0.5582673477
C   C140      1.0  0.81480  0.76260  0.18160  1.0000 -0.2403510705
H   H122      1.0  0.78141  0.79093  0.18077  1.0000 0.1275887488
C   C141      1.0  0.94780  0.76250  0.18190  1.0000 -0.2257411404
H   H123      1.0  0.00954  0.79129  0.18156  1.0000 0.1275887488
C   C142      1.0  0.77220  0.66810  0.18280  1.0000 0.0931881817
H   H124      1.0  0.71043  0.63696  0.18225  1.0000 0.1127562907
C   C143      1.0  0.89860  0.66960  0.18290  1.0000 0.0716298864
H   H125      1.0  0.92986  0.63908  0.18238  1.0000 0.1127562907
C   C144      1.0  0.54920  0.45730  0.07730  1.0000 -0.0216975043
C   C145      1.0  0.47180  0.41020  0.05100  1.0000 -0.1479451221
H   H126      1.0  0.42597  0.35378  0.05930  1.0000 0.1275887488
H   H127      1.0  0.45583  0.43996  0.25017  1.0000 0.0434320337
H   H128      1.0  0.53376  0.51789  0.22149  1.0000 0.0501412593
H   H129      1.0  0.53422  0.51835  0.27835  1.0000 0.0434320337
C   C146      1.0  0.61290  0.54110  0.05770  1.0000 -0.0963575578
H   H130      1.0  0.66972  0.56545  0.07072  1.0000 0.1216774747
C   C147      1.0  0.39670  0.40830  0.97760  1.0000 -0.1585662438
H   H131      1.0  0.35894  0.34729  0.98062  1.0000 0.1216774747
C   C148      1.0  0.47080  0.45880  0.00930  1.0000 0.0501412593
O   O36       1.0  0.51950  0.35110  0.13770  1.0000 -0.5336158122
H   H132      1.0  0.84588  0.92411  0.17978  1.0000 0.1216774747
O   O37       1.0  0.33333  0.66667  0.68990  1.0000 -0.588744737
O   O38       1.0  0.33333  0.66667  0.81010  1.0000 -0.588744737
O   O39       1.0  0.66667  0.33333  0.31010  1.0000 -0.588744737
O   O40       1.0  0.66667  0.33333  0.18990  1.0000 -0.588744737
C   C149      1.0  0.43020  0.86040  0.75000  1.0000 0.6045345939
C   C150      1.0  0.48145  0.96290  0.75000  1.0000 -0.3004836007
C   C151      1.0  0.13960  0.56980  0.75000  1.0000 0.6045345939
C   C152      1.0  0.03710  0.51855  0.75000  1.0000 -0.3004836007
C   C153      1.0  0.43020  0.56980  0.75000  1.0000 0.6045345939
C   C154      1.0  0.48145  0.51855  0.75000  1.0000 -0.3004836007
C   C155      1.0  0.56980  0.13960  0.25000  1.0000 0.6056231932
C   C156      1.0  0.51855  0.03710  0.25000  1.0000 -0.3004836007
C   C157      1.0  0.86040  0.43020  0.25000  1.0000 0.6056231932
C   C158      1.0  0.96290  0.48145  0.25000  1.0000 -0.3004836007
C   C159      1.0  0.56980  0.43020  0.25000  1.0000 0.6056231932
C   C160      1.0  0.51855  0.48145  0.25000  1.0000 -0.3004836007
  N   N21       1.0  0.09230  0.04730  0.68050  1.0000
  C   C161      1.0  0.95270  0.04500  0.68050  1.0000
  C   C162      1.0  0.95500  0.90770  0.68050  1.0000
  N   N22       1.0  0.95270  0.90770  0.81950  1.0000
  C   C163      1.0  0.95500  0.04730  0.81950  1.0000
  C   C164      1.0  0.09230  0.04500  0.81950  1.0000
  N   N23       1.0  0.90770  0.95270  0.31950  1.0000
  C   C165      1.0  0.04730  0.95500  0.31950  1.0000
  C   C166      1.0  0.04500  0.09230  0.31950  1.0000
  N   N24       1.0  0.04730  0.09230  0.18050  1.0000
  C   C167      1.0  0.04500  0.95270  0.18050  1.0000
  C   C168      1.0  0.90770  0.95500  0.18050  1.0000
