# DDEC6 charges by PACMAN v1.1 (https://github.com/mtap-research/PACMAN-charge/)
data_AKIXEZ_ASR_pacman
_symmetry_space_group_name_H-M   'P 1'
_cell_length_a   18.90730000
_cell_length_b   18.90730000
_cell_length_c   18.90730000
_cell_angle_alpha   58.24620000
_cell_angle_beta   58.24620000
_cell_angle_gamma   58.24620000
_symmetry_Int_Tables_number   1
_chemical_formula_structural   CuH26(C10O)4
_chemical_formula_sum   'Cu6 H156 C240 O24'
_cell_volume   4587.38323200
_cell_formula_units_Z   6
loop_
 _symmetry_equiv_pos_site_id
 _symmetry_equiv_pos_as_xyz
  1  'x, y, z'
loop_
 _atom_site_type_symbol
 _atom_site_label
 _atom_site_symmetry_multiplicity
 _atom_site_fract_x
 _atom_site_fract_y
 _atom_site_fract_z
 _atom_site_occupancy
 _atom_site_charge
Cu  Cu1  1  0.00169000  0.42799000  0.00169000  1.0 0.8803264967
Cu  Cu2  1  0.42799000  0.00169000  0.00169000  1.0 0.8803264967
Cu  Cu3  1  0.00169000  0.00169000  0.42799000  1.0 0.8803264967
Cu  Cu4  1  0.99831000  0.99831000  0.57201000  1.0 0.8803264967
Cu  Cu5  1  0.99831000  0.57201000  0.99831000  1.0 0.8803264967
Cu  Cu6  1  0.57201000  0.99831000  0.99831000  1.0 0.8803264967
H  H1  1  0.96880000  0.27290000  0.27290000  1.0 0.1455215386
H  H2  1  0.27290000  0.27290000  0.96880000  1.0 0.1455215386
H  H3  1  0.27290000  0.96880000  0.27290000  1.0 0.1455215386
H  H4  1  0.03120000  0.72710000  0.72710000  1.0 0.1455215386
H  H5  1  0.72710000  0.72710000  0.03120000  1.0 0.1455215386
H  H6  1  0.72710000  0.03120000  0.72710000  1.0 0.1375900345
H  H7  1  0.96840000  0.48640000  0.26920000  1.0 0.1375900345
H  H8  1  0.48640000  0.26920000  0.96840000  1.0 0.1375900345
H  H9  1  0.26920000  0.96840000  0.48640000  1.0 0.1375900345
H  H10  1  0.03160000  0.73080000  0.51360000  1.0 0.1375900345
H  H11  1  0.73080000  0.51360000  0.03160000  1.0 0.1375900345
H  H12  1  0.51360000  0.03160000  0.73080000  1.0 0.1375900345
H  H13  1  0.03160000  0.51360000  0.73080000  1.0 0.1375900345
H  H14  1  0.51360000  0.73080000  0.03160000  1.0 0.1375900345
H  H15  1  0.73080000  0.03160000  0.51360000  1.0 0.1375900345
H  H16  1  0.96840000  0.26920000  0.48640000  1.0 0.1375900345
H  H17  1  0.26920000  0.48640000  0.96840000  1.0 0.1375900345
H  H18  1  0.48640000  0.96840000  0.26920000  1.0 0.1375900345
H  H19  1  0.94300000  0.66910000  0.53550000  1.0 0.0696309901
H  H20  1  0.66910000  0.53550000  0.94300000  1.0 0.0696309901
H  H21  1  0.53550000  0.94300000  0.66910000  1.0 0.0696309901
H  H22  1  0.05700000  0.46450000  0.33090000  1.0 0.0696309901
H  H23  1  0.46450000  0.33090000  0.05700000  1.0 0.0696309901
H  H24  1  0.33090000  0.05700000  0.46450000  1.0 0.0696309901
H  H25  1  0.05700000  0.33090000  0.46450000  1.0 0.0696309901
H  H26  1  0.33090000  0.46450000  0.05700000  1.0 0.0696309901
H  H27  1  0.46450000  0.05700000  0.33090000  1.0 0.0696309901
H  H28  1  0.94300000  0.53550000  0.66910000  1.0 0.0696309901
H  H29  1  0.53550000  0.66910000  0.94300000  1.0 0.0696309901
H  H30  1  0.66910000  0.94300000  0.53550000  1.0 0.0696309901
H  H31  1  0.18850000  0.46430000  0.60130000  1.0 0.1058308131
H  H32  1  0.46430000  0.60130000  0.18850000  1.0 0.1058308131
H  H33  1  0.60130000  0.18850000  0.46430000  1.0 0.1058308131
H  H34  1  0.81150000  0.39870000  0.53570000  1.0 0.1058308131
H  H35  1  0.39870000  0.53570000  0.81150000  1.0 0.1058308131
H  H36  1  0.53570000  0.81150000  0.39870000  1.0 0.1058308131
H  H37  1  0.81150000  0.53570000  0.39870000  1.0 0.1058308131
H  H38  1  0.53570000  0.39870000  0.81150000  1.0 0.1058308131
H  H39  1  0.39870000  0.81150000  0.53570000  1.0 0.1058308131
H  H40  1  0.18850000  0.60130000  0.46430000  1.0 0.1058308131
H  H41  1  0.60130000  0.46430000  0.18850000  1.0 0.1058308131
H  H42  1  0.46430000  0.18850000  0.60130000  1.0 0.1058308131
H  H43  1  0.11770000  0.32330000  0.51850000  1.0 0.0905674166
H  H44  1  0.32330000  0.51850000  0.11770000  1.0 0.0905674166
H  H45  1  0.51850000  0.11770000  0.32330000  1.0 0.0905674166
H  H46  1  0.88230000  0.48150000  0.67670000  1.0 0.0905674166
H  H47  1  0.48150000  0.67670000  0.88230000  1.0 0.0905674166
H  H48  1  0.67670000  0.88230000  0.48150000  1.0 0.0905674166
H  H49  1  0.88230000  0.67670000  0.48150000  1.0 0.0905674166
H  H50  1  0.67670000  0.48150000  0.88230000  1.0 0.0905674166
H  H51  1  0.48150000  0.88230000  0.67670000  1.0 0.0905674166
H  H52  1  0.11770000  0.51850000  0.32330000  1.0 0.0905674166
H  H53  1  0.51850000  0.32330000  0.11770000  1.0 0.0905674166
H  H54  1  0.32330000  0.11770000  0.51850000  1.0 0.0905674166
H  H55  1  0.86900000  0.56730000  0.56730000  1.0 0.0797061331
H  H56  1  0.56730000  0.56730000  0.86900000  1.0 0.0797061331
H  H57  1  0.56730000  0.86900000  0.56730000  1.0 0.0797061331
H  H58  1  0.13100000  0.43270000  0.43270000  1.0 0.0797061331
H  H59  1  0.43270000  0.43270000  0.13100000  1.0 0.0797061331
H  H60  1  0.43270000  0.13100000  0.43270000  1.0 0.0797061331
H  H61  1  0.92260000  0.62780000  0.60170000  1.0 0.0797061331
H  H62  1  0.62780000  0.60170000  0.92260000  1.0 0.0797061331
H  H63  1  0.60170000  0.92260000  0.62780000  1.0 0.0797061331
H  H64  1  0.07740000  0.39830000  0.37220000  1.0 0.0797061331
H  H65  1  0.39830000  0.37220000  0.07740000  1.0 0.0797061331
H  H66  1  0.37220000  0.07740000  0.39830000  1.0 0.0797061331
H  H67  1  0.07740000  0.37220000  0.39830000  1.0 0.0797061331
H  H68  1  0.37220000  0.39830000  0.07740000  1.0 0.0797061331
H  H69  1  0.39830000  0.07740000  0.37220000  1.0 0.0797061331
H  H70  1  0.92260000  0.60170000  0.62780000  1.0 0.0797061331
H  H71  1  0.60170000  0.62780000  0.92260000  1.0 0.0797061331
H  H72  1  0.62780000  0.92260000  0.60170000  1.0 0.0797061331
H  H73  1  0.20650000  0.48290000  0.56920000  1.0 0.0905674166
H  H74  1  0.48290000  0.56920000  0.20650000  1.0 0.0905674166
H  H75  1  0.56920000  0.20650000  0.48290000  1.0 0.0905674166
H  H76  1  0.79350000  0.43080000  0.51710000  1.0 0.0905674166
H  H77  1  0.43080000  0.51710000  0.79350000  1.0 0.0905674166
H  H78  1  0.51710000  0.79350000  0.43080000  1.0 0.0905674166
H  H79  1  0.79350000  0.51710000  0.43080000  1.0 0.0905674166
H  H80  1  0.51710000  0.43080000  0.79350000  1.0 0.0905674166
H  H81  1  0.43080000  0.79350000  0.51710000  1.0 0.0905674166
H  H82  1  0.20650000  0.56920000  0.48290000  1.0 0.0905674166
H  H83  1  0.56920000  0.48290000  0.20650000  1.0 0.0905674166
H  H84  1  0.48290000  0.20650000  0.56920000  1.0 0.0905674166
H  H85  1  0.30790000  0.36250000  0.52550000  1.0 0.0797061331
H  H86  1  0.36250000  0.52550000  0.30790000  1.0 0.0797061331
H  H87  1  0.52550000  0.30790000  0.36250000  1.0 0.0797061331
H  H88  1  0.69210000  0.47450000  0.63750000  1.0 0.0797061331
H  H89  1  0.47450000  0.63750000  0.69210000  1.0 0.0797061331
H  H90  1  0.63750000  0.69210000  0.47450000  1.0 0.0797061331
H  H91  1  0.69210000  0.63750000  0.47450000  1.0 0.0797061331
H  H92  1  0.63750000  0.47450000  0.69210000  1.0 0.0797061331
H  H93  1  0.47450000  0.69210000  0.63750000  1.0 0.0797061331
H  H94  1  0.30790000  0.52550000  0.36250000  1.0 0.0797061331
H  H95  1  0.52550000  0.36250000  0.30790000  1.0 0.0797061331
H  H96  1  0.36250000  0.30790000  0.52550000  1.0 0.0797061331
H  H97  1  0.26980000  0.29260000  0.48440000  1.0 0.0905674166
H  H98  1  0.29260000  0.48440000  0.26980000  1.0 0.0905674166
H  H99  1  0.48440000  0.26980000  0.29260000  1.0 0.0905674166
H  H100  1  0.73020000  0.51560000  0.70740000  1.0 0.0905674166
H  H101  1  0.51560000  0.70740000  0.73020000  1.0 0.0905674166
H  H102  1  0.70740000  0.73020000  0.51560000  1.0 0.0905674166
H  H103  1  0.73020000  0.70740000  0.51560000  1.0 0.0905674166
H  H104  1  0.70740000  0.51560000  0.73020000  1.0 0.0905674166
H  H105  1  0.51560000  0.73020000  0.70740000  1.0 0.0905674166
H  H106  1  0.26980000  0.48440000  0.29260000  1.0 0.0905674166
H  H107  1  0.48440000  0.29260000  0.26980000  1.0 0.0905674166
H  H108  1  0.29260000  0.26980000  0.48440000  1.0 0.0905674166
H  H109  1  0.12980000  0.33940000  0.49120000  1.0 0.0905674166
H  H110  1  0.33940000  0.49120000  0.12980000  1.0 0.0905674166
H  H111  1  0.49120000  0.12980000  0.33940000  1.0 0.0905674166
H  H112  1  0.87020000  0.50880000  0.66060000  1.0 0.0905674166
H  H113  1  0.50880000  0.66060000  0.87020000  1.0 0.0905674166
H  H114  1  0.66060000  0.87020000  0.50880000  1.0 0.0905674166
H  H115  1  0.87020000  0.66060000  0.50880000  1.0 0.0905674166
H  H116  1  0.66060000  0.50880000  0.87020000  1.0 0.0905674166
H  H117  1  0.50880000  0.87020000  0.66060000  1.0 0.0905674166
H  H118  1  0.12980000  0.49120000  0.33940000  1.0 0.0905674166
H  H119  1  0.49120000  0.33940000  0.12980000  1.0 0.0905674166
H  H120  1  0.33940000  0.12980000  0.49120000  1.0 0.0905674166
H  H121  1  0.28100000  0.32590000  0.58870000  1.0 0.0905674166
H  H122  1  0.32590000  0.58870000  0.28100000  1.0 0.0905674166
H  H123  1  0.58870000  0.28100000  0.32590000  1.0 0.0905674166
H  H124  1  0.71900000  0.41130000  0.67410000  1.0 0.0905674166
H  H125  1  0.41130000  0.67410000  0.71900000  1.0 0.0905674166
H  H126  1  0.67410000  0.71900000  0.41130000  1.0 0.0905674166
H  H127  1  0.71900000  0.67410000  0.41130000  1.0 0.0905674166
H  H128  1  0.67410000  0.41130000  0.71900000  1.0 0.0905674166
H  H129  1  0.41130000  0.71900000  0.67410000  1.0 0.0905674166
H  H130  1  0.28100000  0.58870000  0.32590000  1.0 0.0905674166
H  H131  1  0.58870000  0.32590000  0.28100000  1.0 0.0905674166
H  H132  1  0.32590000  0.28100000  0.58870000  1.0 0.0905674166
H  H133  1  0.24460000  0.25790000  0.54310000  1.0 0.0905674166
H  H134  1  0.25790000  0.54310000  0.24460000  1.0 0.0905674166
H  H135  1  0.54310000  0.24460000  0.25790000  1.0 0.0905674166
H  H136  1  0.75540000  0.45690000  0.74210000  1.0 0.0905674166
H  H137  1  0.45690000  0.74210000  0.75540000  1.0 0.0905674166
H  H138  1  0.74210000  0.75540000  0.45690000  1.0 0.0905674166
H  H139  1  0.75540000  0.74210000  0.45690000  1.0 0.0905674166
H  H140  1  0.74210000  0.45690000  0.75540000  1.0 0.0905674166
H  H141  1  0.45690000  0.75540000  0.74210000  1.0 0.0905674166
H  H142  1  0.24460000  0.54310000  0.25790000  1.0 0.0905674166
H  H143  1  0.54310000  0.25790000  0.24460000  1.0 0.0905674166
H  H144  1  0.25790000  0.24460000  0.54310000  1.0 0.0905674166
H  H145  1  0.91570000  0.61310000  0.46790000  1.0 0.0905674166
H  H146  1  0.61310000  0.46790000  0.91570000  1.0 0.0905674166
H  H147  1  0.46790000  0.91570000  0.61310000  1.0 0.0905674166
H  H148  1  0.08430000  0.53210000  0.38690000  1.0 0.0905674166
H  H149  1  0.53210000  0.38690000  0.08430000  1.0 0.0905674166
H  H150  1  0.38690000  0.08430000  0.53210000  1.0 0.0905674166
H  H151  1  0.08430000  0.38690000  0.53210000  1.0 0.0905674166
H  H152  1  0.38690000  0.53210000  0.08430000  1.0 0.0905674166
H  H153  1  0.53210000  0.08430000  0.38690000  1.0 0.0905674166
H  H154  1  0.91570000  0.46790000  0.61310000  1.0 0.0905674166
H  H155  1  0.46790000  0.61310000  0.91570000  1.0 0.0905674166
H  H156  1  0.61310000  0.91570000  0.46790000  1.0 0.0905674166
C  C1  1  0.97550000  0.43110000  0.16200000  1.0 0.5887446077
C  C2  1  0.43110000  0.16200000  0.97550000  1.0 0.5887446077
C  C3  1  0.16200000  0.97550000  0.43110000  1.0 0.5887446077
C  C4  1  0.02450000  0.83800000  0.56890000  1.0 0.5887446077
C  C5  1  0.83800000  0.56890000  0.02450000  1.0 0.5887446077
C  C6  1  0.56890000  0.02450000  0.83800000  1.0 0.5887446077
C  C7  1  0.02450000  0.56890000  0.83800000  1.0 0.5887446077
C  C8  1  0.56890000  0.83800000  0.02450000  1.0 0.5887446077
C  C9  1  0.83800000  0.02450000  0.56890000  1.0 0.5887446077
C  C10  1  0.97550000  0.16200000  0.43110000  1.0 0.5887446077
C  C11  1  0.16200000  0.43110000  0.97550000  1.0 0.5887446077
C  C12  1  0.43110000  0.97550000  0.16200000  1.0 0.5887446077
C  C13  1  0.96805000  0.30125000  0.30125000  1.0 -0.0887276025
C  C14  1  0.30125000  0.30125000  0.96805000  1.0 -0.0887276025
C  C15  1  0.30125000  0.96805000  0.30125000  1.0 -0.0887276025
C  C16  1  0.03195000  0.69875000  0.69875000  1.0 -0.0887276025
C  C17  1  0.69875000  0.69875000  0.03195000  1.0 -0.0887276025
C  C18  1  0.69875000  0.03195000  0.69875000  1.0 -0.0887276025
C  C19  1  0.96749000  0.38789000  0.25699000  1.0 -0.002244044
C  C20  1  0.38789000  0.25699000  0.96749000  1.0 -0.002244044
C  C21  1  0.25699000  0.96749000  0.38789000  1.0 -0.002244044
C  C22  1  0.03251000  0.74301000  0.61211000  1.0 -0.002244044
C  C23  1  0.74301000  0.61211000  0.03251000  1.0 -0.002244044
C  C24  1  0.61211000  0.03251000  0.74301000  1.0 -0.002244044
C  C25  1  0.03251000  0.61211000  0.74301000  1.0 -0.002244044
C  C26  1  0.61211000  0.74301000  0.03251000  1.0 -0.002244044
C  C27  1  0.74301000  0.03251000  0.61211000  1.0 -0.002244044
C  C28  1  0.96749000  0.25699000  0.38789000  1.0 -0.002244044
C  C29  1  0.25699000  0.38789000  0.96749000  1.0 -0.002244044
C  C30  1  0.38789000  0.96749000  0.25699000  1.0 -0.002244044
C  C31  1  0.96839000  0.42849000  0.29889000  1.0 -0.2708799023
C  C32  1  0.42849000  0.29889000  0.96839000  1.0 -0.2708799023
C  C33  1  0.29889000  0.96839000  0.42849000  1.0 -0.2708799023
C  C34  1  0.03161000  0.70111000  0.57151000  1.0 -0.2708799023
C  C35  1  0.70111000  0.57151000  0.03161000  1.0 -0.2708799023
C  C36  1  0.57151000  0.03161000  0.70111000  1.0 -0.2708799023
C  C37  1  0.03161000  0.57151000  0.70111000  1.0 -0.2708799023
C  C38  1  0.57151000  0.70111000  0.03161000  1.0 -0.2708799023
C  C39  1  0.70111000  0.03161000  0.57151000  1.0 -0.2708799023
C  C40  1  0.96839000  0.29889000  0.42849000  1.0 -0.2708799023
C  C41  1  0.29889000  0.42849000  0.96839000  1.0 -0.2708799023
C  C42  1  0.42849000  0.96839000  0.29889000  1.0 -0.2708799023
C  C43  1  0.96903000  0.38473000  0.38473000  1.0 0.0905674166
C  C44  1  0.38473000  0.38473000  0.96903000  1.0 0.0905674166
C  C45  1  0.38473000  0.96903000  0.38473000  1.0 0.0905674166
C  C46  1  0.03097000  0.61527000  0.61527000  1.0 0.0905674166
C  C47  1  0.61527000  0.61527000  0.03097000  1.0 0.0905674166
C  C48  1  0.61527000  0.03097000  0.61527000  1.0 0.0905674166
C  C49  1  0.98400000  0.42310000  0.42310000  1.0 -0.002244044
C  C50  1  0.42310000  0.42310000  0.98400000  1.0 -0.0076602728
C  C51  1  0.42310000  0.98400000  0.42310000  1.0 -0.002244044
C  C52  1  0.01600000  0.57690000  0.57690000  1.0 -0.0076602728
C  C53  1  0.57690000  0.57690000  0.01600000  1.0 -0.002244044
C  C54  1  0.57690000  0.01600000  0.57690000  1.0 -0.0076602728
C  C55  1  0.99100000  0.45650000  0.45650000  1.0 -0.0285666357
C  C56  1  0.45650000  0.45650000  0.99100000  1.0 -0.0285666357
C  C57  1  0.45650000  0.99100000  0.45650000  1.0 -0.0285666357
C  C58  1  0.00900000  0.54350000  0.54350000  1.0 -0.0285666357
C  C59  1  0.54350000  0.54350000  0.00900000  1.0 -0.0285666357
C  C60  1  0.54350000  0.00900000  0.54350000  1.0 -0.0285666357
C  C61  1  0.00000000  0.48860000  0.51140000  1.0 0.0383467199
C  C62  1  0.48860000  0.51140000  0.00000000  1.0 0.0383467199
C  C63  1  0.51140000  0.00000000  0.48860000  1.0 0.0383467199
C  C64  1  0.00000000  0.51140000  0.48860000  1.0 0.0383467199
C  C65  1  0.51140000  0.48860000  0.00000000  1.0 0.0383467199
C  C66  1  0.48860000  0.00000000  0.51140000  1.0 0.0383467199
C  C67  1  0.96640000  0.58080000  0.48610000  1.0 -0.0285666357
C  C68  1  0.58080000  0.48610000  0.96640000  1.0 -0.0285666357
C  C69  1  0.48610000  0.96640000  0.58080000  1.0 -0.0285666357
C  C70  1  0.03360000  0.51390000  0.41920000  1.0 -0.0285666357
C  C71  1  0.51390000  0.41920000  0.03360000  1.0 -0.0285666357
C  C72  1  0.41920000  0.03360000  0.51390000  1.0 -0.0285666357
C  C73  1  0.03360000  0.41920000  0.51390000  1.0 -0.0285666357
C  C74  1  0.41920000  0.51390000  0.03360000  1.0 -0.0285666357
C  C75  1  0.51390000  0.03360000  0.41920000  1.0 -0.0285666357
C  C76  1  0.96640000  0.48610000  0.58080000  1.0 -0.0285666357
C  C77  1  0.48610000  0.58080000  0.96640000  1.0 -0.0285666357
C  C78  1  0.58080000  0.96640000  0.48610000  1.0 -0.0285666357
C  C79  1  0.98470000  0.61730000  0.51950000  1.0 -0.0422925729
C  C80  1  0.61730000  0.51950000  0.98470000  1.0 -0.0422925729
C  C81  1  0.51950000  0.98470000  0.61730000  1.0 -0.0422925729
C  C82  1  0.01530000  0.48050000  0.38270000  1.0 -0.0422925729
C  C83  1  0.48050000  0.38270000  0.01530000  1.0 -0.0422925729
C  C84  1  0.38270000  0.01530000  0.48050000  1.0 -0.0422925729
C  C85  1  0.01530000  0.38270000  0.48050000  1.0 -0.0422925729
C  C86  1  0.38270000  0.48050000  0.01530000  1.0 -0.0422925729
C  C87  1  0.48050000  0.01530000  0.38270000  1.0 -0.0422925729
C  C88  1  0.98470000  0.51950000  0.61730000  1.0 -0.0422925729
C  C89  1  0.51950000  0.61730000  0.98470000  1.0 -0.0422925729
C  C90  1  0.61730000  0.98470000  0.51950000  1.0 -0.0422925729
C  C91  1  0.05660000  0.56980000  0.54820000  1.0 0.0281783929
C  C92  1  0.56980000  0.54820000  0.05660000  1.0 0.0281783929
C  C93  1  0.54820000  0.05660000  0.56980000  1.0 0.0281783929
C  C94  1  0.94340000  0.45180000  0.43020000  1.0 0.0281783929
C  C95  1  0.45180000  0.43020000  0.94340000  1.0 0.0281783929
C  C96  1  0.43020000  0.94340000  0.45180000  1.0 0.0281783929
C  C97  1  0.94340000  0.43020000  0.45180000  1.0 0.0281783929
C  C98  1  0.43020000  0.45180000  0.94340000  1.0 0.0281783929
C  C99  1  0.45180000  0.94340000  0.43020000  1.0 0.0281783929
C  C100  1  0.05660000  0.54820000  0.56980000  1.0 0.0281783929
C  C101  1  0.54820000  0.56980000  0.05660000  1.0 0.0281783929
C  C102  1  0.56980000  0.05660000  0.54820000  1.0 0.0281783929
C  C103  1  0.10500000  0.48330000  0.55090000  1.0 0.0090586386
C  C104  1  0.48330000  0.55090000  0.10500000  1.0 0.0090586386
C  C105  1  0.55090000  0.10500000  0.48330000  1.0 0.0090586386
C  C106  1  0.89500000  0.44910000  0.51670000  1.0 0.0090586386
C  C107  1  0.44910000  0.51670000  0.89500000  1.0 0.0090586386
C  C108  1  0.51670000  0.89500000  0.44910000  1.0 0.0090586386
C  C109  1  0.89500000  0.51670000  0.44910000  1.0 0.0090586386
C  C110  1  0.51670000  0.44910000  0.89500000  1.0 0.0090586386
C  C111  1  0.44910000  0.89500000  0.51670000  1.0 0.0090586386
C  C112  1  0.10500000  0.55090000  0.48330000  1.0 0.0090586386
C  C113  1  0.55090000  0.48330000  0.10500000  1.0 0.0090586386
C  C114  1  0.48330000  0.10500000  0.55090000  1.0 0.0090586386
C  C115  1  0.08630000  0.44670000  0.51740000  1.0 -0.0285666357
C  C116  1  0.44670000  0.51740000  0.08630000  1.0 -0.0285666357
C  C117  1  0.51740000  0.08630000  0.44670000  1.0 -0.0285666357
C  C118  1  0.91370000  0.48260000  0.55330000  1.0 -0.0285666357
C  C119  1  0.48260000  0.55330000  0.91370000  1.0 -0.0285666357
C  C120  1  0.55330000  0.91370000  0.48260000  1.0 -0.0285666357
C  C121  1  0.91370000  0.55330000  0.48260000  1.0 -0.0285666357
C  C122  1  0.55330000  0.48260000  0.91370000  1.0 -0.0285666357
C  C123  1  0.48260000  0.91370000  0.55330000  1.0 -0.0285666357
C  C124  1  0.08630000  0.51740000  0.44670000  1.0 -0.0285666357
C  C125  1  0.51740000  0.44670000  0.08630000  1.0 -0.0285666357
C  C126  1  0.44670000  0.08630000  0.51740000  1.0 -0.0285666357
C  C127  1  0.17580000  0.43700000  0.58040000  1.0 -0.1717391949
C  C128  1  0.43700000  0.58040000  0.17580000  1.0 -0.1717391949
C  C129  1  0.58040000  0.17580000  0.43700000  1.0 -0.1717391949
C  C130  1  0.82420000  0.41960000  0.56300000  1.0 -0.1717391949
C  C131  1  0.41960000  0.56300000  0.82420000  1.0 -0.1717391949
C  C132  1  0.56300000  0.82420000  0.41960000  1.0 -0.1717391949
C  C133  1  0.82420000  0.56300000  0.41960000  1.0 -0.1717391949
C  C134  1  0.56300000  0.41960000  0.82420000  1.0 -0.1717391949
C  C135  1  0.41960000  0.82420000  0.56300000  1.0 -0.1717391949
C  C136  1  0.17580000  0.58040000  0.43700000  1.0 -0.1717391949
C  C137  1  0.58040000  0.43700000  0.17580000  1.0 -0.1717391949
C  C138  1  0.43700000  0.17580000  0.58040000  1.0 -0.1717391949
C  C139  1  0.22330000  0.35040000  0.58500000  1.0 0.0090586386
C  C140  1  0.35040000  0.58500000  0.22330000  1.0 0.0090586386
C  C141  1  0.58500000  0.22330000  0.35040000  1.0 0.0090586386
C  C142  1  0.77670000  0.41500000  0.64960000  1.0 0.0090586386
C  C143  1  0.41500000  0.64960000  0.77670000  1.0 0.0090586386
C  C144  1  0.64960000  0.77670000  0.41500000  1.0 0.0090586386
C  C145  1  0.77670000  0.64960000  0.41500000  1.0 0.0090586386
C  C146  1  0.64960000  0.41500000  0.77670000  1.0 0.0090586386
C  C147  1  0.41500000  0.77670000  0.64960000  1.0 0.0090586386
C  C148  1  0.22330000  0.58500000  0.35040000  1.0 0.0090586386
C  C149  1  0.58500000  0.35040000  0.22330000  1.0 0.0090586386
C  C150  1  0.35040000  0.22330000  0.58500000  1.0 0.0090586386
C  C151  1  0.20150000  0.30890000  0.56070000  1.0 -0.0824356635
C  C152  1  0.30890000  0.56070000  0.20150000  1.0 -0.0824356635
C  C153  1  0.56070000  0.20150000  0.30890000  1.0 -0.0824356635
C  C154  1  0.79850000  0.43930000  0.69110000  1.0 -0.0824356635
C  C155  1  0.43930000  0.69110000  0.79850000  1.0 -0.0824356635
C  C156  1  0.69110000  0.79850000  0.43930000  1.0 -0.0824356635
C  C157  1  0.79850000  0.69110000  0.43930000  1.0 -0.0824356635
C  C158  1  0.69110000  0.43930000  0.79850000  1.0 -0.0824356635
C  C159  1  0.43930000  0.79850000  0.69110000  1.0 -0.0824356635
C  C160  1  0.20150000  0.56070000  0.30890000  1.0 -0.0824356635
C  C161  1  0.56070000  0.30890000  0.20150000  1.0 -0.0824356635
C  C162  1  0.30890000  0.20150000  0.56070000  1.0 -0.0824356635
C  C163  1  0.13610000  0.35890000  0.52300000  1.0 -0.1481922695
C  C164  1  0.35890000  0.52300000  0.13610000  1.0 -0.1481922695
C  C165  1  0.52300000  0.13610000  0.35890000  1.0 -0.1481922695
C  C166  1  0.86390000  0.47700000  0.64110000  1.0 -0.1481922695
C  C167  1  0.47700000  0.64110000  0.86390000  1.0 -0.1481922695
C  C168  1  0.64110000  0.86390000  0.47700000  1.0 -0.1481922695
C  C169  1  0.86390000  0.64110000  0.47700000  1.0 -0.1481922695
C  C170  1  0.64110000  0.47700000  0.86390000  1.0 -0.1481922695
C  C171  1  0.47700000  0.86390000  0.64110000  1.0 -0.1481922695
C  C172  1  0.13610000  0.52300000  0.35890000  1.0 -0.1481922695
C  C173  1  0.52300000  0.35890000  0.13610000  1.0 -0.1481922695
C  C174  1  0.35890000  0.13610000  0.52300000  1.0 -0.1481922695
C  C175  1  0.93620000  0.54900000  0.54900000  1.0 0.0007019783
C  C176  1  0.54900000  0.54900000  0.93620000  1.0 -0.002244044
C  C177  1  0.54900000  0.93620000  0.54900000  1.0 -0.002244044
C  C178  1  0.06380000  0.45100000  0.45100000  1.0 -0.002244044
C  C179  1  0.45100000  0.45100000  0.06380000  1.0 -0.002244044
C  C180  1  0.45100000  0.06380000  0.45100000  1.0 -0.002244044
C  C181  1  0.95770000  0.58280000  0.58280000  1.0 0.0007019783
C  C182  1  0.58280000  0.58280000  0.95770000  1.0 -0.002244044
C  C183  1  0.58280000  0.95770000  0.58280000  1.0 0.0007019783
C  C184  1  0.04230000  0.41720000  0.41720000  1.0 -0.002244044
C  C185  1  0.41720000  0.41720000  0.04230000  1.0 0.0007019783
C  C186  1  0.41720000  0.04230000  0.41720000  1.0 -0.002244044
C  C187  1  0.04660000  0.56310000  0.56310000  1.0 -0.0076602728
C  C188  1  0.56310000  0.56310000  0.04660000  1.0 -0.0076602728
C  C189  1  0.56310000  0.04660000  0.56310000  1.0 -0.0076602728
C  C190  1  0.95340000  0.43690000  0.43690000  1.0 -0.0076602728
C  C191  1  0.43690000  0.43690000  0.95340000  1.0 -0.0076602728
C  C192  1  0.43690000  0.95340000  0.43690000  1.0 -0.0076602728
C  C193  1  0.18490000  0.45690000  0.55590000  1.0 -0.1206795328
C  C194  1  0.45690000  0.55590000  0.18490000  1.0 -0.1206795328
C  C195  1  0.55590000  0.18490000  0.45690000  1.0 -0.1206795328
C  C196  1  0.81510000  0.44410000  0.54310000  1.0 -0.1206795328
C  C197  1  0.44410000  0.54310000  0.81510000  1.0 -0.1206795328
C  C198  1  0.54310000  0.81510000  0.44410000  1.0 -0.1206795328
C  C199  1  0.81510000  0.54310000  0.44410000  1.0 -0.1206795328
C  C200  1  0.54310000  0.44410000  0.81510000  1.0 -0.1206795328
C  C201  1  0.44410000  0.81510000  0.54310000  1.0 -0.1206795328
C  C202  1  0.18490000  0.55590000  0.45690000  1.0 -0.1206795328
C  C203  1  0.55590000  0.45690000  0.18490000  1.0 -0.1206795328
C  C204  1  0.45690000  0.18490000  0.55590000  1.0 -0.1206795328
C  C205  1  0.24600000  0.38200000  0.53700000  1.0 -0.0887276025
C  C206  1  0.38200000  0.53700000  0.24600000  1.0 -0.0887276025
C  C207  1  0.53700000  0.24600000  0.38200000  1.0 -0.0887276025
C  C208  1  0.75400000  0.46300000  0.61800000  1.0 -0.0887276025
C  C209  1  0.46300000  0.61800000  0.75400000  1.0 -0.0887276025
C  C210  1  0.61800000  0.75400000  0.46300000  1.0 -0.0887276025
C  C211  1  0.75400000  0.61800000  0.46300000  1.0 -0.0887276025
C  C212  1  0.61800000  0.46300000  0.75400000  1.0 -0.0887276025
C  C213  1  0.46300000  0.75400000  0.61800000  1.0 -0.0887276025
C  C214  1  0.24600000  0.53700000  0.38200000  1.0 -0.0887276025
C  C215  1  0.53700000  0.38200000  0.24600000  1.0 -0.0887276025
C  C216  1  0.38200000  0.24600000  0.53700000  1.0 -0.0887276025
C  C217  1  0.23040000  0.33540000  0.51340000  1.0 -0.095934577
C  C218  1  0.33540000  0.51340000  0.23040000  1.0 -0.095934577
C  C219  1  0.51340000  0.23040000  0.33540000  1.0 -0.095934577
C  C220  1  0.76960000  0.48660000  0.66460000  1.0 -0.095934577
C  C221  1  0.48660000  0.66460000  0.76960000  1.0 -0.095934577
C  C222  1  0.66460000  0.76960000  0.48660000  1.0 -0.095934577
C  C223  1  0.76960000  0.66460000  0.48660000  1.0 -0.095934577
C  C224  1  0.66460000  0.48660000  0.76960000  1.0 -0.095934577
C  C225  1  0.48660000  0.76960000  0.66460000  1.0 -0.095934577
C  C226  1  0.23040000  0.51340000  0.33540000  1.0 -0.095934577
C  C227  1  0.51340000  0.33540000  0.23040000  1.0 -0.095934577
C  C228  1  0.33540000  0.23040000  0.51340000  1.0 -0.095934577
C  C229  1  0.15190000  0.36990000  0.49890000  1.0 -0.1789591366
C  C230  1  0.36990000  0.49890000  0.15190000  1.0 -0.1789591366
C  C231  1  0.49890000  0.15190000  0.36990000  1.0 -0.1789591366
C  C232  1  0.84810000  0.50110000  0.63010000  1.0 -0.1789591366
C  C233  1  0.50110000  0.63010000  0.84810000  1.0 -0.1789591366
C  C234  1  0.63010000  0.84810000  0.50110000  1.0 -0.1789591366
C  C235  1  0.84810000  0.63010000  0.50110000  1.0 -0.1789591366
C  C236  1  0.63010000  0.50110000  0.84810000  1.0 -0.1789591366
C  C237  1  0.50110000  0.84810000  0.63010000  1.0 -0.1789591366
C  C238  1  0.15190000  0.49890000  0.36990000  1.0 -0.1789591366
C  C239  1  0.49890000  0.36990000  0.15190000  1.0 -0.1789591366
C  C240  1  0.36990000  0.15190000  0.49890000  1.0 -0.1789591366
O  O1  1  0.97904000  0.38839000  0.12734000  1.0 -0.5060890246
O  O2  1  0.38839000  0.12734000  0.97904000  1.0 -0.5060890246
O  O3  1  0.12734000  0.97904000  0.38839000  1.0 -0.5060890246
O  O4  1  0.02096000  0.87266000  0.61161000  1.0 -0.5060890246
O  O5  1  0.87266000  0.61161000  0.02096000  1.0 -0.5060890246
O  O6  1  0.61161000  0.02096000  0.87266000  1.0 -0.5060890246
O  O7  1  0.02096000  0.61161000  0.87266000  1.0 -0.5060890246
O  O8  1  0.61161000  0.87266000  0.02096000  1.0 -0.5060890246
O  O9  1  0.87266000  0.02096000  0.61161000  1.0 -0.5060890246
O  O10  1  0.97904000  0.12734000  0.38839000  1.0 -0.5060890246
O  O11  1  0.12734000  0.38839000  0.97904000  1.0 -0.5060890246
O  O12  1  0.38839000  0.97904000  0.12734000  1.0 -0.5060890246
O  O13  1  0.97751000  0.50931000  0.12441000  1.0 -0.5265273282
O  O14  1  0.50931000  0.12441000  0.97751000  1.0 -0.5265273282
O  O15  1  0.12441000  0.97751000  0.50931000  1.0 -0.5265273282
O  O16  1  0.02249000  0.87559000  0.49069000  1.0 -0.5265273282
O  O17  1  0.87559000  0.49069000  0.02249000  1.0 -0.5265273282
O  O18  1  0.49069000  0.02249000  0.87559000  1.0 -0.5265273282
O  O19  1  0.02249000  0.49069000  0.87559000  1.0 -0.5265273282
O  O20  1  0.49069000  0.87559000  0.02249000  1.0 -0.5265273282
O  O21  1  0.87559000  0.02249000  0.49069000  1.0 -0.5265273282
O  O22  1  0.97751000  0.12441000  0.50931000  1.0 -0.5265273282
O  O23  1  0.12441000  0.50931000  0.97751000  1.0 -0.5265273282
O  O24  1  0.50931000  0.97751000  0.12441000  1.0 -0.5265273282
