# DDEC6 charges by PACMAN v1.1 (https://github.com/mtap-research/PACMAN-charge/)
data_ALAMUW_ASR_pacman
_symmetry_space_group_name_H-M   'P 1'
_cell_length_a   18.79400000
_cell_length_b   18.79400000
_cell_length_c   50.17000000
_cell_angle_alpha   90.00000000
_cell_angle_beta   90.00000000
_cell_angle_gamma   120.00000000
_symmetry_Int_Tables_number   1
_chemical_formula_structural   CuH4C13NO6
_chemical_formula_sum   'Cu18 H72 C234 N18 O108'
_cell_volume   15346.63548264
_cell_formula_units_Z   18
loop_
 _symmetry_equiv_pos_site_id
 _symmetry_equiv_pos_as_xyz
  1  'x, y, z'
loop_
 _atom_site_type_symbol
 _atom_site_label
 _atom_site_symmetry_multiplicity
 _atom_site_fract_x
 _atom_site_fract_y
 _atom_site_fract_z
 _atom_site_occupancy
 _atom_site_charge
Cu  Cu1  1  0.47716000  0.95431000  0.02198000  1.0 0.8726647787
Cu  Cu2  1  0.04569000  0.52285000  0.02198000  1.0 0.8726647787
Cu  Cu3  1  0.47715000  0.52284000  0.02198000  1.0 0.8726647787
Cu  Cu4  1  0.95431000  0.47715000  0.97802000  1.0 0.8726647787
Cu  Cu5  1  0.52285000  0.47716000  0.97802000  1.0 0.8726647787
Cu  Cu6  1  0.52284000  0.04569000  0.97802000  1.0 0.8726647787
Cu  Cu7  1  0.14383000  0.28764000  0.35531000  1.0 0.8726647787
Cu  Cu8  1  0.71236000  0.85619000  0.35531000  1.0 0.8726647787
Cu  Cu9  1  0.14381000  0.85617000  0.35531000  1.0 0.8726647787
Cu  Cu10  1  0.62098000  0.81049000  0.31135000  1.0 0.8726647787
Cu  Cu11  1  0.18951000  0.81049000  0.31135000  1.0 0.8726647787
Cu  Cu12  1  0.18951000  0.37902000  0.31135000  1.0 0.8726647787
Cu  Cu13  1  0.81049000  0.62098000  0.68865000  1.0 0.8726647787
Cu  Cu14  1  0.37902000  0.18951000  0.68865000  1.0 0.8726647787
Cu  Cu15  1  0.81049000  0.18951000  0.68865000  1.0 0.8726647787
Cu  Cu16  1  0.28764000  0.14381000  0.64469000  1.0 0.8726647787
Cu  Cu17  1  0.85619000  0.14383000  0.64469000  1.0 0.8726647787
Cu  Cu18  1  0.85617000  0.71236000  0.64469000  1.0 0.8726647787
H  H1  1  0.69060000  0.08960000  0.06880000  1.0 0.1567901634
H  H2  1  0.91040000  0.60100000  0.06880000  1.0 0.1567901634
H  H3  1  0.39900000  0.30940000  0.06880000  1.0 0.1567901634
H  H4  1  0.08960000  0.69060000  0.93120000  1.0 0.1567901634
H  H5  1  0.30940000  0.39900000  0.93120000  1.0 0.1567901634
H  H6  1  0.60100000  0.91040000  0.93120000  1.0 0.1567901634
H  H7  1  0.35727000  0.42293000  0.40213000  1.0 0.1567901634
H  H8  1  0.57707000  0.93434000  0.40213000  1.0 0.1567901634
H  H9  1  0.06566000  0.64273000  0.40213000  1.0 0.1567901634
H  H10  1  0.75627000  0.02393000  0.26453000  1.0 0.1567901634
H  H11  1  0.97607000  0.73234000  0.26453000  1.0 0.1567901634
H  H12  1  0.26766000  0.24373000  0.26453000  1.0 0.1567901634
H  H13  1  0.02393000  0.75627000  0.73547000  1.0 0.1567901634
H  H14  1  0.24373000  0.26766000  0.73547000  1.0 0.1567901634
H  H15  1  0.73234000  0.97607000  0.73547000  1.0 0.1567901634
H  H16  1  0.42293000  0.35727000  0.59787000  1.0 0.1567901634
H  H17  1  0.64273000  0.06566000  0.59787000  1.0 0.1567901634
H  H18  1  0.93434000  0.57707000  0.59787000  1.0 0.1567901634
H  H19  1  0.30940000  0.91040000  0.93120000  1.0 0.1567901634
H  H20  1  0.08960000  0.39900000  0.93120000  1.0 0.1567901634
H  H21  1  0.60100000  0.69060000  0.93120000  1.0 0.1567901634
H  H22  1  0.91040000  0.30940000  0.06880000  1.0 0.1567901634
H  H23  1  0.69060000  0.60100000  0.06880000  1.0 0.1567901634
H  H24  1  0.39900000  0.08960000  0.06880000  1.0 0.1567901634
H  H25  1  0.64273000  0.57707000  0.59787000  1.0 0.1567901634
H  H26  1  0.42293000  0.06566000  0.59787000  1.0 0.1567901634
H  H27  1  0.93434000  0.35727000  0.59787000  1.0 0.1567901634
H  H28  1  0.24373000  0.97607000  0.73547000  1.0 0.1567901634
H  H29  1  0.02393000  0.26766000  0.73547000  1.0 0.1567901634
H  H30  1  0.73234000  0.75627000  0.73547000  1.0 0.1567901634
H  H31  1  0.97607000  0.24373000  0.26453000  1.0 0.1567901634
H  H32  1  0.75627000  0.73234000  0.26453000  1.0 0.1567901634
H  H33  1  0.26766000  0.02393000  0.26453000  1.0 0.1567901634
H  H34  1  0.57707000  0.64273000  0.40213000  1.0 0.1567901634
H  H35  1  0.35727000  0.93434000  0.40213000  1.0 0.1567901634
H  H36  1  0.06566000  0.42293000  0.40213000  1.0 0.1567901634
H  H37  1  0.76770000  0.23230000  0.00170000  1.0 0.1444309367
H  H38  1  0.76770000  0.53540000  0.00170000  1.0 0.1444309367
H  H39  1  0.46460000  0.23230000  0.00170000  1.0 0.1444309367
H  H40  1  0.23230000  0.76770000  0.99830000  1.0 0.1444309367
H  H41  1  0.23230000  0.46460000  0.99830000  1.0 0.1444309367
H  H42  1  0.53540000  0.76770000  0.99830000  1.0 0.1444309367
H  H43  1  0.43437000  0.56563000  0.33503000  1.0 0.1444309367
H  H44  1  0.43437000  0.86874000  0.33503000  1.0 0.1444309367
H  H45  1  0.13126000  0.56563000  0.33503000  1.0 0.1444309367
H  H46  1  0.89897000  0.10103000  0.33163000  1.0 0.1444309367
H  H47  1  0.89897000  0.79794000  0.33163000  1.0 0.1444309367
H  H48  1  0.20206000  0.10103000  0.33163000  1.0 0.1444309367
H  H49  1  0.10103000  0.89897000  0.66837000  1.0 0.1444309367
H  H50  1  0.10103000  0.20206000  0.66837000  1.0 0.1444309367
H  H51  1  0.79794000  0.89897000  0.66837000  1.0 0.1444309367
H  H52  1  0.56563000  0.43437000  0.66497000  1.0 0.1444309367
H  H53  1  0.56563000  0.13126000  0.66497000  1.0 0.1444309367
H  H54  1  0.86874000  0.43437000  0.66497000  1.0 0.1444309367
H  H55  1  0.70680000  0.04060000  0.16670000  1.0 0.1444309367
H  H56  1  0.95940000  0.66620000  0.16670000  1.0 0.1444309367
H  H57  1  0.33380000  0.29320000  0.16670000  1.0 0.1444309367
H  H58  1  0.04060000  0.70680000  0.83330000  1.0 0.1444309367
H  H59  1  0.29320000  0.33380000  0.83330000  1.0 0.1444309367
H  H60  1  0.66620000  0.95940000  0.83330000  1.0 0.1444309367
H  H61  1  0.37347000  0.37393000  0.50003000  1.0 0.1444309367
H  H62  1  0.62607000  0.99954000  0.50003000  1.0 0.1444309367
H  H63  1  0.00046000  0.62653000  0.50003000  1.0 0.1444309367
H  H64  1  0.29320000  0.95940000  0.83330000  1.0 0.1444309367
H  H65  1  0.04060000  0.33380000  0.83330000  1.0 0.1444309367
H  H66  1  0.66620000  0.70680000  0.83330000  1.0 0.1444309367
H  H67  1  0.95940000  0.29320000  0.16670000  1.0 0.1444309367
H  H68  1  0.70680000  0.66620000  0.16670000  1.0 0.1444309367
H  H69  1  0.33380000  0.04060000  0.16670000  1.0 0.1444309367
H  H70  1  0.62653000  0.62607000  0.49997000  1.0 0.1444309367
H  H71  1  0.37393000  0.00046000  0.49997000  1.0 0.1444309367
H  H72  1  0.99954000  0.37347000  0.49997000  1.0 0.1444309367
C  C1  1  0.72940000  0.13690000  0.06006000  1.0 -0.1776200705
C  C2  1  0.86310000  0.59250000  0.06006000  1.0 -0.1776200705
C  C3  1  0.40750000  0.27060000  0.06006000  1.0 -0.1776200705
C  C4  1  0.13690000  0.72940000  0.93994000  1.0 -0.1776200705
C  C5  1  0.27060000  0.40750000  0.93994000  1.0 -0.1776200705
C  C6  1  0.59250000  0.86310000  0.93994000  1.0 -0.1776200705
C  C7  1  0.39607000  0.47023000  0.39339000  1.0 -0.1776200705
C  C8  1  0.52977000  0.92584000  0.39339000  1.0 -0.1776200705
C  C9  1  0.07416000  0.60393000  0.39339000  1.0 -0.1776200705
C  C10  1  0.80357000  0.06273000  0.27327000  1.0 -0.1741125542
C  C11  1  0.93727000  0.74084000  0.27327000  1.0 -0.1776200705
C  C12  1  0.25916000  0.19643000  0.27327000  1.0 -0.1776200705
C  C13  1  0.06273000  0.80357000  0.72673000  1.0 -0.1776200705
C  C14  1  0.19643000  0.25916000  0.72673000  1.0 -0.1776200705
C  C15  1  0.74084000  0.93727000  0.72673000  1.0 -0.1776200705
C  C16  1  0.47023000  0.39607000  0.60661000  1.0 -0.1776200705
C  C17  1  0.60393000  0.07416000  0.60661000  1.0 -0.1776200705
C  C18  1  0.92584000  0.52977000  0.60661000  1.0 -0.1776200705
C  C19  1  0.27060000  0.86310000  0.93994000  1.0 -0.1776200705
C  C20  1  0.13690000  0.40750000  0.93994000  1.0 -0.1776200705
C  C21  1  0.59250000  0.72940000  0.93994000  1.0 -0.1776200705
C  C22  1  0.86310000  0.27060000  0.06006000  1.0 -0.1776200705
C  C23  1  0.72940000  0.59250000  0.06006000  1.0 -0.1776200705
C  C24  1  0.40750000  0.13690000  0.06006000  1.0 -0.1776200705
C  C25  1  0.60393000  0.52977000  0.60661000  1.0 -0.1776200705
C  C26  1  0.47023000  0.07416000  0.60661000  1.0 -0.1776200705
C  C27  1  0.92584000  0.39607000  0.60661000  1.0 -0.1776200705
C  C28  1  0.19643000  0.93727000  0.72673000  1.0 -0.1776200705
C  C29  1  0.06273000  0.25916000  0.72673000  1.0 -0.1776200705
C  C30  1  0.74084000  0.80357000  0.72673000  1.0 -0.1776200705
C  C31  1  0.93727000  0.19643000  0.27327000  1.0 -0.1741125542
C  C32  1  0.80357000  0.74084000  0.27327000  1.0 -0.1776200705
C  C33  1  0.25916000  0.06273000  0.27327000  1.0 -0.1776200705
C  C34  1  0.52977000  0.60393000  0.39339000  1.0 -0.1776200705
C  C35  1  0.39607000  0.92584000  0.39339000  1.0 -0.1776200705
C  C36  1  0.07416000  0.47023000  0.39339000  1.0 -0.1776200705
C  C37  1  0.77610000  0.22390000  0.01946000  1.0 -0.1181095064
C  C38  1  0.77610000  0.55220000  0.01946000  1.0 -0.1181095064
C  C39  1  0.44780000  0.22390000  0.01946000  1.0 -0.1181095064
C  C40  1  0.22390000  0.77610000  0.98054000  1.0 -0.1181095064
C  C41  1  0.22390000  0.44780000  0.98054000  1.0 -0.1181095064
C  C42  1  0.55220000  0.77610000  0.98054000  1.0 -0.1181095064
C  C43  1  0.44277000  0.55723000  0.35279000  1.0 -0.1181095064
C  C44  1  0.44277000  0.88554000  0.35279000  1.0 -0.1181095064
C  C45  1  0.11446000  0.55723000  0.35279000  1.0 -0.1181095064
C  C46  1  0.89057000  0.10943000  0.31387000  1.0 -0.1181095064
C  C47  1  0.89057000  0.78114000  0.31387000  1.0 -0.1181095064
C  C48  1  0.21886000  0.10943000  0.31387000  1.0 -0.1181095064
C  C49  1  0.10943000  0.89057000  0.68613000  1.0 -0.1181095064
C  C50  1  0.10943000  0.21886000  0.68613000  1.0 -0.1181095064
C  C51  1  0.78114000  0.89057000  0.68613000  1.0 -0.1181095064
C  C52  1  0.55723000  0.44277000  0.64721000  1.0 -0.1181095064
C  C53  1  0.55723000  0.11446000  0.64721000  1.0 -0.1181095064
C  C54  1  0.88554000  0.44277000  0.64721000  1.0 -0.1181095064
C  C55  1  0.64010000  0.09400000  0.02008000  1.0 0.5869181347
C  C56  1  0.90600000  0.54610000  0.02008000  1.0 0.5869181347
C  C57  1  0.45390000  0.35990000  0.02008000  1.0 0.5869181347
C  C58  1  0.09400000  0.64010000  0.97992000  1.0 0.5869181347
C  C59  1  0.35990000  0.45390000  0.97992000  1.0 0.5869181347
C  C60  1  0.54610000  0.90600000  0.97992000  1.0 0.5869181347
C  C61  1  0.30677000  0.42733000  0.35341000  1.0 0.5869181347
C  C62  1  0.57267000  0.87944000  0.35341000  1.0 0.5869181347
C  C63  1  0.12056000  0.69323000  0.35341000  1.0 0.5869181347
C  C64  1  0.76067000  0.97343000  0.31325000  1.0 0.5869181347
C  C65  1  0.02657000  0.78724000  0.31325000  1.0 0.5869181347
C  C66  1  0.21276000  0.23933000  0.31325000  1.0 0.5869181347
C  C67  1  0.97343000  0.76067000  0.68675000  1.0 0.5869181347
C  C68  1  0.23933000  0.21276000  0.68675000  1.0 0.5869181347
C  C69  1  0.78724000  0.02657000  0.68675000  1.0 0.5869181347
C  C70  1  0.42733000  0.30677000  0.64659000  1.0 0.5869181347
C  C71  1  0.69323000  0.12056000  0.64659000  1.0 0.5869181347
C  C72  1  0.87944000  0.57267000  0.64659000  1.0 0.5869181347
C  C73  1  0.35990000  0.90600000  0.97992000  1.0 0.5869181347
C  C74  1  0.09400000  0.45390000  0.97992000  1.0 0.5869181347
C  C75  1  0.54610000  0.64010000  0.97992000  1.0 0.5869181347
C  C76  1  0.90600000  0.35990000  0.02008000  1.0 0.5869181347
C  C77  1  0.64010000  0.54610000  0.02008000  1.0 0.5869181347
C  C78  1  0.45390000  0.09400000  0.02008000  1.0 0.5869181347
C  C79  1  0.69323000  0.57267000  0.64659000  1.0 0.5869181347
C  C80  1  0.42733000  0.12056000  0.64659000  1.0 0.5869181347
C  C81  1  0.87944000  0.30677000  0.64659000  1.0 0.5869181347
C  C82  1  0.23933000  0.02657000  0.68675000  1.0 0.5869181347
C  C83  1  0.97343000  0.21276000  0.68675000  1.0 0.5869181347
C  C84  1  0.78724000  0.76067000  0.68675000  1.0 0.5869181347
C  C85  1  0.02657000  0.23933000  0.31325000  1.0 0.5869181347
C  C86  1  0.76067000  0.78724000  0.31325000  1.0 0.5869181347
C  C87  1  0.21276000  0.97343000  0.31325000  1.0 0.5869181347
C  C88  1  0.57267000  0.69323000  0.35341000  1.0 0.5869181347
C  C89  1  0.30677000  0.87944000  0.35341000  1.0 0.5869181347
C  C90  1  0.12056000  0.42733000  0.35341000  1.0 0.5869181347
C  C91  1  0.80260000  0.19740000  0.07240000  1.0 0.2226215494
C  C92  1  0.80260000  0.60520000  0.07240000  1.0 0.2226215494
C  C93  1  0.39480000  0.19740000  0.07240000  1.0 0.2226215494
C  C94  1  0.19740000  0.80260000  0.92760000  1.0 0.2226215494
C  C95  1  0.19740000  0.39480000  0.92760000  1.0 0.2226215494
C  C96  1  0.60520000  0.80260000  0.92760000  1.0 0.2226215494
C  C97  1  0.46927000  0.53073000  0.40573000  1.0 0.2226215494
C  C98  1  0.46927000  0.93854000  0.40573000  1.0 0.2226215494
C  C99  1  0.06146000  0.53073000  0.40573000  1.0 0.2226215494
C  C100  1  0.86407000  0.13593000  0.26093000  1.0 0.2226215494
C  C101  1  0.86407000  0.72814000  0.26093000  1.0 0.2226215494
C  C102  1  0.27186000  0.13593000  0.26093000  1.0 0.2226215494
C  C103  1  0.13593000  0.86407000  0.73907000  1.0 0.2226215494
C  C104  1  0.13593000  0.27186000  0.73907000  1.0 0.2226215494
C  C105  1  0.72814000  0.86407000  0.73907000  1.0 0.2226215494
C  C106  1  0.53073000  0.46927000  0.59427000  1.0 0.2226215494
C  C107  1  0.53073000  0.06146000  0.59427000  1.0 0.2226215494
C  C108  1  0.93854000  0.46927000  0.59427000  1.0 0.2226215494
C  C109  1  0.77030000  0.12000000  0.11390000  1.0 0.3961306461
C  C110  1  0.88000000  0.65030000  0.11390000  1.0 0.3923098025
C  C111  1  0.34970000  0.22970000  0.11390000  1.0 0.3923098025
C  C112  1  0.12000000  0.77030000  0.88610000  1.0 0.3923098025
C  C113  1  0.22970000  0.34970000  0.88610000  1.0 0.3923098025
C  C114  1  0.65030000  0.88000000  0.88610000  1.0 0.3923098025
C  C115  1  0.43697000  0.45333000  0.44723000  1.0 0.3961306461
C  C116  1  0.54667000  0.98364000  0.44723000  1.0 0.3923098025
C  C117  1  0.01636000  0.56303000  0.44723000  1.0 0.3923098025
C  C118  1  0.78667000  0.10363000  0.21943000  1.0 0.3923098025
C  C119  1  0.89637000  0.68304000  0.21943000  1.0 0.3961306461
C  C120  1  0.31696000  0.21333000  0.21943000  1.0 0.3961306461
C  C121  1  0.10363000  0.78667000  0.78057000  1.0 0.3923098025
C  C122  1  0.21333000  0.31696000  0.78057000  1.0 0.3961306461
C  C123  1  0.68304000  0.89637000  0.78057000  1.0 0.3961306461
C  C124  1  0.45333000  0.43697000  0.55277000  1.0 0.3923098025
C  C125  1  0.56303000  0.01636000  0.55277000  1.0 0.3961306461
C  C126  1  0.98364000  0.54667000  0.55277000  1.0 0.3961306461
C  C127  1  0.22970000  0.88000000  0.88610000  1.0 0.3961306461
C  C128  1  0.12000000  0.34970000  0.88610000  1.0 0.3923098025
C  C129  1  0.65030000  0.77030000  0.88610000  1.0 0.3923098025
C  C130  1  0.88000000  0.22970000  0.11390000  1.0 0.3923098025
C  C131  1  0.77030000  0.65030000  0.11390000  1.0 0.3923098025
C  C132  1  0.34970000  0.12000000  0.11390000  1.0 0.3923098025
C  C133  1  0.56303000  0.54667000  0.55277000  1.0 0.3961306461
C  C134  1  0.45333000  0.01636000  0.55277000  1.0 0.3961306461
C  C135  1  0.98364000  0.43697000  0.55277000  1.0 0.3923098025
C  C136  1  0.21333000  0.89637000  0.78057000  1.0 0.3961306461
C  C137  1  0.10363000  0.31696000  0.78057000  1.0 0.3923098025
C  C138  1  0.68304000  0.78667000  0.78057000  1.0 0.3923098025
C  C139  1  0.89637000  0.21333000  0.21943000  1.0 0.3961306461
C  C140  1  0.78667000  0.68304000  0.21943000  1.0 0.3961306461
C  C141  1  0.31696000  0.10363000  0.21943000  1.0 0.3961306461
C  C142  1  0.54667000  0.56303000  0.44723000  1.0 0.3961306461
C  C143  1  0.43697000  0.98364000  0.44723000  1.0 0.3923098025
C  C144  1  0.01636000  0.45333000  0.44723000  1.0 0.3923098025
C  C145  1  0.80360000  0.14040000  0.14360000  1.0 -0.0084184793
C  C146  1  0.85960000  0.66320000  0.14360000  1.0 -0.0084184793
C  C147  1  0.33680000  0.19640000  0.14360000  1.0 -0.0084184793
C  C148  1  0.14040000  0.80360000  0.85640000  1.0 -0.0084184793
C  C149  1  0.19640000  0.33680000  0.85640000  1.0 -0.0084184793
C  C150  1  0.66320000  0.85960000  0.85640000  1.0 -0.0084184793
C  C151  1  0.47027000  0.47373000  0.47693000  1.0 -0.0084184793
C  C152  1  0.52627000  0.99654000  0.47693000  1.0 -0.0084184793
C  C153  1  0.00346000  0.52973000  0.47693000  1.0 -0.0084184793
C  C154  1  0.80707000  0.13693000  0.18973000  1.0 -0.0084184793
C  C155  1  0.86307000  0.67014000  0.18973000  1.0 -0.0084184793
C  C156  1  0.32986000  0.19293000  0.18973000  1.0 -0.0084184793
C  C157  1  0.13693000  0.80707000  0.81027000  1.0 -0.0084184793
C  C158  1  0.19293000  0.32986000  0.81027000  1.0 -0.0084184793
C  C159  1  0.67014000  0.86307000  0.81027000  1.0 -0.0084184793
C  C160  1  0.47373000  0.47027000  0.52307000  1.0 -0.0084184793
C  C161  1  0.52973000  0.00346000  0.52307000  1.0 -0.0084184793
C  C162  1  0.99654000  0.52627000  0.52307000  1.0 -0.0084184793
C  C163  1  0.19640000  0.85960000  0.85640000  1.0 -0.0084184793
C  C164  1  0.14040000  0.33680000  0.85640000  1.0 -0.0084184793
C  C165  1  0.66320000  0.80360000  0.85640000  1.0 -0.0084184793
C  C166  1  0.85960000  0.19640000  0.14360000  1.0 -0.0084184793
C  C167  1  0.80360000  0.66320000  0.14360000  1.0 -0.0084184793
C  C168  1  0.33680000  0.14040000  0.14360000  1.0 -0.0084184793
C  C169  1  0.52973000  0.52627000  0.52307000  1.0 -0.0084184793
C  C170  1  0.47373000  0.00346000  0.52307000  1.0 -0.0084184793
C  C171  1  0.99654000  0.47027000  0.52307000  1.0 -0.0084184793
C  C172  1  0.19293000  0.86307000  0.81027000  1.0 -0.0084184793
C  C173  1  0.13693000  0.32986000  0.81027000  1.0 -0.0084184793
C  C174  1  0.67014000  0.80707000  0.81027000  1.0 -0.0084184793
C  C175  1  0.86307000  0.19293000  0.18973000  1.0 -0.0084184793
C  C176  1  0.80707000  0.67014000  0.18973000  1.0 -0.0084184793
C  C177  1  0.32986000  0.13693000  0.18973000  1.0 -0.0084184793
C  C178  1  0.52627000  0.52973000  0.47693000  1.0 -0.0084184793
C  C179  1  0.47027000  0.99654000  0.47693000  1.0 -0.0084184793
C  C180  1  0.00346000  0.47373000  0.47693000  1.0 -0.0084184793
C  C181  1  0.75640000  0.09000000  0.16670000  1.0 -0.0498426065
C  C182  1  0.91000000  0.66640000  0.16670000  1.0 -0.0498426065
C  C183  1  0.33360000  0.24360000  0.16670000  1.0 -0.0498426065
C  C184  1  0.09000000  0.75640000  0.83330000  1.0 -0.0498426065
C  C185  1  0.24360000  0.33360000  0.83330000  1.0 -0.0498426065
C  C186  1  0.66640000  0.91000000  0.83330000  1.0 -0.0498426065
C  C187  1  0.42307000  0.42333000  0.50003000  1.0 -0.0498426065
C  C188  1  0.57667000  0.99974000  0.50003000  1.0 -0.0498426065
C  C189  1  0.00026000  0.57693000  0.50003000  1.0 -0.0498426065
C  C190  1  0.24360000  0.91000000  0.83330000  1.0 -0.0498426065
C  C191  1  0.09000000  0.33360000  0.83330000  1.0 -0.0446645203
C  C192  1  0.66640000  0.75640000  0.83330000  1.0 -0.0498426065
C  C193  1  0.91000000  0.24360000  0.16670000  1.0 -0.0498426065
C  C194  1  0.75640000  0.66640000  0.16670000  1.0 -0.0498426065
C  C195  1  0.33360000  0.09000000  0.16670000  1.0 -0.0498426065
C  C196  1  0.57693000  0.57667000  0.49997000  1.0 -0.0498426065
C  C197  1  0.42333000  0.00026000  0.49997000  1.0 -0.0498426065
C  C198  1  0.99974000  0.42307000  0.49997000  1.0 -0.0498426065
C  C199  1  0.72040000  0.15460000  0.03367000  1.0 0.0162422383
C  C200  1  0.84540000  0.56580000  0.03367000  1.0 0.0162422383
C  C201  1  0.43420000  0.27960000  0.03367000  1.0 0.0162422383
C  C202  1  0.15460000  0.72040000  0.96633000  1.0 0.0162422383
C  C203  1  0.27960000  0.43420000  0.96633000  1.0 0.0162422383
C  C204  1  0.56580000  0.84540000  0.96633000  1.0 0.0162422383
C  C205  1  0.38707000  0.48793000  0.36700000  1.0 0.0162422383
C  C206  1  0.51207000  0.89914000  0.36700000  1.0 0.0162422383
C  C207  1  0.10086000  0.61293000  0.36700000  1.0 0.0162422383
C  C208  1  0.82127000  0.05373000  0.29966000  1.0 0.0162422383
C  C209  1  0.94627000  0.76754000  0.29966000  1.0 0.0162422383
C  C210  1  0.23246000  0.17873000  0.29966000  1.0 0.0162422383
C  C211  1  0.05373000  0.82127000  0.70034000  1.0 0.0162422383
C  C212  1  0.17873000  0.23246000  0.70034000  1.0 0.0162422383
C  C213  1  0.76754000  0.94627000  0.70034000  1.0 0.0162422383
C  C214  1  0.48793000  0.38707000  0.63300000  1.0 0.0162422383
C  C215  1  0.61293000  0.10086000  0.63300000  1.0 0.0162422383
C  C216  1  0.89914000  0.51207000  0.63300000  1.0 0.0162422383
C  C217  1  0.27960000  0.84540000  0.96633000  1.0 0.0162422383
C  C218  1  0.15460000  0.43420000  0.96633000  1.0 0.0162422383
C  C219  1  0.56580000  0.72040000  0.96633000  1.0 0.0162422383
C  C220  1  0.84540000  0.27960000  0.03367000  1.0 0.0162422383
C  C221  1  0.72040000  0.56580000  0.03367000  1.0 0.0162422383
C  C222  1  0.43420000  0.15460000  0.03367000  1.0 0.0162422383
C  C223  1  0.61293000  0.51207000  0.63300000  1.0 0.0162422383
C  C224  1  0.48793000  0.10086000  0.63300000  1.0 0.0162422383
C  C225  1  0.89914000  0.38707000  0.63300000  1.0 0.0162422383
C  C226  1  0.17873000  0.94627000  0.70034000  1.0 0.0162422383
C  C227  1  0.05373000  0.23246000  0.70034000  1.0 0.0162422383
C  C228  1  0.76754000  0.82127000  0.70034000  1.0 0.0162422383
C  C229  1  0.94627000  0.17873000  0.29966000  1.0 0.0162422383
C  C230  1  0.82127000  0.76754000  0.29966000  1.0 0.0162422383
C  C231  1  0.23246000  0.05373000  0.29966000  1.0 0.0162422383
C  C232  1  0.51207000  0.61293000  0.36700000  1.0 0.0162422383
C  C233  1  0.38707000  0.89914000  0.36700000  1.0 0.0162422383
C  C234  1  0.10086000  0.48793000  0.36700000  1.0 0.0162422383
N  N1  1  0.81270000  0.18730000  0.10270000  1.0 -0.2469420852
N  N2  1  0.81270000  0.62540000  0.10270000  1.0 -0.2427278182
N  N3  1  0.37460000  0.18730000  0.10270000  1.0 -0.2469420852
N  N4  1  0.18730000  0.81270000  0.89730000  1.0 -0.2427278182
N  N5  1  0.18730000  0.37460000  0.89730000  1.0 -0.2427278182
N  N6  1  0.62540000  0.81270000  0.89730000  1.0 -0.2469420852
N  N7  1  0.47937000  0.52063000  0.43603000  1.0 -0.2469420852
N  N8  1  0.47937000  0.95874000  0.43603000  1.0 -0.2427278182
N  N9  1  0.04126000  0.52063000  0.43603000  1.0 -0.2427278182
N  N10  1  0.85397000  0.14603000  0.23063000  1.0 -0.2469420852
N  N11  1  0.85397000  0.70794000  0.23063000  1.0 -0.2469420852
N  N12  1  0.29206000  0.14603000  0.23063000  1.0 -0.2469420852
N  N13  1  0.14603000  0.85397000  0.76937000  1.0 -0.2427278182
N  N14  1  0.14603000  0.29206000  0.76937000  1.0 -0.2469420852
N  N15  1  0.70794000  0.85397000  0.76937000  1.0 -0.2427278182
N  N16  1  0.52063000  0.47937000  0.56397000  1.0 -0.2469420852
N  N17  1  0.52063000  0.04126000  0.56397000  1.0 -0.2469420852
N  N18  1  0.95874000  0.47937000  0.56397000  1.0 -0.2469420852
O  O1  1  0.58960000  0.03320000  0.03405000  1.0 -0.5112897446
O  O2  1  0.96680000  0.55640000  0.03405000  1.0 -0.5112897446
O  O3  1  0.44360000  0.41040000  0.03405000  1.0 -0.5112897446
O  O4  1  0.03320000  0.58960000  0.96595000  1.0 -0.5112897446
O  O5  1  0.41040000  0.44360000  0.96595000  1.0 -0.5112897446
O  O6  1  0.55640000  0.96680000  0.96595000  1.0 -0.5112897446
O  O7  1  0.25627000  0.36653000  0.36738000  1.0 -0.5112897446
O  O8  1  0.63347000  0.88974000  0.36738000  1.0 -0.5112897446
O  O9  1  0.11026000  0.74373000  0.36738000  1.0 -0.5112897446
O  O10  1  0.69987000  0.92293000  0.29928000  1.0 -0.5112897446
O  O11  1  0.07707000  0.77694000  0.29928000  1.0 -0.5112897446
O  O12  1  0.22306000  0.30013000  0.29928000  1.0 -0.5112897446
O  O13  1  0.92293000  0.69987000  0.70072000  1.0 -0.5112897446
O  O14  1  0.30013000  0.22306000  0.70072000  1.0 -0.5112897446
O  O15  1  0.77694000  0.07707000  0.70072000  1.0 -0.5112897446
O  O16  1  0.36653000  0.25627000  0.63262000  1.0 -0.5112897446
O  O17  1  0.74373000  0.11026000  0.63262000  1.0 -0.5112897446
O  O18  1  0.88974000  0.63347000  0.63262000  1.0 -0.5112897446
O  O19  1  0.41040000  0.96680000  0.96595000  1.0 -0.5112897446
O  O20  1  0.03320000  0.44360000  0.96595000  1.0 -0.5112897446
O  O21  1  0.55640000  0.58960000  0.96595000  1.0 -0.5112897446
O  O22  1  0.96680000  0.41040000  0.03405000  1.0 -0.5112897446
O  O23  1  0.58960000  0.55640000  0.03405000  1.0 -0.5112897446
O  O24  1  0.44360000  0.03320000  0.03405000  1.0 -0.5112897446
O  O25  1  0.74373000  0.63347000  0.63262000  1.0 -0.5112897446
O  O26  1  0.36653000  0.11026000  0.63262000  1.0 -0.5112897446
O  O27  1  0.88974000  0.25627000  0.63262000  1.0 -0.5112897446
O  O28  1  0.30013000  0.07707000  0.70072000  1.0 -0.5112897446
O  O29  1  0.92293000  0.22306000  0.70072000  1.0 -0.5112897446
O  O30  1  0.77694000  0.69987000  0.70072000  1.0 -0.5112897446
O  O31  1  0.07707000  0.30013000  0.29928000  1.0 -0.5112897446
O  O32  1  0.69987000  0.77694000  0.29928000  1.0 -0.5112897446
O  O33  1  0.22306000  0.92293000  0.29928000  1.0 -0.5112897446
O  O34  1  0.63347000  0.74373000  0.36738000  1.0 -0.5112897446
O  O35  1  0.25627000  0.88974000  0.36738000  1.0 -0.5112897446
O  O36  1  0.11026000  0.36653000  0.36738000  1.0 -0.5112897446
O  O37  1  0.62840000  0.11110000  0.99643000  1.0 -0.5112897446
O  O38  1  0.88890000  0.51730000  0.99643000  1.0 -0.5112897446
O  O39  1  0.48270000  0.37160000  0.99643000  1.0 -0.5112897446
O  O40  1  0.11110000  0.62840000  0.00357000  1.0 -0.5112897446
O  O41  1  0.37160000  0.48270000  0.00357000  1.0 -0.5112897446
O  O42  1  0.51730000  0.88890000  0.00357000  1.0 -0.5152433576
O  O43  1  0.29507000  0.44443000  0.32976000  1.0 -0.5112897446
O  O44  1  0.55557000  0.85064000  0.32976000  1.0 -0.5152433576
O  O45  1  0.14936000  0.70493000  0.32976000  1.0 -0.5152433576
O  O46  1  0.77777000  0.96173000  0.33690000  1.0 -0.5152433576
O  O47  1  0.03827000  0.81604000  0.33690000  1.0 -0.5152433576
O  O48  1  0.18396000  0.22223000  0.33690000  1.0 -0.5112897446
O  O49  1  0.96173000  0.77777000  0.66310000  1.0 -0.5112897446
O  O50  1  0.22223000  0.18396000  0.66310000  1.0 -0.5112897446
O  O51  1  0.81604000  0.03827000  0.66310000  1.0 -0.5112897446
O  O52  1  0.44443000  0.29507000  0.67024000  1.0 -0.5112897446
O  O53  1  0.70493000  0.14936000  0.67024000  1.0 -0.5112897446
O  O54  1  0.85064000  0.55557000  0.67024000  1.0 -0.5112897446
O  O55  1  0.37160000  0.88890000  0.00357000  1.0 -0.5152433576
O  O56  1  0.11110000  0.48270000  0.00357000  1.0 -0.5112897446
O  O57  1  0.51730000  0.62840000  0.00357000  1.0 -0.5112897446
O  O58  1  0.88890000  0.37160000  0.99643000  1.0 -0.5112897446
O  O59  1  0.62840000  0.51730000  0.99643000  1.0 -0.5112897446
O  O60  1  0.48270000  0.11110000  0.99643000  1.0 -0.5152433576
O  O61  1  0.70493000  0.55557000  0.67024000  1.0 -0.5112897446
O  O62  1  0.44443000  0.14936000  0.67024000  1.0 -0.5112897446
O  O63  1  0.85064000  0.29507000  0.67024000  1.0 -0.5112897446
O  O64  1  0.22223000  0.03827000  0.66310000  1.0 -0.5112897446
O  O65  1  0.96173000  0.18396000  0.66310000  1.0 -0.5112897446
O  O66  1  0.81604000  0.77777000  0.66310000  1.0 -0.5112897446
O  O67  1  0.03827000  0.22223000  0.33690000  1.0 -0.5152433576
O  O68  1  0.77777000  0.81604000  0.33690000  1.0 -0.5152433576
O  O69  1  0.18396000  0.96173000  0.33690000  1.0 -0.5152433576
O  O70  1  0.55557000  0.70493000  0.32976000  1.0 -0.5152433576
O  O71  1  0.29507000  0.85064000  0.32976000  1.0 -0.5152433576
O  O72  1  0.14936000  0.44443000  0.32976000  1.0 -0.5152433576
O  O73  1  0.70000000  0.06000000  0.11000000  1.0 -0.4298368161
O  O74  1  0.94000000  0.64000000  0.11000000  1.0 -0.4298368161
O  O75  1  0.36000000  0.30000000  0.11000000  1.0 -0.4298368161
O  O76  1  0.06000000  0.70000000  0.89000000  1.0 -0.4248358118
O  O77  1  0.30000000  0.36000000  0.89000000  1.0 -0.4298368161
O  O78  1  0.64000000  0.94000000  0.89000000  1.0 -0.4298368161
O  O79  1  0.36667000  0.39333000  0.44333000  1.0 -0.4298368161
O  O80  1  0.60667000  0.97334000  0.44333000  1.0 -0.4298368161
O  O81  1  0.02666000  0.63333000  0.44333000  1.0 -0.4298368161
O  O82  1  0.72667000  0.03333000  0.22333000  1.0 -0.4298368161
O  O83  1  0.96667000  0.69334000  0.22333000  1.0 -0.4298368161
O  O84  1  0.30666000  0.27333000  0.22333000  1.0 -0.4298368161
O  O85  1  0.03333000  0.72667000  0.77667000  1.0 -0.4298368161
O  O86  1  0.27333000  0.30666000  0.77667000  1.0 -0.4298368161
O  O87  1  0.69334000  0.96667000  0.77667000  1.0 -0.4298368161
O  O88  1  0.39333000  0.36667000  0.55667000  1.0 -0.4298368161
O  O89  1  0.63333000  0.02666000  0.55667000  1.0 -0.4298368161
O  O90  1  0.97334000  0.60667000  0.55667000  1.0 -0.4298368161
O  O91  1  0.30000000  0.94000000  0.89000000  1.0 -0.4298368161
O  O92  1  0.06000000  0.36000000  0.89000000  1.0 -0.4298368161
O  O93  1  0.64000000  0.70000000  0.89000000  1.0 -0.4298368161
O  O94  1  0.94000000  0.30000000  0.11000000  1.0 -0.4298368161
O  O95  1  0.70000000  0.64000000  0.11000000  1.0 -0.4298368161
O  O96  1  0.36000000  0.06000000  0.11000000  1.0 -0.4298368161
O  O97  1  0.63333000  0.60667000  0.55667000  1.0 -0.4298368161
O  O98  1  0.39333000  0.02666000  0.55667000  1.0 -0.4298368161
O  O99  1  0.97334000  0.36667000  0.55667000  1.0 -0.4298368161
O  O100  1  0.27333000  0.96667000  0.77667000  1.0 -0.4298368161
O  O101  1  0.03333000  0.30666000  0.77667000  1.0 -0.4298368161
O  O102  1  0.69334000  0.72667000  0.77667000  1.0 -0.4298368161
O  O103  1  0.96667000  0.27333000  0.22333000  1.0 -0.4298368161
O  O104  1  0.72667000  0.69334000  0.22333000  1.0 -0.4298368161
O  O105  1  0.30666000  0.03333000  0.22333000  1.0 -0.4298368161
O  O106  1  0.60667000  0.63333000  0.44333000  1.0 -0.4298368161
O  O107  1  0.36667000  0.97334000  0.44333000  1.0 -0.4298368161
O  O108  1  0.02666000  0.39333000  0.44333000  1.0 -0.4298368161
