# DDEC6 charges by PACMAN v1.1 (https://github.com/mtap-research/PACMAN-charge/)
data_ALECAY_ASR_pacman
_symmetry_space_group_name_H-M   'P 1'
_cell_length_a   20.47100000
_cell_length_b   20.47100000
_cell_length_c   57.17900000
_cell_angle_alpha   90.00000000
_cell_angle_beta   90.00000000
_cell_angle_gamma   90.00000000
_symmetry_Int_Tables_number   1
_chemical_formula_structural   UH16C31O6
_chemical_formula_sum   'U8 H128 C248 O48'
_cell_volume   23961.53700654
_cell_formula_units_Z   8
loop_
 _symmetry_equiv_pos_site_id
 _symmetry_equiv_pos_as_xyz
  1  'x, y, z'
loop_
 _atom_site_type_symbol
 _atom_site_label
 _atom_site_symmetry_multiplicity
 _atom_site_fract_x
 _atom_site_fract_y
 _atom_site_fract_z
 _atom_site_occupancy
 _atom_site_charge
U  U1  1  0.29696000  0.41576000  0.17161000  1.0 2.1523892693
U  U2  1  0.70304000  0.58424000  0.67161000  1.0 2.1523892693
U  U3  1  0.08424000  0.79696000  0.92161000  1.0 2.1523892693
U  U4  1  0.91576000  0.20304000  0.42161000  1.0 2.1552668226
U  U5  1  0.20304000  0.91576000  0.57839000  1.0 2.1523892693
U  U6  1  0.79696000  0.08424000  0.07839000  1.0 2.1523892693
U  U7  1  0.41576000  0.29696000  0.82839000  1.0 2.1552668226
U  U8  1  0.58424000  0.70304000  0.32839000  1.0 2.1523892693
H  H1  1  0.50280000  0.56290000  0.05330000  1.0 0.1106543325
H  H2  1  0.65820000  0.43420000  0.01410000  1.0 0.1204332966
H  H3  1  0.59480000  0.74820000  0.01870000  1.0 0.1204332966
H  H4  1  0.48510000  0.36490000  0.06910000  1.0 0.1106543325
H  H5  1  0.62980000  0.21960000  0.03720000  1.0 0.1204332966
H  H6  1  0.82500000  0.85510000  0.05180000  1.0 0.1204332966
H  H7  1  0.71060000  0.31290000  0.09400000  1.0 0.1204332966
H  H8  1  0.79870000  0.75460000  0.02970000  1.0 0.1106543325
H  H9  1  0.51030000  0.64990000  0.01900000  1.0 0.1106543325
H  H10  1  0.67360000  0.94440000  0.02340000  1.0 0.1106543325
H  H11  1  0.64030000  0.85160000  0.00340000  1.0 0.1204332966
H  H12  1  0.48000000  0.51990000  0.12920000  1.0 0.1204332966
H  H13  1  0.41980000  0.34880000  0.10170000  1.0 0.1258253914
H  H14  1  0.65880000  0.40990000  0.08310000  1.0 0.1106543325
H  H15  1  0.60510000  0.31940000  0.02260000  1.0 0.1106543325
H  H16  1  0.52810000  0.54240000  0.09430000  1.0 0.1106543325
H  H17  1  0.49720000  0.43710000  0.55330000  1.0 0.1106543325
H  H18  1  0.34180000  0.56580000  0.51410000  1.0 0.1204332966
H  H19  1  0.40520000  0.25180000  0.51870000  1.0 0.1204332966
H  H20  1  0.51490000  0.63510000  0.56910000  1.0 0.1106543325
H  H21  1  0.37020000  0.78040000  0.53720000  1.0 0.1204332966
H  H22  1  0.17500000  0.14490000  0.55180000  1.0 0.1204332966
H  H23  1  0.28940000  0.68710000  0.59400000  1.0 0.1204332966
H  H24  1  0.20130000  0.24540000  0.52970000  1.0 0.1106543325
H  H25  1  0.48970000  0.35010000  0.51900000  1.0 0.1106543325
H  H26  1  0.32640000  0.05560000  0.52340000  1.0 0.1106543325
H  H27  1  0.35970000  0.14840000  0.50340000  1.0 0.1204332966
H  H28  1  0.52000000  0.48010000  0.62920000  1.0 0.1204332966
H  H29  1  0.58020000  0.65120000  0.60170000  1.0 0.1258253914
H  H30  1  0.34120000  0.59010000  0.58310000  1.0 0.1106543325
H  H31  1  0.39490000  0.68060000  0.52260000  1.0 0.1106543325
H  H32  1  0.47190000  0.45760000  0.59430000  1.0 0.1106543325
H  H33  1  0.93710000  0.00280000  0.80330000  1.0 0.1106543325
H  H34  1  0.06580000  0.15820000  0.76410000  1.0 0.1204332966
H  H35  1  0.75180000  0.09480000  0.76870000  1.0 0.1204332966
H  H36  1  0.13510000  0.98510000  0.81910000  1.0 0.1106543325
H  H37  1  0.28040000  0.12980000  0.78720000  1.0 0.1204332966
H  H38  1  0.64490000  0.32500000  0.80180000  1.0 0.1204332966
H  H39  1  0.18710000  0.21060000  0.84400000  1.0 0.1204332966
H  H40  1  0.74540000  0.29870000  0.77970000  1.0 0.1106543325
H  H41  1  0.85010000  0.01030000  0.76900000  1.0 0.1106543325
H  H42  1  0.55560000  0.17360000  0.77340000  1.0 0.1106543325
H  H43  1  0.64840000  0.14030000  0.75340000  1.0 0.1204332966
H  H44  1  0.98010000  0.98000000  0.87920000  1.0 0.1204332966
H  H45  1  0.15120000  0.91980000  0.85170000  1.0 0.1258253914
H  H46  1  0.09010000  0.15880000  0.83310000  1.0 0.1106543325
H  H47  1  0.18060000  0.10510000  0.77260000  1.0 0.1106543325
H  H48  1  0.95760000  0.02810000  0.84430000  1.0 0.1106543325
H  H49  1  0.06290000  0.99720000  0.30330000  1.0 0.1106543325
H  H50  1  0.93420000  0.84180000  0.26410000  1.0 0.1204332966
H  H51  1  0.24820000  0.90520000  0.26870000  1.0 0.1204332966
H  H52  1  0.86490000  0.01490000  0.31910000  1.0 0.1106543325
H  H53  1  0.71960000  0.87020000  0.28720000  1.0 0.1204332966
H  H54  1  0.35510000  0.67500000  0.30180000  1.0 0.1204332966
H  H55  1  0.81290000  0.78940000  0.34400000  1.0 0.1204332966
H  H56  1  0.25460000  0.70130000  0.27970000  1.0 0.1106543325
H  H57  1  0.14990000  0.98970000  0.26900000  1.0 0.1106543325
H  H58  1  0.44440000  0.82640000  0.27340000  1.0 0.1106543325
H  H59  1  0.35160000  0.85970000  0.25340000  1.0 0.1204332966
H  H60  1  0.01990000  0.02000000  0.37920000  1.0 0.1204332966
H  H61  1  0.84880000  0.08020000  0.35170000  1.0 0.1258253914
H  H62  1  0.90990000  0.84120000  0.33310000  1.0 0.1106543325
H  H63  1  0.81940000  0.89490000  0.27260000  1.0 0.1106543325
H  H64  1  0.04240000  0.97190000  0.34430000  1.0 0.1106543325
H  H65  1  0.99720000  0.06290000  0.69670000  1.0 0.1106543325
H  H66  1  0.84180000  0.93420000  0.73590000  1.0 0.1204332966
H  H67  1  0.90520000  0.24820000  0.73130000  1.0 0.1204332966
H  H68  1  0.01490000  0.86490000  0.68090000  1.0 0.1106543325
H  H69  1  0.87020000  0.71960000  0.71280000  1.0 0.1204332966
H  H70  1  0.67500000  0.35510000  0.69820000  1.0 0.1204332966
H  H71  1  0.78940000  0.81290000  0.65600000  1.0 0.1204332966
H  H72  1  0.70130000  0.25460000  0.72030000  1.0 0.1106543325
H  H73  1  0.98970000  0.14990000  0.73100000  1.0 0.1106543325
H  H74  1  0.82640000  0.44440000  0.72660000  1.0 0.1106543325
H  H75  1  0.85970000  0.35160000  0.74660000  1.0 0.1204332966
H  H76  1  0.02000000  0.01990000  0.62080000  1.0 0.1204332966
H  H77  1  0.08020000  0.84880000  0.64830000  1.0 0.1258253914
H  H78  1  0.84120000  0.90990000  0.66690000  1.0 0.1106543325
H  H79  1  0.89490000  0.81940000  0.72740000  1.0 0.1106543325
H  H80  1  0.97190000  0.04240000  0.65570000  1.0 0.1106543325
H  H81  1  0.00280000  0.93710000  0.19670000  1.0 0.1106543325
H  H82  1  0.15820000  0.06580000  0.23590000  1.0 0.1204332966
H  H83  1  0.09480000  0.75180000  0.23130000  1.0 0.1204332966
H  H84  1  0.98510000  0.13510000  0.18090000  1.0 0.1106543325
H  H85  1  0.12980000  0.28040000  0.21280000  1.0 0.1204332966
H  H86  1  0.32500000  0.64490000  0.19820000  1.0 0.1204332966
H  H87  1  0.21060000  0.18710000  0.15600000  1.0 0.1204332966
H  H88  1  0.29870000  0.74540000  0.22030000  1.0 0.1106543325
H  H89  1  0.01030000  0.85010000  0.23100000  1.0 0.1106543325
H  H90  1  0.17360000  0.55560000  0.22660000  1.0 0.1106543325
H  H91  1  0.14030000  0.64840000  0.24660000  1.0 0.1204332966
H  H92  1  0.98000000  0.98010000  0.12080000  1.0 0.1204332966
H  H93  1  0.91980000  0.15120000  0.14830000  1.0 0.1258253914
H  H94  1  0.15880000  0.09010000  0.16690000  1.0 0.1106543325
H  H95  1  0.10510000  0.18060000  0.22740000  1.0 0.1106543325
H  H96  1  0.02810000  0.95760000  0.15570000  1.0 0.1106543325
H  H97  1  0.56290000  0.50280000  0.94670000  1.0 0.1106543325
H  H98  1  0.43420000  0.65820000  0.98590000  1.0 0.1204332966
H  H99  1  0.74820000  0.59480000  0.98130000  1.0 0.1204332966
H  H100  1  0.36490000  0.48510000  0.93090000  1.0 0.1106543325
H  H101  1  0.21960000  0.62980000  0.96280000  1.0 0.1204332966
H  H102  1  0.85510000  0.82500000  0.94820000  1.0 0.1204332966
H  H103  1  0.31290000  0.71060000  0.90600000  1.0 0.1204332966
H  H104  1  0.75460000  0.79870000  0.97030000  1.0 0.1106543325
H  H105  1  0.64990000  0.51030000  0.98100000  1.0 0.1106543325
H  H106  1  0.94440000  0.67360000  0.97660000  1.0 0.1106543325
H  H107  1  0.85160000  0.64030000  0.99660000  1.0 0.1204332966
H  H108  1  0.51990000  0.48000000  0.87080000  1.0 0.1204332966
H  H109  1  0.34880000  0.41980000  0.89830000  1.0 0.1258253914
H  H110  1  0.40990000  0.65880000  0.91690000  1.0 0.1106543325
H  H111  1  0.31940000  0.60510000  0.97740000  1.0 0.1106543325
H  H112  1  0.54240000  0.52810000  0.90570000  1.0 0.1106543325
H  H113  1  0.43710000  0.49720000  0.44670000  1.0 0.1106543325
H  H114  1  0.56580000  0.34180000  0.48590000  1.0 0.1204332966
H  H115  1  0.25180000  0.40520000  0.48130000  1.0 0.1204332966
H  H116  1  0.63510000  0.51490000  0.43090000  1.0 0.1106543325
H  H117  1  0.78040000  0.37020000  0.46280000  1.0 0.1204332966
H  H118  1  0.14490000  0.17500000  0.44820000  1.0 0.1204332966
H  H119  1  0.68710000  0.28940000  0.40600000  1.0 0.1204332966
H  H120  1  0.24540000  0.20130000  0.47030000  1.0 0.1106543325
H  H121  1  0.35010000  0.48970000  0.48100000  1.0 0.1106543325
H  H122  1  0.05560000  0.32640000  0.47660000  1.0 0.1106543325
H  H123  1  0.14840000  0.35970000  0.49660000  1.0 0.1204332966
H  H124  1  0.48010000  0.52000000  0.37080000  1.0 0.1204332966
H  H125  1  0.65120000  0.58020000  0.39830000  1.0 0.1258253914
H  H126  1  0.59010000  0.34120000  0.41690000  1.0 0.1106543325
H  H127  1  0.68060000  0.39490000  0.47740000  1.0 0.1106543325
H  H128  1  0.45760000  0.47190000  0.40570000  1.0 0.1106543325
C  C1  1  0.53270000  0.53590000  0.04500000  1.0 -0.1906706381
C  C2  1  0.62200000  0.45610000  0.02100000  1.0 -0.1906706381
C  C3  1  0.69190000  0.73020000  0.00730000  1.0 0.0305725724
C  C4  1  0.62500000  0.71750000  0.01260000  1.0 -0.2395806525
C  C5  1  0.48270000  0.39860000  0.08040000  1.0 -0.144528407
C  C6  1  0.59290000  0.43330000  0.04180000  1.0 0.0108522734
C  C7  1  0.71280000  0.79400000  0.01720000  1.0 0.078110087
C  C8  1  0.55330000  0.47150000  0.05570000  1.0 0.0018828877
C  C9  1  0.63960000  0.25830000  0.04560000  1.0 -0.1096102101
C  C10  1  0.78930000  0.85510000  0.04110000  1.0 -0.0799573499
C  C11  1  0.55520000  0.55600000  0.02420000  1.0 0.0496110849
C  C12  1  0.68460000  0.31420000  0.08030000  1.0 -0.1096102101
C  C13  1  0.77180000  0.79230000  0.02920000  1.0 -0.1608884379
C  C14  1  0.53950000  0.61960000  0.01010000  1.0 -0.1096102101
C  C15  1  0.69960000  0.90610000  0.02460000  1.0 -0.0619206152
C  C16  1  0.67760000  0.85080000  0.01330000  1.0 -0.1783495683
C  C17  1  0.75780000  0.91010000  0.03760000  1.0 -0.0799573499
C  C18  1  0.44010000  0.43150000  0.11720000  1.0 0.0108522734
C  C19  1  0.67700000  0.25650000  0.06630000  1.0 0.0305725724
C  C20  1  0.61050000  0.64850000  0.00680000  1.0 0.0305725724
C  C21  1  0.47750000  0.49030000  0.11640000  1.0 -0.0999248174
C  C22  1  0.39450000  0.41500000  0.13890000  1.0 0.5282097545
C  C23  1  0.59670000  0.50970000  0.01130000  1.0 0.0305725724
C  C24  1  0.44390000  0.38830000  0.10040000  1.0 -0.1096102101
C  C25  1  0.61480000  0.37600000  0.05330000  1.0 0.0559174654
C  C26  1  0.72670000  0.19680000  0.07190000  1.0 0.5200856377
C  C27  1  0.51970000  0.45900000  0.07630000  1.0 0.0496110849
C  C28  1  0.65360000  0.37210000  0.07360000  1.0 -0.1727115798
C  C29  1  0.61870000  0.31580000  0.03840000  1.0 -0.1486777039
C  C30  1  0.50940000  0.50020000  0.09590000  1.0 -0.1608884379
C  C31  1  0.77360000  0.96630000  0.05040000  1.0 0.5200856377
C  C32  1  0.46730000  0.46410000  0.54500000  1.0 -0.1906706381
C  C33  1  0.37800000  0.54390000  0.52100000  1.0 -0.1906706381
C  C34  1  0.30810000  0.26980000  0.50730000  1.0 0.0305725724
C  C35  1  0.37500000  0.28250000  0.51260000  1.0 -0.2395806525
C  C36  1  0.51730000  0.60140000  0.58040000  1.0 -0.144528407
C  C37  1  0.40710000  0.56670000  0.54180000  1.0 0.0108522734
C  C38  1  0.28720000  0.20600000  0.51720000  1.0 0.078110087
C  C39  1  0.44670000  0.52850000  0.55570000  1.0 0.0018828877
C  C40  1  0.36040000  0.74170000  0.54560000  1.0 -0.1096102101
C  C41  1  0.21070000  0.14490000  0.54110000  1.0 -0.0743831086
C  C42  1  0.44480000  0.44400000  0.52420000  1.0 0.0496110849
C  C43  1  0.31540000  0.68580000  0.58030000  1.0 -0.1096102101
C  C44  1  0.22820000  0.20770000  0.52920000  1.0 -0.1608884379
C  C45  1  0.46050000  0.38040000  0.51010000  1.0 -0.1096102101
C  C46  1  0.30040000  0.09390000  0.52460000  1.0 -0.0619206152
C  C47  1  0.32240000  0.14920000  0.51330000  1.0 -0.1783495683
C  C48  1  0.24220000  0.08990000  0.53760000  1.0 -0.0799573499
C  C49  1  0.55990000  0.56850000  0.61720000  1.0 0.0108522734
C  C50  1  0.32300000  0.74350000  0.56630000  1.0 0.0305725724
C  C51  1  0.38950000  0.35150000  0.50680000  1.0 0.0305725724
C  C52  1  0.52250000  0.50970000  0.61640000  1.0 -0.0999248174
C  C53  1  0.60550000  0.58500000  0.63890000  1.0 0.5282097545
C  C54  1  0.40330000  0.49030000  0.51130000  1.0 0.0305725724
C  C55  1  0.55610000  0.61170000  0.60040000  1.0 -0.1096102101
C  C56  1  0.38520000  0.62400000  0.55330000  1.0 0.0559174654
C  C57  1  0.27330000  0.80320000  0.57190000  1.0 0.5200856377
C  C58  1  0.48030000  0.54100000  0.57630000  1.0 0.0496110849
C  C59  1  0.34640000  0.62790000  0.57360000  1.0 -0.1727115798
C  C60  1  0.38130000  0.68420000  0.53840000  1.0 -0.1486777039
C  C61  1  0.49060000  0.49980000  0.59590000  1.0 -0.1608884379
C  C62  1  0.22640000  0.03370000  0.55040000  1.0 0.5200856377
C  C63  1  0.96410000  0.03270000  0.79500000  1.0 -0.1906706381
C  C64  1  0.04390000  0.12200000  0.77100000  1.0 -0.1906706381
C  C65  1  0.76980000  0.19190000  0.75730000  1.0 0.0305725724
C  C66  1  0.78250000  0.12500000  0.76260000  1.0 -0.2395806525
C  C67  1  0.10140000  0.98270000  0.83040000  1.0 -0.144528407
C  C68  1  0.06670000  0.09290000  0.79180000  1.0 0.0108522734
C  C69  1  0.70600000  0.21280000  0.76720000  1.0 0.078110087
C  C70  1  0.02850000  0.05330000  0.80570000  1.0 0.0018828877
C  C71  1  0.24170000  0.13960000  0.79560000  1.0 -0.1096102101
C  C72  1  0.64490000  0.28930000  0.79110000  1.0 -0.0743831086
C  C73  1  0.94400000  0.05520000  0.77420000  1.0 0.0496110849
C  C74  1  0.18580000  0.18460000  0.83030000  1.0 -0.1096102101
C  C75  1  0.70770000  0.27180000  0.77920000  1.0 -0.1608884379
C  C76  1  0.88040000  0.03950000  0.76010000  1.0 -0.1096102101
C  C77  1  0.59390000  0.19960000  0.77460000  1.0 -0.0619206152
C  C78  1  0.64920000  0.17760000  0.76330000  1.0 -0.1783495683
C  C79  1  0.58990000  0.25780000  0.78760000  1.0 -0.0799573499
C  C80  1  0.06850000  0.94010000  0.86720000  1.0 0.0108522734
C  C81  1  0.24350000  0.17700000  0.81630000  1.0 0.0353295107
C  C82  1  0.85150000  0.11050000  0.75680000  1.0 0.0305725724
C  C83  1  0.00970000  0.97750000  0.86640000  1.0 -0.0999248174
C  C84  1  0.08500000  0.89450000  0.88890000  1.0 0.5282097545
C  C85  1  0.99030000  0.09670000  0.76130000  1.0 0.0305725724
C  C86  1  0.11170000  0.94390000  0.85040000  1.0 -0.1096102101
C  C87  1  0.12400000  0.11480000  0.80330000  1.0 0.0559174654
C  C88  1  0.30320000  0.22670000  0.82190000  1.0 0.5200856377
C  C89  1  0.04100000  0.01970000  0.82630000  1.0 0.0496110849
C  C90  1  0.12790000  0.15360000  0.82360000  1.0 -0.1727115798
C  C91  1  0.18420000  0.11870000  0.78840000  1.0 -0.1486777039
C  C92  1  0.99980000  0.00940000  0.84590000  1.0 -0.1608884379
C  C93  1  0.53370000  0.27360000  0.80040000  1.0 0.5200856377
C  C94  1  0.03590000  0.96730000  0.29500000  1.0 -0.1906706381
C  C95  1  0.95610000  0.87800000  0.27100000  1.0 -0.1906706381
C  C96  1  0.23020000  0.80810000  0.25730000  1.0 0.0305725724
C  C97  1  0.21750000  0.87500000  0.26260000  1.0 -0.2395806525
C  C98  1  0.89860000  0.01730000  0.33040000  1.0 -0.144528407
C  C99  1  0.93330000  0.90710000  0.29180000  1.0 0.0108522734
C  C100  1  0.29400000  0.78720000  0.26720000  1.0 0.078110087
C  C101  1  0.97150000  0.94670000  0.30570000  1.0 0.0018828877
C  C102  1  0.75830000  0.86040000  0.29560000  1.0 -0.1096102101
C  C103  1  0.35510000  0.71070000  0.29110000  1.0 -0.0799573499
C  C104  1  0.05600000  0.94480000  0.27420000  1.0 0.0496110849
C  C105  1  0.81420000  0.81540000  0.33030000  1.0 -0.1096102101
C  C106  1  0.29230000  0.72820000  0.27920000  1.0 -0.1608884379
C  C107  1  0.11960000  0.96050000  0.26010000  1.0 -0.1096102101
C  C108  1  0.40610000  0.80040000  0.27460000  1.0 -0.0619206152
C  C109  1  0.35080000  0.82240000  0.26330000  1.0 -0.1783495683
C  C110  1  0.41010000  0.74220000  0.28760000  1.0 -0.0799573499
C  C111  1  0.93150000  0.05990000  0.36720000  1.0 0.0108522734
C  C112  1  0.75650000  0.82300000  0.31630000  1.0 0.0305725724
C  C113  1  0.14850000  0.88950000  0.25680000  1.0 0.0305725724
C  C114  1  0.99030000  0.02250000  0.36640000  1.0 -0.0999248174
C  C115  1  0.91500000  0.10550000  0.38890000  1.0 0.5282097545
C  C116  1  0.00970000  0.90330000  0.26130000  1.0 0.0305725724
C  C117  1  0.88830000  0.05610000  0.35040000  1.0 -0.1096102101
C  C118  1  0.87600000  0.88520000  0.30330000  1.0 0.0559174654
C  C119  1  0.69680000  0.77330000  0.32190000  1.0 0.5200856377
C  C120  1  0.95900000  0.98030000  0.32630000  1.0 0.0496110849
C  C121  1  0.87210000  0.84640000  0.32360000  1.0 -0.1727115798
C  C122  1  0.81580000  0.88130000  0.28840000  1.0 -0.1486777039
C  C123  1  0.00020000  0.99060000  0.34590000  1.0 -0.1608884379
C  C124  1  0.46630000  0.72640000  0.30040000  1.0 0.5200856377
C  C125  1  0.96730000  0.03590000  0.70500000  1.0 -0.1906706381
C  C126  1  0.87800000  0.95610000  0.72900000  1.0 -0.1906706381
C  C127  1  0.80810000  0.23020000  0.74270000  1.0 0.0305725724
C  C128  1  0.87500000  0.21750000  0.73740000  1.0 -0.2395806525
C  C129  1  0.01730000  0.89860000  0.66960000  1.0 -0.1486777039
C  C130  1  0.90710000  0.93330000  0.70820000  1.0 0.0108522734
C  C131  1  0.78720000  0.29400000  0.73280000  1.0 0.078110087
C  C132  1  0.94670000  0.97150000  0.69430000  1.0 0.0018828877
C  C133  1  0.86040000  0.75830000  0.70440000  1.0 -0.1096102101
C  C134  1  0.71070000  0.35510000  0.70890000  1.0 -0.0799573499
C  C135  1  0.94480000  0.05600000  0.72580000  1.0 0.0496110849
C  C136  1  0.81540000  0.81420000  0.66970000  1.0 -0.1096102101
C  C137  1  0.72820000  0.29230000  0.72080000  1.0 -0.1608884379
C  C138  1  0.96050000  0.11960000  0.73990000  1.0 -0.1096102101
C  C139  1  0.80040000  0.40610000  0.72540000  1.0 -0.0619206152
C  C140  1  0.82240000  0.35080000  0.73670000  1.0 -0.1783495683
C  C141  1  0.74220000  0.41010000  0.71240000  1.0 -0.0799573499
C  C142  1  0.05990000  0.93150000  0.63280000  1.0 0.0108522734
C  C143  1  0.82300000  0.75650000  0.68370000  1.0 0.0305725724
C  C144  1  0.88950000  0.14850000  0.74320000  1.0 0.0305725724
C  C145  1  0.02250000  0.99030000  0.63360000  1.0 -0.0999248174
C  C146  1  0.10550000  0.91500000  0.61110000  1.0 0.5282097545
C  C147  1  0.90330000  0.00970000  0.73870000  1.0 0.0305725724
C  C148  1  0.05610000  0.88830000  0.64960000  1.0 -0.1096102101
C  C149  1  0.88520000  0.87600000  0.69670000  1.0 0.0559174654
C  C150  1  0.77330000  0.69680000  0.67810000  1.0 0.5200856377
C  C151  1  0.98030000  0.95900000  0.67370000  1.0 0.0496110849
C  C152  1  0.84640000  0.87210000  0.67640000  1.0 -0.1727115798
C  C153  1  0.88130000  0.81580000  0.71160000  1.0 -0.1486777039
C  C154  1  0.99060000  0.00020000  0.65410000  1.0 -0.1608884379
C  C155  1  0.72640000  0.46630000  0.69960000  1.0 0.5200856377
C  C156  1  0.03270000  0.96410000  0.20500000  1.0 -0.1906706381
C  C157  1  0.12200000  0.04390000  0.22900000  1.0 -0.1906706381
C  C158  1  0.19190000  0.76980000  0.24270000  1.0 0.0305725724
C  C159  1  0.12500000  0.78250000  0.23740000  1.0 -0.2395806525
C  C160  1  0.98270000  0.10140000  0.16960000  1.0 -0.144528407
C  C161  1  0.09290000  0.06670000  0.20820000  1.0 0.0108522734
C  C162  1  0.21280000  0.70600000  0.23280000  1.0 0.078110087
C  C163  1  0.05330000  0.02850000  0.19430000  1.0 0.0018828877
C  C164  1  0.13960000  0.24170000  0.20440000  1.0 -0.1096102101
C  C165  1  0.28930000  0.64490000  0.20890000  1.0 -0.0743831086
C  C166  1  0.05520000  0.94400000  0.22580000  1.0 0.0496110849
C  C167  1  0.18460000  0.18580000  0.16970000  1.0 -0.1096102101
C  C168  1  0.27180000  0.70770000  0.22080000  1.0 -0.1608884379
C  C169  1  0.03950000  0.88040000  0.23990000  1.0 -0.1096102101
C  C170  1  0.19960000  0.59390000  0.22540000  1.0 -0.0619206152
C  C171  1  0.17760000  0.64920000  0.23670000  1.0 -0.1783495683
C  C172  1  0.25780000  0.58990000  0.21240000  1.0 -0.0799573499
C  C173  1  0.94010000  0.06850000  0.13280000  1.0 0.0108522734
C  C174  1  0.17700000  0.24350000  0.18370000  1.0 0.0305725724
C  C175  1  0.11050000  0.85150000  0.24320000  1.0 0.0305725724
C  C176  1  0.97750000  0.00970000  0.13360000  1.0 -0.0999248174
C  C177  1  0.89450000  0.08500000  0.11110000  1.0 0.5282097545
C  C178  1  0.09670000  0.99030000  0.23870000  1.0 0.0305725724
C  C179  1  0.94390000  0.11170000  0.14960000  1.0 -0.1096102101
C  C180  1  0.11480000  0.12400000  0.19670000  1.0 0.0559174654
C  C181  1  0.22670000  0.30320000  0.17810000  1.0 0.5200856377
C  C182  1  0.01970000  0.04100000  0.17370000  1.0 0.0496110849
C  C183  1  0.15360000  0.12790000  0.17640000  1.0 -0.1727115798
C  C184  1  0.11870000  0.18420000  0.21160000  1.0 -0.1486777039
C  C185  1  0.00940000  0.99980000  0.15410000  1.0 -0.1608884379
C  C186  1  0.27360000  0.53370000  0.19960000  1.0 0.5200856377
C  C187  1  0.53590000  0.53270000  0.95500000  1.0 -0.1906706381
C  C188  1  0.45610000  0.62200000  0.97900000  1.0 -0.1906706381
C  C189  1  0.73020000  0.69190000  0.99270000  1.0 0.0305725724
C  C190  1  0.71750000  0.62500000  0.98740000  1.0 -0.2395806525
C  C191  1  0.39860000  0.48270000  0.91960000  1.0 -0.144528407
C  C192  1  0.43330000  0.59290000  0.95820000  1.0 0.0108522734
C  C193  1  0.79400000  0.71280000  0.98280000  1.0 0.078110087
C  C194  1  0.47150000  0.55330000  0.94430000  1.0 0.0018828877
C  C195  1  0.25830000  0.63960000  0.95440000  1.0 -0.1096102101
C  C196  1  0.85510000  0.78930000  0.95890000  1.0 -0.0743831086
C  C197  1  0.55600000  0.55520000  0.97580000  1.0 0.0496110849
C  C198  1  0.31420000  0.68460000  0.91970000  1.0 -0.1096102101
C  C199  1  0.79230000  0.77180000  0.97080000  1.0 -0.1608884379
C  C200  1  0.61960000  0.53950000  0.98990000  1.0 -0.1096102101
C  C201  1  0.90610000  0.69960000  0.97540000  1.0 -0.0619206152
C  C202  1  0.85080000  0.67760000  0.98670000  1.0 -0.1783495683
C  C203  1  0.91010000  0.75780000  0.96240000  1.0 -0.0799573499
C  C204  1  0.43150000  0.44010000  0.88280000  1.0 0.0108522734
C  C205  1  0.25650000  0.67700000  0.93370000  1.0 0.0305725724
C  C206  1  0.64850000  0.61050000  0.99320000  1.0 0.0305725724
C  C207  1  0.49030000  0.47750000  0.88360000  1.0 -0.0999248174
C  C208  1  0.41500000  0.39450000  0.86110000  1.0 0.5282097545
C  C209  1  0.50970000  0.59670000  0.98870000  1.0 0.0305725724
C  C210  1  0.38830000  0.44390000  0.89960000  1.0 -0.1096102101
C  C211  1  0.37600000  0.61480000  0.94670000  1.0 0.0559174654
C  C212  1  0.19680000  0.72670000  0.92810000  1.0 0.5200856377
C  C213  1  0.45900000  0.51970000  0.92370000  1.0 0.0496110849
C  C214  1  0.37210000  0.65360000  0.92640000  1.0 -0.1727115798
C  C215  1  0.31580000  0.61870000  0.96160000  1.0 -0.1486777039
C  C216  1  0.50020000  0.50940000  0.90410000  1.0 -0.1608884379
C  C217  1  0.96630000  0.77360000  0.94960000  1.0 0.5200856377
C  C218  1  0.46410000  0.46730000  0.45500000  1.0 -0.1906706381
C  C219  1  0.54390000  0.37800000  0.47900000  1.0 -0.1906706381
C  C220  1  0.26980000  0.30810000  0.49270000  1.0 0.0305725724
C  C221  1  0.28250000  0.37500000  0.48740000  1.0 -0.2395806525
C  C222  1  0.60140000  0.51730000  0.41960000  1.0 -0.144528407
C  C223  1  0.56670000  0.40710000  0.45820000  1.0 0.0108522734
C  C224  1  0.20600000  0.28720000  0.48280000  1.0 0.078110087
C  C225  1  0.52850000  0.44670000  0.44430000  1.0 0.0018828877
C  C226  1  0.74170000  0.36040000  0.45440000  1.0 -0.1096102101
C  C227  1  0.14490000  0.21070000  0.45890000  1.0 -0.0743831086
C  C228  1  0.44400000  0.44480000  0.47580000  1.0 0.0496110849
C  C229  1  0.68580000  0.31540000  0.41970000  1.0 -0.1096102101
C  C230  1  0.20770000  0.22820000  0.47080000  1.0 -0.1608884379
C  C231  1  0.38040000  0.46050000  0.48990000  1.0 -0.1096102101
C  C232  1  0.09390000  0.30040000  0.47540000  1.0 -0.0619206152
C  C233  1  0.14920000  0.32240000  0.48670000  1.0 -0.1783495683
C  C234  1  0.08990000  0.24220000  0.46240000  1.0 -0.0799573499
C  C235  1  0.56850000  0.55990000  0.38280000  1.0 0.0108522734
C  C236  1  0.74350000  0.32300000  0.43370000  1.0 0.0305725724
C  C237  1  0.35150000  0.38950000  0.49320000  1.0 0.0305725724
C  C238  1  0.50970000  0.52250000  0.38360000  1.0 -0.0999248174
C  C239  1  0.58500000  0.60550000  0.36110000  1.0 0.5282097545
C  C240  1  0.49030000  0.40330000  0.48870000  1.0 0.0305725724
C  C241  1  0.61170000  0.55610000  0.39960000  1.0 -0.1096102101
C  C242  1  0.62400000  0.38520000  0.44670000  1.0 0.0559174654
C  C243  1  0.80320000  0.27330000  0.42810000  1.0 0.5200856377
C  C244  1  0.54100000  0.48030000  0.42370000  1.0 0.0496110849
C  C245  1  0.62790000  0.34640000  0.42640000  1.0 -0.1727115798
C  C246  1  0.68420000  0.38130000  0.46160000  1.0 -0.1486777039
C  C247  1  0.49980000  0.49060000  0.40410000  1.0 -0.1608884379
C  C248  1  0.03370000  0.22640000  0.44960000  1.0 0.5200856377
O  O1  1  0.38840000  0.46750000  0.15180000  1.0 -0.6217027891
O  O2  1  0.73550000  0.02280000  0.04860000  1.0 -0.6319037366
O  O3  1  0.76150000  0.19650000  0.08870000  1.0 -0.5574153501
O  O4  1  0.82100000  0.97520000  0.06460000  1.0 -0.5891892079
O  O5  1  0.35720000  0.36750000  0.13950000  1.0 -0.5891892079
O  O6  1  0.71350000  0.14660000  0.05908000  1.0 -0.6217027891
O  O7  1  0.61160000  0.53250000  0.65180000  1.0 -0.6217027891
O  O8  1  0.26450000  0.97720000  0.54860000  1.0 -0.6319037366
O  O9  1  0.23850000  0.80350000  0.58870000  1.0 -0.5574153501
O  O10  1  0.17900000  0.02480000  0.56460000  1.0 -0.5891892079
O  O11  1  0.64280000  0.63250000  0.63950000  1.0 -0.5891892079
O  O12  1  0.28650000  0.85340000  0.55908000  1.0 -0.6217027891
O  O13  1  0.03250000  0.88840000  0.90180000  1.0 -0.6217027891
O  O14  1  0.47720000  0.23550000  0.79860000  1.0 -0.6319037366
O  O15  1  0.30350000  0.26150000  0.83870000  1.0 -0.5574153501
O  O16  1  0.52480000  0.32100000  0.81460000  1.0 -0.5891892079
O  O17  1  0.13250000  0.85720000  0.88950000  1.0 -0.5891892079
O  O18  1  0.35340000  0.21350000  0.80908000  1.0 -0.6217027891
O  O19  1  0.96750000  0.11160000  0.40180000  1.0 -0.6217027891
O  O20  1  0.52280000  0.76450000  0.29860000  1.0 -0.6319037366
O  O21  1  0.69650000  0.73850000  0.33870000  1.0 -0.5574153501
O  O22  1  0.47520000  0.67900000  0.31460000  1.0 -0.5891892079
O  O23  1  0.86750000  0.14280000  0.38950000  1.0 -0.5891892079
O  O24  1  0.64660000  0.78650000  0.30908000  1.0 -0.6217027891
O  O25  1  0.11160000  0.96750000  0.59820000  1.0 -0.6217027891
O  O26  1  0.76450000  0.52280000  0.70140000  1.0 -0.6319037366
O  O27  1  0.73850000  0.69650000  0.66130000  1.0 -0.5574153501
O  O28  1  0.67900000  0.47520000  0.68540000  1.0 -0.5891892079
O  O29  1  0.14280000  0.86750000  0.61050000  1.0 -0.5891892079
O  O30  1  0.78650000  0.64660000  0.69092000  1.0 -0.6217027891
O  O31  1  0.88840000  0.03250000  0.09820000  1.0 -0.6217027891
O  O32  1  0.23550000  0.47720000  0.20140000  1.0 -0.6319037366
O  O33  1  0.26150000  0.30350000  0.16130000  1.0 -0.5574153501
O  O34  1  0.32100000  0.52480000  0.18540000  1.0 -0.5891892079
O  O35  1  0.85720000  0.13250000  0.11050000  1.0 -0.5891892079
O  O36  1  0.21350000  0.35340000  0.19092000  1.0 -0.6217027891
O  O37  1  0.46750000  0.38840000  0.84820000  1.0 -0.6217027891
O  O38  1  0.02280000  0.73550000  0.95140000  1.0 -0.6319037366
O  O39  1  0.19650000  0.76150000  0.91130000  1.0 -0.5574153501
O  O40  1  0.97520000  0.82100000  0.93540000  1.0 -0.5891892079
O  O41  1  0.36750000  0.35720000  0.86050000  1.0 -0.5891892079
O  O42  1  0.14660000  0.71350000  0.94092000  1.0 -0.6217027891
O  O43  1  0.53250000  0.61160000  0.34820000  1.0 -0.6217027891
O  O44  1  0.97720000  0.26450000  0.45140000  1.0 -0.6319037366
O  O45  1  0.80350000  0.23850000  0.41130000  1.0 -0.5574153501
O  O46  1  0.02480000  0.17900000  0.43540000  1.0 -0.5891892079
O  O47  1  0.63250000  0.64280000  0.36050000  1.0 -0.5891892079
O  O48  1  0.85340000  0.28650000  0.44092000  1.0 -0.6217027891
