# DDEC6 charges by PACMAN v1.1 (https://github.com/mtap-research/PACMAN-charge/)
data_ALECIG_ASR_pacman
_symmetry_space_group_name_H-M   'P 1'
_cell_length_a   34.09810000
_cell_length_b   34.09810000
_cell_length_c   17.86870000
_cell_angle_alpha   90.00000000
_cell_angle_beta   90.00000000
_cell_angle_gamma   136.20800000
_symmetry_Int_Tables_number   1
_chemical_formula_structural   UH36(C21O2)3
_chemical_formula_sum   'U4 H144 C252 O24'
_cell_volume   14377.58736342
_cell_formula_units_Z   4
loop_
 _symmetry_equiv_pos_site_id
 _symmetry_equiv_pos_as_xyz
  1  'x, y, z'
loop_
 _atom_site_type_symbol
 _atom_site_label
 _atom_site_symmetry_multiplicity
 _atom_site_fract_x
 _atom_site_fract_y
 _atom_site_fract_z
 _atom_site_occupancy
 _atom_site_charge
U  U1  1  0.91541000  0.64225000  0.43393000  1.0 2.1073821813
U  U2  1  0.08459000  0.35775000  0.93393000  1.0 2.1073821813
U  U3  1  0.64225000  0.91541000  0.93393000  1.0 2.1073821813
U  U4  1  0.35775000  0.08459000  0.43393000  1.0 2.1073821813
H  H1  1  0.90110000  0.54070000  0.22440000  1.0 0.1202012382
H  H2  1  0.91510000  0.49670000  0.42540000  1.0 0.1202012382
H  H3  1  0.90493000  0.42833000  0.36690000  1.0 0.1089255374
H  H4  1  0.89080000  0.47240000  0.16580000  1.0 0.1202012382
H  H5  1  0.92550000  0.32110000  0.24050000  1.0 0.1004855521
H  H6  1  0.90240000  0.24460000  0.18410000  1.0 0.1004855521
H  H7  1  0.83760000  0.25580000  0.00570000  1.0 0.0926622571
H  H8  1  0.86080000  0.33240000  0.06210000  1.0 0.1089255374
H  H9  1  0.93550000  0.23990000  0.02370000  1.0 0.1282212777
H  H10  1  0.97480000  0.21080000  0.95460000  1.0 0.1202012382
H  H11  1  0.01060000  0.16600000  0.98300000  1.0 0.1282212777
H  H12  1  0.00030000  0.10390000  0.16800000  1.0 0.1202012382
H  H13  1  0.07200000  0.11400000  0.21150000  1.0 0.1202012382
H  H14  1  0.11820000  0.12400000  0.99770000  1.0 0.1202012382
H  H15  1  0.04650000  0.11390000  0.95410000  1.0 0.1202012382
H  H16  1  0.16290000  0.09130000  0.29990000  1.0 0.1202012382
H  H17  1  0.21700000  0.08420000  0.36540000  1.0 0.1202012382
H  H18  1  0.30670000  0.12590000  0.17710000  1.0 0.1282212777
H  H19  1  0.25260000  0.13300000  0.11160000  1.0 0.1202012382
H  H20  1  0.96580000  0.21100000  0.80930000  1.0 0.1282212777
H  H21  1  0.96260000  0.14800000  0.64340000  1.0 0.1004855521
H  H22  1  0.00700000  0.19880000  0.53190000  1.0 0.1004855521
H  H23  1  0.94320000  0.26260000  0.55490000  1.0 0.1004855521
H  H24  1  0.89890000  0.21190000  0.66640000  1.0 0.1004855521
H  H25  1  0.02470000  0.22670000  0.27810000  1.0 0.1202012382
H  H26  1  0.04030000  0.25150000  0.15130000  1.0 0.1282212777
H  H27  1  0.03790000  0.36630000  0.19620000  1.0 0.1089255374
H  H28  1  0.02230000  0.34150000  0.32290000  1.0 0.1202012382
H  H29  1  0.97120000  0.36160000  0.17720000  1.0 0.1004855521
H  H30  1  0.94830000  0.28710000  0.11510000  1.0 0.0926622571
H  H31  1  0.79930000  0.21970000  0.06050000  1.0 0.0742749005
H  H32  1  0.81470000  0.29250000  0.12290000  1.0 0.1004855521
H  H33  1  0.00070000  0.20390000  0.68050000  1.0 0.0926622571
H  H34  1  0.05150000  0.26590000  0.57690000  1.0 0.1004855521
H  H35  1  0.90560000  0.21080000  0.50020000  1.0 0.1004855521
H  H36  1  0.85640000  0.15180000  0.60480000  1.0 0.0926622571
H  H37  1  0.09890000  0.45930000  0.72440000  1.0 0.1202012382
H  H38  1  0.08490000  0.50330000  0.92540000  1.0 0.1202012382
H  H39  1  0.09507000  0.57167000  0.86690000  1.0 0.1089255374
H  H40  1  0.10920000  0.52760000  0.66580000  1.0 0.1202012382
H  H41  1  0.07450000  0.67890000  0.74050000  1.0 0.1004855521
H  H42  1  0.09760000  0.75540000  0.68410000  1.0 0.1004855521
H  H43  1  0.16240000  0.74420000  0.50570000  1.0 0.0926622571
H  H44  1  0.13920000  0.66760000  0.56210000  1.0 0.1089255374
H  H45  1  0.06450000  0.76010000  0.52370000  1.0 0.1282212777
H  H46  1  0.02520000  0.78920000  0.45460000  1.0 0.1202012382
H  H47  1  0.98940000  0.83400000  0.48300000  1.0 0.1282212777
H  H48  1  0.99970000  0.89610000  0.66800000  1.0 0.1202012382
H  H49  1  0.92800000  0.88600000  0.71150000  1.0 0.1202012382
H  H50  1  0.88180000  0.87600000  0.49770000  1.0 0.1202012382
H  H51  1  0.95350000  0.88610000  0.45410000  1.0 0.1202012382
H  H52  1  0.83710000  0.90870000  0.79990000  1.0 0.1202012382
H  H53  1  0.78300000  0.91580000  0.86540000  1.0 0.1202012382
H  H54  1  0.69330000  0.87410000  0.67710000  1.0 0.1282212777
H  H55  1  0.74740000  0.86700000  0.61160000  1.0 0.1202012382
H  H56  1  0.03420000  0.78900000  0.30930000  1.0 0.1282212777
H  H57  1  0.03740000  0.85200000  0.14340000  1.0 0.1004855521
H  H58  1  0.99300000  0.80120000  0.03190000  1.0 0.1004855521
H  H59  1  0.05680000  0.73740000  0.05490000  1.0 0.1004855521
H  H60  1  0.10110000  0.78810000  0.16640000  1.0 0.1004855521
H  H61  1  0.97530000  0.77330000  0.77810000  1.0 0.1202012382
H  H62  1  0.95970000  0.74850000  0.65130000  1.0 0.1282212777
H  H63  1  0.96210000  0.63370000  0.69620000  1.0 0.1089255374
H  H64  1  0.97770000  0.65850000  0.82290000  1.0 0.1202012382
H  H65  1  0.02880000  0.63840000  0.67720000  1.0 0.1004855521
H  H66  1  0.05170000  0.71290000  0.61510000  1.0 0.0926622571
H  H67  1  0.20070000  0.78030000  0.56050000  1.0 0.0767861113
H  H68  1  0.18530000  0.70750000  0.62290000  1.0 0.1004855521
H  H69  1  0.99930000  0.79610000  0.18050000  1.0 0.0926622571
H  H70  1  0.94850000  0.73410000  0.07690000  1.0 0.1004855521
H  H71  1  0.09440000  0.78920000  0.00020000  1.0 0.0926622571
H  H72  1  0.14360000  0.84820000  0.10480000  1.0 0.0926622571
H  H73  1  0.54070000  0.90110000  0.72440000  1.0 0.1202012382
H  H74  1  0.49670000  0.91510000  0.92540000  1.0 0.1202012382
H  H75  1  0.42833000  0.90493000  0.86690000  1.0 0.1089255374
H  H76  1  0.47240000  0.89080000  0.66580000  1.0 0.1282212777
H  H77  1  0.32110000  0.92550000  0.74050000  1.0 0.1004855521
H  H78  1  0.24460000  0.90240000  0.68410000  1.0 0.1004855521
H  H79  1  0.25580000  0.83760000  0.50570000  1.0 0.0926622571
H  H80  1  0.33240000  0.86080000  0.56210000  1.0 0.1089255374
H  H81  1  0.23990000  0.93550000  0.52370000  1.0 0.1282212777
H  H82  1  0.21080000  0.97480000  0.45460000  1.0 0.1202012382
H  H83  1  0.16600000  0.01060000  0.48300000  1.0 0.1282212777
H  H84  1  0.10390000  0.00030000  0.66800000  1.0 0.1202012382
H  H85  1  0.11400000  0.07200000  0.71150000  1.0 0.1202012382
H  H86  1  0.12400000  0.11820000  0.49770000  1.0 0.1202012382
H  H87  1  0.11390000  0.04650000  0.45410000  1.0 0.1202012382
H  H88  1  0.09130000  0.16290000  0.79990000  1.0 0.1202012382
H  H89  1  0.08420000  0.21700000  0.86540000  1.0 0.1202012382
H  H90  1  0.12590000  0.30670000  0.67710000  1.0 0.1282212777
H  H91  1  0.13300000  0.25260000  0.61160000  1.0 0.1202012382
H  H92  1  0.21100000  0.96580000  0.30930000  1.0 0.1282212777
H  H93  1  0.14800000  0.96260000  0.14340000  1.0 0.1004855521
H  H94  1  0.19880000  0.00700000  0.03190000  1.0 0.1004855521
H  H95  1  0.26260000  0.94320000  0.05490000  1.0 0.1004855521
H  H96  1  0.21190000  0.89890000  0.16640000  1.0 0.1004855521
H  H97  1  0.22670000  0.02470000  0.77810000  1.0 0.1202012382
H  H98  1  0.25150000  0.04030000  0.65130000  1.0 0.1282212777
H  H99  1  0.36630000  0.03790000  0.69620000  1.0 0.1089255374
H  H100  1  0.34150000  0.02230000  0.82290000  1.0 0.1202012382
H  H101  1  0.36160000  0.97120000  0.67720000  1.0 0.1004855521
H  H102  1  0.28710000  0.94830000  0.61510000  1.0 0.0926622571
H  H103  1  0.21970000  0.79930000  0.56050000  1.0 0.0767861113
H  H104  1  0.29250000  0.81470000  0.62290000  1.0 0.1004855521
H  H105  1  0.20390000  0.00070000  0.18050000  1.0 0.0926622571
H  H106  1  0.26590000  0.05150000  0.07690000  1.0 0.1004855521
H  H107  1  0.21080000  0.90560000  0.00020000  1.0 0.0926622571
H  H108  1  0.15180000  0.85640000  0.10480000  1.0 0.0926622571
H  H109  1  0.45930000  0.09890000  0.22440000  1.0 0.1202012382
H  H110  1  0.50330000  0.08490000  0.42540000  1.0 0.1202012382
H  H111  1  0.57167000  0.09507000  0.36690000  1.0 0.1089255374
H  H112  1  0.52760000  0.10920000  0.16580000  1.0 0.1282212777
H  H113  1  0.67890000  0.07450000  0.24050000  1.0 0.1004855521
H  H114  1  0.75540000  0.09760000  0.18410000  1.0 0.1004855521
H  H115  1  0.74420000  0.16240000  0.00570000  1.0 0.0926622571
H  H116  1  0.66760000  0.13920000  0.06210000  1.0 0.1089255374
H  H117  1  0.76010000  0.06450000  0.02370000  1.0 0.1282212777
H  H118  1  0.78920000  0.02520000  0.95460000  1.0 0.1202012382
H  H119  1  0.83400000  0.98940000  0.98300000  1.0 0.1282212777
H  H120  1  0.89610000  0.99970000  0.16800000  1.0 0.1202012382
H  H121  1  0.88600000  0.92800000  0.21150000  1.0 0.1202012382
H  H122  1  0.87600000  0.88180000  0.99770000  1.0 0.1202012382
H  H123  1  0.88610000  0.95350000  0.95410000  1.0 0.1202012382
H  H124  1  0.90870000  0.83710000  0.29990000  1.0 0.1202012382
H  H125  1  0.91580000  0.78300000  0.36540000  1.0 0.1202012382
H  H126  1  0.87410000  0.69330000  0.17710000  1.0 0.1282212777
H  H127  1  0.86700000  0.74740000  0.11160000  1.0 0.1202012382
H  H128  1  0.78900000  0.03420000  0.80930000  1.0 0.1282212777
H  H129  1  0.85200000  0.03740000  0.64340000  1.0 0.1004855521
H  H130  1  0.80120000  0.99300000  0.53190000  1.0 0.1004855521
H  H131  1  0.73740000  0.05680000  0.55490000  1.0 0.1004855521
H  H132  1  0.78810000  0.10110000  0.66640000  1.0 0.1004855521
H  H133  1  0.77330000  0.97530000  0.27810000  1.0 0.1202012382
H  H134  1  0.74850000  0.95970000  0.15130000  1.0 0.1282212777
H  H135  1  0.63370000  0.96210000  0.19620000  1.0 0.1089255374
H  H136  1  0.65850000  0.97770000  0.32290000  1.0 0.1202012382
H  H137  1  0.63840000  0.02880000  0.17720000  1.0 0.1004855521
H  H138  1  0.71290000  0.05170000  0.11510000  1.0 0.0926622571
H  H139  1  0.78030000  0.20070000  0.06050000  1.0 0.0767861113
H  H140  1  0.70750000  0.18530000  0.12290000  1.0 0.1004855521
H  H141  1  0.79610000  0.99930000  0.68050000  1.0 0.0926622571
H  H142  1  0.73410000  0.94850000  0.57690000  1.0 0.1004855521
H  H143  1  0.78920000  0.09440000  0.50020000  1.0 0.1004855521
H  H144  1  0.84820000  0.14360000  0.60480000  1.0 0.0926622571
C  C1  1  0.90220000  0.56040000  0.36090000  1.0 0.4970766932
C  C2  1  0.90190000  0.51790000  0.25330000  1.0 -0.070724279
C  C3  1  0.90910000  0.52510000  0.33040000  1.0 -0.0197308654
C  C4  1  0.91020000  0.49180000  0.37270000  1.0 -0.0789089074
C  C5  1  0.90410000  0.45110000  0.33800000  1.0 -0.1700450599
C  C6  1  0.89690000  0.44390000  0.26090000  1.0 0.1537832001
C  C7  1  0.89570000  0.47730000  0.21850000  1.0 -0.1700450599
C  C8  1  0.89930000  0.41470000  0.19200000  1.0 -0.1388675976
C  C9  1  0.89670000  0.37930000  0.17200000  1.0 -0.2394892432
C  C10  1  0.89530000  0.33390000  0.15660000  1.0 0.0767861113
C  C11  1  0.90790000  0.30810000  0.19300000  1.0 -0.070724279
C  C12  1  0.89380000  0.26220000  0.15900000  1.0 -0.070724279
C  C13  1  0.86780000  0.24300000  0.08960000  1.0 0.0161057675
C  C14  1  0.85520000  0.26880000  0.05340000  1.0 -0.0789089074
C  C15  1  0.86930000  0.31470000  0.08700000  1.0 -0.070724279
C  C16  1  0.85780000  0.19600000  0.05470000  1.0 -0.014542966
C  C17  1  0.89810000  0.20270000  0.02480000  1.0 -0.1912011251
C  C18  1  0.89001000  0.16219000  0.99710000  1.0 0.0416010015
C  C19  1  0.93540000  0.17140000  0.95410000  1.0 -0.1095967462
C  C20  1  0.92820000  0.12360000  0.98420000  1.0 0.0517550746
C  C21  1  0.97330000  0.13250000  0.99840000  1.0 -0.2157263577
C  C22  1  0.96130000  0.08670000  0.04000000  1.0 0.0301934563
C  C23  1  0.01670000  0.10790000  0.05690000  1.0 0.0742749005
C  C24  1  0.02420000  0.10800000  0.13340000  1.0 -0.1475357141
C  C25  1  0.06680000  0.11400000  0.15930000  1.0 -0.1475357141
C  C26  1  0.10180000  0.12000000  0.10870000  1.0 0.1089255374
C  C27  1  0.09430000  0.11990000  0.03230000  1.0 -0.1388675976
C  C28  1  0.05170000  0.11390000  0.00640000  1.0 -0.1603575596
C  C29  1  0.14190000  0.11930000  0.14950000  1.0 -0.0197308654
C  C30  1  0.16990000  0.11610000  0.17640000  1.0 -0.1259783402
C  C31  1  0.20260000  0.11280000  0.19960000  1.0 0.0926622571
C  C32  1  0.19210000  0.09830000  0.27500000  1.0 -0.1603575596
C  C33  1  0.22410000  0.09410000  0.31390000  1.0 -0.1475357141
C  C34  1  0.26680000  0.10440000  0.27740000  1.0 0.0301934563
C  C35  1  0.27750000  0.11890000  0.20200000  1.0 -0.1475357141
C  C36  1  0.24530000  0.12310000  0.16310000  1.0 -0.1388675976
C  C37  1  0.28870000  0.08890000  0.34090000  1.0 0.53753725
C  C38  1  0.90850000  0.14870000  0.88160000  1.0 0.0517550746
C  C39  1  0.92971000  0.17269000  0.80910000  1.0 -0.2981365293
C  C40  1  0.90620000  0.14920000  0.73300000  1.0 -0.0392094739
C  C41  1  0.92660000  0.17520000  0.66540000  1.0 0.0301934563
C  C42  1  0.95870000  0.17130000  0.62500000  1.0 -0.0876252668
C  C43  1  0.98480000  0.20120000  0.55900000  1.0 -0.0392094739
C  C44  1  0.97930000  0.23550000  0.53290000  1.0 0.0416010015
C  C45  1  0.94690000  0.23910000  0.57300000  1.0 -0.0470634543
C  C46  1  0.92080000  0.20920000  0.63900000  1.0 -0.1095967462
C  C47  1  0.99770000  0.25070000  0.45480000  1.0 -0.1700450599
C  C48  1  0.01250000  0.27270000  0.39860000  1.0 -0.070724279
C  C49  1  0.02200000  0.28180000  0.31240000  1.0 0.1384727388
C  C50  1  0.02740000  0.25500000  0.26140000  1.0 -0.1603575596
C  C51  1  0.03660000  0.26980000  0.18620000  1.0 -0.1154685587
C  C52  1  0.04060000  0.31120000  0.16190000  1.0 -0.0392094739
C  C53  1  0.03520000  0.33800000  0.21280000  1.0 -0.0990600547
C  C54  1  0.02600000  0.32320000  0.28810000  1.0 -0.1700450599
C  C55  1  0.06060000  0.32940000  0.08270000  1.0 0.514594081
C  C56  1  0.93540000  0.33260000  0.15500000  1.0 -0.0618513281
C  C57  1  0.92070000  0.28730000  0.11900000  1.0 -0.070724279
C  C58  1  0.83380000  0.24820000  0.08800000  1.0 -0.070724279
C  C59  1  0.84230000  0.29210000  0.12300000  1.0 -0.0789089074
C  C60  1  0.98040000  0.20560000  0.64700000  1.0 -0.0470634543
C  C61  1  0.01140000  0.24060000  0.58300000  1.0 -0.0876252668
C  C62  1  0.92280000  0.20720000  0.53700000  1.0 -0.0990600547
C  C63  1  0.89630000  0.17570000  0.60000000  1.0 -0.0618513281
C  C64  1  0.09780000  0.43960000  0.86090000  1.0 0.4970766932
C  C65  1  0.09810000  0.48210000  0.75330000  1.0 -0.070724279
C  C66  1  0.09090000  0.47490000  0.83040000  1.0 -0.0197308654
C  C67  1  0.08980000  0.50820000  0.87270000  1.0 -0.0789089074
C  C68  1  0.09590000  0.54890000  0.83800000  1.0 -0.1700450599
C  C69  1  0.10310000  0.55610000  0.76090000  1.0 0.1537832001
C  C70  1  0.10430000  0.52270000  0.71850000  1.0 -0.1754630774
C  C71  1  0.10070000  0.58530000  0.69200000  1.0 -0.1388675976
C  C72  1  0.10330000  0.62070000  0.67200000  1.0 -0.2394892432
C  C73  1  0.10470000  0.66610000  0.65660000  1.0 0.0767861113
C  C74  1  0.09210000  0.69190000  0.69300000  1.0 -0.070724279
C  C75  1  0.10620000  0.73780000  0.65900000  1.0 -0.070724279
C  C76  1  0.13220000  0.75700000  0.58960000  1.0 0.0161057675
C  C77  1  0.14480000  0.73120000  0.55340000  1.0 -0.0789089074
C  C78  1  0.13070000  0.68530000  0.58700000  1.0 -0.070724279
C  C79  1  0.14220000  0.80400000  0.55470000  1.0 -0.0197308654
C  C80  1  0.10190000  0.79730000  0.52480000  1.0 -0.1912011251
C  C81  1  0.10999000  0.83781000  0.49710000  1.0 0.0416010015
C  C82  1  0.06460000  0.82860000  0.45410000  1.0 -0.1095967462
C  C83  1  0.07180000  0.87640000  0.48420000  1.0 0.0517550746
C  C84  1  0.02670000  0.86750000  0.49840000  1.0 -0.2157263577
C  C85  1  0.03870000  0.91330000  0.54000000  1.0 0.0301934563
C  C86  1  0.98330000  0.89210000  0.55690000  1.0 0.0742749005
C  C87  1  0.97580000  0.89200000  0.63340000  1.0 -0.1475357141
C  C88  1  0.93320000  0.88600000  0.65930000  1.0 -0.1475357141
C  C89  1  0.89820000  0.88000000  0.60870000  1.0 0.1089255374
C  C90  1  0.90570000  0.88010000  0.53230000  1.0 -0.1388675976
C  C91  1  0.94830000  0.88610000  0.50640000  1.0 -0.1603575596
C  C92  1  0.85810000  0.88070000  0.64950000  1.0 -0.0197308654
C  C93  1  0.83010000  0.88390000  0.67640000  1.0 -0.1259783402
C  C94  1  0.79740000  0.88720000  0.69960000  1.0 0.0926622571
C  C95  1  0.80790000  0.90170000  0.77500000  1.0 -0.1603575596
C  C96  1  0.77590000  0.90590000  0.81390000  1.0 -0.1475357141
C  C97  1  0.73320000  0.89560000  0.77740000  1.0 0.0301934563
C  C98  1  0.72250000  0.88110000  0.70200000  1.0 -0.1475357141
C  C99  1  0.75470000  0.87690000  0.66310000  1.0 -0.1388675976
C  C100  1  0.71130000  0.91110000  0.84090000  1.0 0.53753725
C  C101  1  0.09150000  0.85130000  0.38160000  1.0 0.0517550746
C  C102  1  0.07029000  0.82731000  0.30910000  1.0 -0.2981365293
C  C103  1  0.09380000  0.85080000  0.23300000  1.0 -0.0327594557
C  C104  1  0.07340000  0.82480000  0.16540000  1.0 0.0301934563
C  C105  1  0.04130000  0.82870000  0.12500000  1.0 -0.0876252668
C  C106  1  0.01520000  0.79880000  0.05900000  1.0 -0.0392094739
C  C107  1  0.02070000  0.76450000  0.03290000  1.0 0.0416010015
C  C108  1  0.05310000  0.76090000  0.07300000  1.0 -0.0470634543
C  C109  1  0.07920000  0.79080000  0.13900000  1.0 -0.1095967462
C  C110  1  0.00230000  0.74930000  0.95480000  1.0 -0.1700450599
C  C111  1  0.98750000  0.72730000  0.89860000  1.0 -0.070724279
C  C112  1  0.97800000  0.71820000  0.81240000  1.0 0.1384727388
C  C113  1  0.97260000  0.74500000  0.76140000  1.0 -0.1603575596
C  C114  1  0.96340000  0.73020000  0.68620000  1.0 -0.1154685587
C  C115  1  0.95940000  0.68880000  0.66190000  1.0 -0.0392094739
C  C116  1  0.96480000  0.66200000  0.71280000  1.0 -0.0990600547
C  C117  1  0.97400000  0.67680000  0.78810000  1.0 -0.1700450599
C  C118  1  0.93940000  0.67060000  0.58270000  1.0 0.514594081
C  C119  1  0.06460000  0.66740000  0.65500000  1.0 -0.0618513281
C  C120  1  0.07930000  0.71270000  0.61900000  1.0 -0.070724279
C  C121  1  0.16620000  0.75180000  0.58800000  1.0 -0.070724279
C  C122  1  0.15770000  0.70790000  0.62300000  1.0 -0.0789089074
C  C123  1  0.01960000  0.79440000  0.14700000  1.0 -0.0470634543
C  C124  1  0.98860000  0.75940000  0.08300000  1.0 -0.0876252668
C  C125  1  0.07720000  0.79280000  0.03700000  1.0 -0.0990600547
C  C126  1  0.10370000  0.82430000  0.10000000  1.0 -0.0618513281
C  C127  1  0.56040000  0.90220000  0.86090000  1.0 0.4970766932
C  C128  1  0.51790000  0.90190000  0.75330000  1.0 -0.0789089074
C  C129  1  0.52510000  0.90910000  0.83040000  1.0 -0.0197308654
C  C130  1  0.49180000  0.91020000  0.87270000  1.0 -0.0789089074
C  C131  1  0.45110000  0.90410000  0.83800000  1.0 -0.1603575596
C  C132  1  0.44390000  0.89690000  0.76090000  1.0 0.1574076444
C  C133  1  0.47730000  0.89570000  0.71850000  1.0 -0.1700450599
C  C134  1  0.41470000  0.89930000  0.69200000  1.0 -0.1388675976
C  C135  1  0.37930000  0.89670000  0.67200000  1.0 -0.2394892432
C  C136  1  0.33390000  0.89530000  0.65660000  1.0 0.0767861113
C  C137  1  0.30810000  0.90790000  0.69300000  1.0 -0.070724279
C  C138  1  0.26220000  0.89380000  0.65900000  1.0 -0.070724279
C  C139  1  0.24300000  0.86780000  0.58960000  1.0 0.0161057675
C  C140  1  0.26880000  0.85520000  0.55340000  1.0 -0.070724279
C  C141  1  0.31470000  0.86930000  0.58700000  1.0 -0.070724279
C  C142  1  0.19600000  0.85780000  0.55470000  1.0 -0.014542966
C  C143  1  0.20270000  0.89810000  0.52480000  1.0 -0.1912011251
C  C144  1  0.16219000  0.89001000  0.49710000  1.0 0.0416010015
C  C145  1  0.17140000  0.93540000  0.45410000  1.0 -0.1095967462
C  C146  1  0.12360000  0.92820000  0.48420000  1.0 0.0517550746
C  C147  1  0.13250000  0.97330000  0.49840000  1.0 -0.2157263577
C  C148  1  0.08670000  0.96130000  0.54000000  1.0 0.0301934563
C  C149  1  0.10790000  0.01670000  0.55690000  1.0 0.0742749005
C  C150  1  0.10800000  0.02420000  0.63340000  1.0 -0.1475357141
C  C151  1  0.11400000  0.06680000  0.65930000  1.0 -0.1475357141
C  C152  1  0.12000000  0.10180000  0.60870000  1.0 0.1089255374
C  C153  1  0.11990000  0.09430000  0.53230000  1.0 -0.1388675976
C  C154  1  0.11390000  0.05170000  0.50640000  1.0 -0.1603575596
C  C155  1  0.11930000  0.14190000  0.64950000  1.0 -0.0197308654
C  C156  1  0.11610000  0.16990000  0.67640000  1.0 -0.1259783402
C  C157  1  0.11280000  0.20260000  0.69960000  1.0 0.0926622571
C  C158  1  0.09830000  0.19210000  0.77500000  1.0 -0.1603575596
C  C159  1  0.09410000  0.22410000  0.81390000  1.0 -0.1475357141
C  C160  1  0.10440000  0.26680000  0.77740000  1.0 0.0301934563
C  C161  1  0.11890000  0.27750000  0.70200000  1.0 -0.1475357141
C  C162  1  0.12310000  0.24530000  0.66310000  1.0 -0.1388675976
C  C163  1  0.08890000  0.28870000  0.84090000  1.0 0.53753725
C  C164  1  0.14870000  0.90850000  0.38160000  1.0 0.0517550746
C  C165  1  0.17269000  0.92971000  0.30910000  1.0 -0.2981365293
C  C166  1  0.14920000  0.90620000  0.23300000  1.0 -0.0392094739
C  C167  1  0.17520000  0.92660000  0.16540000  1.0 0.0301934563
C  C168  1  0.17130000  0.95870000  0.12500000  1.0 -0.0876252668
C  C169  1  0.20120000  0.98480000  0.05900000  1.0 -0.0392094739
C  C170  1  0.23550000  0.97930000  0.03290000  1.0 0.0416010015
C  C171  1  0.23910000  0.94690000  0.07300000  1.0 -0.0470634543
C  C172  1  0.20920000  0.92080000  0.13900000  1.0 -0.1095967462
C  C173  1  0.25070000  0.99770000  0.95480000  1.0 -0.1700450599
C  C174  1  0.27270000  0.01250000  0.89860000  1.0 -0.0789089074
C  C175  1  0.28180000  0.02200000  0.81240000  1.0 0.1384727388
C  C176  1  0.25500000  0.02740000  0.76140000  1.0 -0.1603575596
C  C177  1  0.26980000  0.03660000  0.68620000  1.0 -0.1095967462
C  C178  1  0.31120000  0.04060000  0.66190000  1.0 -0.0392094739
C  C179  1  0.33800000  0.03520000  0.71280000  1.0 -0.0990600547
C  C180  1  0.32320000  0.02600000  0.78810000  1.0 -0.1700450599
C  C181  1  0.32940000  0.06060000  0.58270000  1.0 0.514594081
C  C182  1  0.33260000  0.93540000  0.65500000  1.0 -0.0618513281
C  C183  1  0.28730000  0.92070000  0.61900000  1.0 -0.070724279
C  C184  1  0.24820000  0.83380000  0.58800000  1.0 -0.0789089074
C  C185  1  0.29210000  0.84230000  0.62300000  1.0 -0.0789089074
C  C186  1  0.20560000  0.98040000  0.14700000  1.0 -0.0470634543
C  C187  1  0.24060000  0.01140000  0.08300000  1.0 -0.0876252668
C  C188  1  0.20720000  0.92280000  0.03700000  1.0 -0.0990600547
C  C189  1  0.17570000  0.89630000  0.10000000  1.0 -0.0618513281
C  C190  1  0.43960000  0.09780000  0.36090000  1.0 0.4970766932
C  C191  1  0.48210000  0.09810000  0.25330000  1.0 -0.0789089074
C  C192  1  0.47490000  0.09090000  0.33040000  1.0 -0.0197308654
C  C193  1  0.50820000  0.08980000  0.37270000  1.0 -0.0789089074
C  C194  1  0.54890000  0.09590000  0.33800000  1.0 -0.1603575596
C  C195  1  0.55610000  0.10310000  0.26090000  1.0 0.1537832001
C  C196  1  0.52270000  0.10430000  0.21850000  1.0 -0.1700450599
C  C197  1  0.58530000  0.10070000  0.19200000  1.0 -0.1388675976
C  C198  1  0.62070000  0.10330000  0.17200000  1.0 -0.2394892432
C  C199  1  0.66610000  0.10470000  0.15660000  1.0 0.0767861113
C  C200  1  0.69190000  0.09210000  0.19300000  1.0 -0.070724279
C  C201  1  0.73780000  0.10620000  0.15900000  1.0 -0.070724279
C  C202  1  0.75700000  0.13220000  0.08960000  1.0 0.0161057675
C  C203  1  0.73120000  0.14480000  0.05340000  1.0 -0.070724279
C  C204  1  0.68530000  0.13070000  0.08700000  1.0 -0.070724279
C  C205  1  0.80400000  0.14220000  0.05470000  1.0 -0.0197308654
C  C206  1  0.79730000  0.10190000  0.02480000  1.0 -0.1912011251
C  C207  1  0.83781000  0.10999000  0.99710000  1.0 0.0416010015
C  C208  1  0.82860000  0.06460000  0.95410000  1.0 -0.1095967462
C  C209  1  0.87640000  0.07180000  0.98420000  1.0 0.0517550746
C  C210  1  0.86750000  0.02670000  0.99840000  1.0 -0.2157263577
C  C211  1  0.91330000  0.03870000  0.04000000  1.0 0.0301934563
C  C212  1  0.89210000  0.98330000  0.05690000  1.0 0.0742749005
C  C213  1  0.89200000  0.97580000  0.13340000  1.0 -0.1475357141
C  C214  1  0.88600000  0.93320000  0.15930000  1.0 -0.1475357141
C  C215  1  0.88000000  0.89820000  0.10870000  1.0 0.1089255374
C  C216  1  0.88010000  0.90570000  0.03230000  1.0 -0.1388675976
C  C217  1  0.88610000  0.94830000  0.00640000  1.0 -0.1603575596
C  C218  1  0.88070000  0.85810000  0.14950000  1.0 -0.0197308654
C  C219  1  0.88390000  0.83010000  0.17640000  1.0 -0.1259783402
C  C220  1  0.88720000  0.79740000  0.19960000  1.0 0.0926622571
C  C221  1  0.90170000  0.80790000  0.27500000  1.0 -0.1603575596
C  C222  1  0.90590000  0.77590000  0.31390000  1.0 -0.1475357141
C  C223  1  0.89560000  0.73320000  0.27740000  1.0 0.0301934563
C  C224  1  0.88110000  0.72250000  0.20200000  1.0 -0.1475357141
C  C225  1  0.87690000  0.75470000  0.16310000  1.0 -0.1388675976
C  C226  1  0.91110000  0.71130000  0.34090000  1.0 0.53753725
C  C227  1  0.85130000  0.09150000  0.88160000  1.0 0.0517550746
C  C228  1  0.82731000  0.07029000  0.80910000  1.0 -0.2938398391
C  C229  1  0.85080000  0.09380000  0.73300000  1.0 -0.0327594557
C  C230  1  0.82480000  0.07340000  0.66540000  1.0 0.0301934563
C  C231  1  0.82870000  0.04130000  0.62500000  1.0 -0.0876252668
C  C232  1  0.79880000  0.01520000  0.55900000  1.0 -0.0392094739
C  C233  1  0.76450000  0.02070000  0.53290000  1.0 0.0416010015
C  C234  1  0.76090000  0.05310000  0.57300000  1.0 -0.0470634543
C  C235  1  0.79080000  0.07920000  0.63900000  1.0 -0.1095967462
C  C236  1  0.74930000  0.00230000  0.45480000  1.0 -0.1700450599
C  C237  1  0.72730000  0.98750000  0.39860000  1.0 -0.070724279
C  C238  1  0.71820000  0.97800000  0.31240000  1.0 0.1384727388
C  C239  1  0.74500000  0.97260000  0.26140000  1.0 -0.1603575596
C  C240  1  0.73020000  0.96340000  0.18620000  1.0 -0.1154685587
C  C241  1  0.68880000  0.95940000  0.16190000  1.0 -0.0392094739
C  C242  1  0.66200000  0.96480000  0.21280000  1.0 -0.0990600547
C  C243  1  0.67680000  0.97400000  0.28810000  1.0 -0.1700450599
C  C244  1  0.67060000  0.93940000  0.08270000  1.0 0.514594081
C  C245  1  0.66740000  0.06460000  0.15500000  1.0 -0.0618513281
C  C246  1  0.71270000  0.07930000  0.11900000  1.0 -0.070724279
C  C247  1  0.75180000  0.16620000  0.08800000  1.0 -0.0789089074
C  C248  1  0.70790000  0.15770000  0.12300000  1.0 -0.0789089074
C  C249  1  0.79440000  0.01960000  0.64700000  1.0 -0.0470634543
C  C250  1  0.75940000  0.98860000  0.58300000  1.0 -0.0876252668
C  C251  1  0.79280000  0.07720000  0.53700000  1.0 -0.0990600547
C  C252  1  0.82430000  0.10370000  0.60000000  1.0 -0.0618513281
O  O1  1  0.91092000  0.56588000  0.43870000  1.0 -0.6583081603
O  O2  1  0.90510000  0.59110000  0.32270000  1.0 -0.5327537179
O  O3  1  0.28447000  0.08073000  0.41150000  1.0 -0.5898930103
O  O4  1  0.33000000  0.09560000  0.30850000  1.0 -0.6345739335
O  O5  1  0.06130000  0.30190000  0.03660000  1.0 -0.5727388382
O  O6  1  0.06130000  0.36390000  0.06230000  1.0 -0.5224937618
O  O7  1  0.08908000  0.43412000  0.93870000  1.0 -0.6583081603
O  O8  1  0.09490000  0.40890000  0.82270000  1.0 -0.5327537179
O  O9  1  0.71553000  0.91927000  0.91150000  1.0 -0.5898930103
O  O10  1  0.67000000  0.90440000  0.80850000  1.0 -0.6345739335
O  O11  1  0.93870000  0.69810000  0.53660000  1.0 -0.5727388382
O  O12  1  0.93870000  0.63610000  0.56230000  1.0 -0.5224937618
O  O13  1  0.56588000  0.91092000  0.93870000  1.0 -0.6583081603
O  O14  1  0.59110000  0.90510000  0.82270000  1.0 -0.5327537179
O  O15  1  0.08073000  0.28447000  0.91150000  1.0 -0.5898930103
O  O16  1  0.09560000  0.33000000  0.80850000  1.0 -0.6345739335
O  O17  1  0.30190000  0.06130000  0.53660000  1.0 -0.5727388382
O  O18  1  0.36390000  0.06130000  0.56230000  1.0 -0.5224937618
O  O19  1  0.43412000  0.08908000  0.43870000  1.0 -0.6583081603
O  O20  1  0.40890000  0.09490000  0.32270000  1.0 -0.5327537179
O  O21  1  0.91927000  0.71553000  0.41150000  1.0 -0.5898930103
O  O22  1  0.90440000  0.67000000  0.30850000  1.0 -0.6345739335
O  O23  1  0.69810000  0.93870000  0.03660000  1.0 -0.5727388382
O  O24  1  0.63610000  0.93870000  0.06230000  1.0 -0.5224937618
