# DDEC6 charges by PACMAN v1.1 (https://github.com/mtap-research/PACMAN-charge/)
data_ALIXUP_ASR_pacman
_symmetry_space_group_name_H-M   'P 1'
_cell_length_a   8.13870000
_cell_length_b   18.46090000
_cell_length_c   18.65530000
_cell_angle_alpha   90.00000000
_cell_angle_beta   90.00000000
_cell_angle_gamma   90.00000000
_symmetry_Int_Tables_number   1
_chemical_formula_structural   Cu3H10C17O10
_chemical_formula_sum   'Cu12 H40 C68 O40'
_cell_volume   2802.91641833
_cell_formula_units_Z   4
loop_
 _symmetry_equiv_pos_site_id
 _symmetry_equiv_pos_as_xyz
  1  'x, y, z'
loop_
 _atom_site_type_symbol
 _atom_site_label
 _atom_site_symmetry_multiplicity
 _atom_site_fract_x
 _atom_site_fract_y
 _atom_site_fract_z
 _atom_site_occupancy
 _atom_site_charge
Cu  Cu1  1  0.20933000  0.06924000  0.58564000  1.0 0.9451212245
Cu  Cu2  1  0.20933000  0.43076000  0.91436000  1.0 0.9451212245
Cu  Cu3  1  0.29067000  0.93076000  0.08564000  1.0 0.9451212245
Cu  Cu4  1  0.29067000  0.56924000  0.41436000  1.0 0.9443891602
Cu  Cu5  1  0.79067000  0.93076000  0.41436000  1.0 0.9443891602
Cu  Cu6  1  0.79067000  0.56924000  0.08564000  1.0 0.9451212245
Cu  Cu7  1  0.70933000  0.06924000  0.91436000  1.0 0.9451212245
Cu  Cu8  1  0.70933000  0.43076000  0.58564000  1.0 0.9443891602
Cu  Cu9  1  0.00000000  0.50000000  0.50000000  1.0 1.0621387916
Cu  Cu10  1  0.00000000  0.00000000  0.00000000  1.0 1.0621387916
Cu  Cu11  1  0.50000000  0.50000000  0.00000000  1.0 1.0621387916
Cu  Cu12  1  0.50000000  0.00000000  0.50000000  1.0 1.0621387916
H  H1  1  0.19420000  0.28960000  0.48330000  1.0 0.1395558921
H  H2  1  0.19420000  0.21040000  0.01670000  1.0 0.1395558921
H  H3  1  0.30580000  0.71040000  0.98330000  1.0 0.1395558921
H  H4  1  0.30580000  0.78960000  0.51670000  1.0 0.1395558921
H  H5  1  0.80580000  0.71040000  0.51670000  1.0 0.1395558921
H  H6  1  0.80580000  0.78960000  0.98330000  1.0 0.1395558921
H  H7  1  0.69420000  0.28960000  0.01670000  1.0 0.1395558921
H  H8  1  0.69420000  0.21040000  0.48330000  1.0 0.1395558921
H  H9  1  0.42300000  0.36960000  0.30970000  1.0 0.1395558921
H  H10  1  0.42300000  0.13040000  0.19030000  1.0 0.1395558921
H  H11  1  0.07700000  0.63040000  0.80970000  1.0 0.1395558921
H  H12  1  0.07700000  0.86960000  0.69030000  1.0 0.1395558921
H  H13  1  0.57700000  0.63040000  0.69030000  1.0 0.1395558921
H  H14  1  0.57700000  0.86960000  0.80970000  1.0 0.1395558921
H  H15  1  0.92300000  0.36960000  0.19030000  1.0 0.1395558921
H  H16  1  0.92300000  0.13040000  0.30970000  1.0 0.1395558921
H  H17  1  0.41680000  0.15540000  0.34450000  1.0 0.1306413444
H  H18  1  0.41680000  0.34460000  0.15550000  1.0 0.1306413444
H  H19  1  0.08320000  0.84460000  0.84450000  1.0 0.1306413444
H  H20  1  0.08320000  0.65540000  0.65550000  1.0 0.1306413444
H  H21  1  0.58320000  0.84460000  0.65550000  1.0 0.1306413444
H  H22  1  0.58320000  0.65540000  0.84450000  1.0 0.1306413444
H  H23  1  0.91680000  0.15540000  0.15550000  1.0 0.1306413444
H  H24  1  0.91680000  0.34460000  0.34450000  1.0 0.1306413444
H  H25  1  0.61050000  0.29190000  0.24350000  1.0 0.1306413444
H  H26  1  0.61050000  0.20810000  0.25650000  1.0 0.1306413444
H  H27  1  0.88950000  0.70810000  0.74350000  1.0 0.1306413444
H  H28  1  0.88950000  0.79190000  0.75650000  1.0 0.1306413444
H  H29  1  0.38950000  0.70810000  0.75650000  1.0 0.1306413444
H  H30  1  0.38950000  0.79190000  0.74350000  1.0 0.1306413444
H  H31  1  0.11050000  0.29190000  0.25650000  1.0 0.1306413444
H  H32  1  0.11050000  0.20810000  0.24350000  1.0 0.1306413444
H  H33  1  0.00500000  0.55400000  0.37100000  1.0 0.4234947483
H  H34  1  0.00500000  0.94600000  0.12900000  1.0 0.4234947483
H  H35  1  0.49500000  0.44600000  0.87100000  1.0 0.4234947483
H  H36  1  0.49500000  0.05400000  0.62900000  1.0 0.4234947483
H  H37  1  0.99500000  0.44600000  0.62900000  1.0 0.4234947483
H  H38  1  0.99500000  0.05400000  0.87100000  1.0 0.4234947483
H  H39  1  0.50500000  0.55400000  0.12900000  1.0 0.4234947483
H  H40  1  0.50500000  0.94600000  0.37100000  1.0 0.4234947483
C  C1  1  0.29890000  0.21280000  0.42153000  1.0 0.0018352965
C  C2  1  0.29890000  0.28720000  0.07847000  1.0 0.0018352965
C  C3  1  0.20110000  0.78720000  0.92153000  1.0 0.0018352965
C  C4  1  0.20110000  0.71280000  0.57847000  1.0 0.0018352965
C  C5  1  0.70110000  0.78720000  0.57847000  1.0 0.0018352965
C  C6  1  0.70110000  0.71280000  0.92153000  1.0 0.0018352965
C  C7  1  0.79890000  0.21280000  0.07847000  1.0 0.0018352965
C  C8  1  0.79890000  0.28720000  0.42153000  1.0 0.0018352965
C  C9  1  0.25420000  0.28220000  0.44150000  1.0 -0.1265163259
C  C10  1  0.25420000  0.21780000  0.05850000  1.0 -0.1265163259
C  C11  1  0.24580000  0.71780000  0.94150000  1.0 -0.1265163259
C  C12  1  0.24580000  0.78220000  0.55850000  1.0 -0.1265163259
C  C13  1  0.74580000  0.71780000  0.55850000  1.0 -0.1265163259
C  C14  1  0.74580000  0.78220000  0.94150000  1.0 -0.1265163259
C  C15  1  0.75420000  0.28220000  0.05850000  1.0 -0.1265163259
C  C16  1  0.75420000  0.21780000  0.44150000  1.0 -0.1265163259
C  C17  1  0.29900000  0.34100000  0.39930000  1.0 -0.015418219
C  C18  1  0.29900000  0.15900000  0.10070000  1.0 -0.015418219
C  C19  1  0.20100000  0.65900000  0.89930000  1.0 -0.015418219
C  C20  1  0.20100000  0.84100000  0.60070000  1.0 -0.015418219
C  C21  1  0.70100000  0.65900000  0.60070000  1.0 -0.015418219
C  C22  1  0.70100000  0.84100000  0.89930000  1.0 -0.015418219
C  C23  1  0.79900000  0.34100000  0.10070000  1.0 -0.015418219
C  C24  1  0.79900000  0.15900000  0.39930000  1.0 -0.015418219
C  C25  1  0.39170000  0.33010000  0.33741000  1.0 -0.1672723559
C  C26  1  0.39170000  0.16990000  0.16259000  1.0 -0.1672723559
C  C27  1  0.10830000  0.66990000  0.83741000  1.0 -0.1672723559
C  C28  1  0.10830000  0.83010000  0.66259000  1.0 -0.1672723559
C  C29  1  0.60830000  0.66990000  0.66259000  1.0 -0.1672723559
C  C30  1  0.60830000  0.83010000  0.83741000  1.0 -0.1672723559
C  C31  1  0.89170000  0.33010000  0.16259000  1.0 -0.1672723559
C  C32  1  0.89170000  0.16990000  0.33741000  1.0 -0.1672723559
C  C33  1  0.43760000  0.26060000  0.31694000  1.0 0.1395558921
C  C34  1  0.43760000  0.23940000  0.18306000  1.0 0.1395558921
C  C35  1  0.06240000  0.73940000  0.81694000  1.0 0.1395558921
C  C36  1  0.06240000  0.76060000  0.68306000  1.0 0.1395558921
C  C37  1  0.56240000  0.73940000  0.68306000  1.0 0.1395558921
C  C38  1  0.56240000  0.76060000  0.81694000  1.0 0.1395558921
C  C39  1  0.93760000  0.26060000  0.18306000  1.0 0.1395558921
C  C40  1  0.93760000  0.23940000  0.31694000  1.0 0.1395558921
C  C41  1  0.38910000  0.20210000  0.35860000  1.0 -0.1672723559
C  C42  1  0.38910000  0.29790000  0.14140000  1.0 -0.1672723559
C  C43  1  0.11090000  0.79790000  0.85860000  1.0 -0.1672723559
C  C44  1  0.11090000  0.70210000  0.64140000  1.0 -0.1672723559
C  C45  1  0.61090000  0.79790000  0.64140000  1.0 -0.1672723559
C  C46  1  0.61090000  0.70210000  0.85860000  1.0 -0.1672723559
C  C47  1  0.88910000  0.20210000  0.14140000  1.0 -0.1672723559
C  C48  1  0.88910000  0.29790000  0.35860000  1.0 -0.1672723559
C  C49  1  0.54020000  0.25000000  0.25000000  1.0 -0.3292544527
C  C50  1  0.95980000  0.75000000  0.75000000  1.0 -0.3292544527
C  C51  1  0.45980000  0.75000000  0.75000000  1.0 -0.3292544527
C  C52  1  0.04020000  0.25000000  0.25000000  1.0 -0.3292544527
C  C53  1  0.25440000  0.14960000  0.46800000  1.0 0.5711206751
C  C54  1  0.25440000  0.35040000  0.03200000  1.0 0.5711206751
C  C55  1  0.24560000  0.85040000  0.96800000  1.0 0.5711206751
C  C56  1  0.24560000  0.64960000  0.53200000  1.0 0.5711206751
C  C57  1  0.74560000  0.85040000  0.53200000  1.0 0.5711206751
C  C58  1  0.74560000  0.64960000  0.96800000  1.0 0.5711206751
C  C59  1  0.75440000  0.14960000  0.03200000  1.0 0.5711206751
C  C60  1  0.75440000  0.35040000  0.46800000  1.0 0.5711206751
C  C61  1  0.25020000  0.41640000  0.42020000  1.0 0.5924664693
C  C62  1  0.25020000  0.08360000  0.07980000  1.0 0.5924664693
C  C63  1  0.24980000  0.58360000  0.92020000  1.0 0.5924664693
C  C64  1  0.24980000  0.91640000  0.57980000  1.0 0.5924664693
C  C65  1  0.74980000  0.58360000  0.57980000  1.0 0.5924664693
C  C66  1  0.74980000  0.91640000  0.92020000  1.0 0.5924664693
C  C67  1  0.75020000  0.41640000  0.07980000  1.0 0.5924664693
C  C68  1  0.75020000  0.08360000  0.42020000  1.0 0.5924664693
O  O1  1  0.24750000  0.08743000  0.44293000  1.0 -0.5881155995
O  O2  1  0.24750000  0.41257000  0.05707000  1.0 -0.5881155995
O  O3  1  0.25250000  0.91257000  0.94293000  1.0 -0.5881155995
O  O4  1  0.25250000  0.58743000  0.55707000  1.0 -0.5881155995
O  O5  1  0.75250000  0.91257000  0.55707000  1.0 -0.5881155995
O  O6  1  0.75250000  0.58743000  0.94293000  1.0 -0.5881155995
O  O7  1  0.74750000  0.08743000  0.05707000  1.0 -0.5881155995
O  O8  1  0.74750000  0.41257000  0.44293000  1.0 -0.5881155995
O  O9  1  0.22730000  0.16322000  0.53457000  1.0 -0.5525564966
O  O10  1  0.22730000  0.33678000  0.96543000  1.0 -0.5525564966
O  O11  1  0.27270000  0.83678000  0.03457000  1.0 -0.5525564966
O  O12  1  0.27270000  0.66322000  0.46543000  1.0 -0.5525564966
O  O13  1  0.77270000  0.83678000  0.46543000  1.0 -0.5525564966
O  O14  1  0.77270000  0.66322000  0.03457000  1.0 -0.5525564966
O  O15  1  0.72730000  0.16322000  0.96543000  1.0 -0.5525564966
O  O16  1  0.72730000  0.33678000  0.53457000  1.0 -0.5525564966
O  O17  1  0.15130000  0.42224000  0.47229000  1.0 -0.540132918
O  O18  1  0.15130000  0.07776000  0.02771000  1.0 -0.540132918
O  O19  1  0.34870000  0.57776000  0.97229000  1.0 -0.540132918
O  O20  1  0.34870000  0.92224000  0.52771000  1.0 -0.540132918
O  O21  1  0.84870000  0.57776000  0.52771000  1.0 -0.540132918
O  O22  1  0.84870000  0.92224000  0.97229000  1.0 -0.540132918
O  O23  1  0.65130000  0.42224000  0.02771000  1.0 -0.540132918
O  O24  1  0.65130000  0.07776000  0.47229000  1.0 -0.540132918
O  O25  1  0.30780000  0.46729000  0.38477000  1.0 -0.540132918
O  O26  1  0.30780000  0.03271000  0.11523000  1.0 -0.540132918
O  O27  1  0.19220000  0.53271000  0.88477000  1.0 -0.540132918
O  O28  1  0.19220000  0.96729000  0.61523000  1.0 -0.540132918
O  O29  1  0.69220000  0.53271000  0.61523000  1.0 -0.540132918
O  O30  1  0.69220000  0.96729000  0.88477000  1.0 -0.540132918
O  O31  1  0.80780000  0.46729000  0.11523000  1.0 -0.540132918
O  O32  1  0.80780000  0.03271000  0.38477000  1.0 -0.540132918
O  O33  1  0.05330000  0.55719000  0.41685000  1.0 -0.8823665848
O  O34  1  0.05330000  0.94281000  0.08315000  1.0 -0.8823665848
O  O35  1  0.44670000  0.44281000  0.91685000  1.0 -0.8823665848
O  O36  1  0.44670000  0.05719000  0.58315000  1.0 -0.8853477878
O  O37  1  0.94670000  0.44281000  0.58315000  1.0 -0.8823665848
O  O38  1  0.94670000  0.05719000  0.91685000  1.0 -0.8823665848
O  O39  1  0.55330000  0.55719000  0.08315000  1.0 -0.8823665848
O  O40  1  0.55330000  0.94281000  0.41685000  1.0 -0.8823665848
