# DDEC6 charges by PACMAN v1.1 (https://github.com/mtap-research/PACMAN-charge/)
data_ALIXAU_FSR_pacman
_symmetry_space_group_name_H-M   'P 1'
_cell_length_a   15.75400000
_cell_length_b   15.75400000
_cell_length_c   15.75400000
_cell_angle_alpha   90.00000000
_cell_angle_beta   90.00000000
_cell_angle_gamma   90.00000000
_symmetry_Int_Tables_number   1
_chemical_formula_structural   CuC8(NO)4
_chemical_formula_sum   'Cu12 C96 N48 O48'
_cell_volume   3909.96188106
_cell_formula_units_Z   12
loop_
 _symmetry_equiv_pos_site_id
 _symmetry_equiv_pos_as_xyz
  1  'x, y, z'
loop_
 _atom_site_type_symbol
 _atom_site_label
 _atom_site_symmetry_multiplicity
 _atom_site_fract_x
 _atom_site_fract_y
 _atom_site_fract_z
 _atom_site_occupancy
 _atom_site_charge
Cu  Cu1  1  0.25000000  0.50000000  0.00000000  1.0 0.7403631913
Cu  Cu2  1  0.00000000  0.25000000  0.50000000  1.0 0.7403631913
Cu  Cu3  1  0.50000000  0.00000000  0.25000000  1.0 0.7403631913
Cu  Cu4  1  0.00000000  0.75000000  0.50000000  1.0 0.7403631913
Cu  Cu5  1  0.75000000  0.50000000  0.00000000  1.0 0.7403631913
Cu  Cu6  1  0.50000000  0.00000000  0.75000000  1.0 0.7403631913
Cu  Cu7  1  0.75000000  0.00000000  0.50000000  1.0 0.7403631913
Cu  Cu8  1  0.25000000  0.00000000  0.50000000  1.0 0.7403631913
Cu  Cu9  1  0.50000000  0.75000000  0.00000000  1.0 0.7403631913
Cu  Cu10  1  0.50000000  0.25000000  0.00000000  1.0 0.7403631913
Cu  Cu11  1  0.00000000  0.50000000  0.75000000  1.0 0.7403631913
Cu  Cu12  1  0.00000000  0.50000000  0.25000000  1.0 0.7403631913
C  C1  1  0.11900000  0.52510000  0.88100000  1.0 0.2242137449
C  C2  1  0.88100000  0.11900000  0.52510000  1.0 0.2242137449
C  C3  1  0.52510000  0.88100000  0.11900000  1.0 0.2264316504
C  C4  1  0.02510000  0.61900000  0.61900000  1.0 0.2242137449
C  C5  1  0.02510000  0.38100000  0.38100000  1.0 0.2264316504
C  C6  1  0.97490000  0.61900000  0.38100000  1.0 0.2242137449
C  C7  1  0.61900000  0.38100000  0.97490000  1.0 0.2242137449
C  C8  1  0.38100000  0.38100000  0.02510000  1.0 0.2264316504
C  C9  1  0.61900000  0.61900000  0.02510000  1.0 0.2264316504
C  C10  1  0.38100000  0.02510000  0.38100000  1.0 0.2264316504
C  C11  1  0.38100000  0.97490000  0.61900000  1.0 0.2242137449
C  C12  1  0.61900000  0.02510000  0.61900000  1.0 0.2242137449
C  C13  1  0.61900000  0.97490000  0.38100000  1.0 0.2242137449
C  C14  1  0.38100000  0.61900000  0.97490000  1.0 0.2242137449
C  C15  1  0.97490000  0.38100000  0.61900000  1.0 0.2242137449
C  C16  1  0.52510000  0.11900000  0.88100000  1.0 0.2242137449
C  C17  1  0.11900000  0.88100000  0.52510000  1.0 0.2242137449
C  C18  1  0.88100000  0.52510000  0.11900000  1.0 0.2264316504
C  C19  1  0.47490000  0.88100000  0.88100000  1.0 0.2242137449
C  C20  1  0.47490000  0.11900000  0.11900000  1.0 0.2264316504
C  C21  1  0.11900000  0.11900000  0.47490000  1.0 0.2264316504
C  C22  1  0.88100000  0.88100000  0.47490000  1.0 0.2242137449
C  C23  1  0.11900000  0.47490000  0.11900000  1.0 0.2264316504
C  C24  1  0.88100000  0.47490000  0.88100000  1.0 0.2242137449
C  C25  1  0.09440000  0.69600000  0.90560000  1.0 -0.3644622756
C  C26  1  0.90560000  0.09440000  0.69600000  1.0 -0.3644622756
C  C27  1  0.69600000  0.90560000  0.09440000  1.0 -0.3644622756
C  C28  1  0.19600000  0.59440000  0.59440000  1.0 -0.3644622756
C  C29  1  0.19600000  0.40560000  0.40560000  1.0 -0.3644622756
C  C30  1  0.80400000  0.59440000  0.40560000  1.0 -0.3644622756
C  C31  1  0.59440000  0.40560000  0.80400000  1.0 -0.3644622756
C  C32  1  0.40560000  0.40560000  0.19600000  1.0 -0.3644622756
C  C33  1  0.59440000  0.59440000  0.19600000  1.0 -0.3644622756
C  C34  1  0.40560000  0.19600000  0.40560000  1.0 -0.3644622756
C  C35  1  0.40560000  0.80400000  0.59440000  1.0 -0.3644622756
C  C36  1  0.59440000  0.19600000  0.59440000  1.0 -0.3644622756
C  C37  1  0.59440000  0.80400000  0.40560000  1.0 -0.3644622756
C  C38  1  0.40560000  0.59440000  0.80400000  1.0 -0.3644622756
C  C39  1  0.80400000  0.40560000  0.59440000  1.0 -0.3644622756
C  C40  1  0.69600000  0.09440000  0.90560000  1.0 -0.3644622756
C  C41  1  0.09440000  0.90560000  0.69600000  1.0 -0.3644622756
C  C42  1  0.90560000  0.69600000  0.09440000  1.0 -0.3644622756
C  C43  1  0.30400000  0.90560000  0.90560000  1.0 -0.3644622756
C  C44  1  0.30400000  0.09440000  0.09440000  1.0 -0.3644622756
C  C45  1  0.09440000  0.09440000  0.30400000  1.0 -0.3644622756
C  C46  1  0.90560000  0.90560000  0.30400000  1.0 -0.3644622756
C  C47  1  0.09440000  0.30400000  0.09440000  1.0 -0.3644622756
C  C48  1  0.90560000  0.30400000  0.90560000  1.0 -0.3644622756
C  C49  1  0.14990000  0.64610000  0.95580000  1.0 0.5394451129
C  C50  1  0.95580000  0.14990000  0.64610000  1.0 0.5394451129
C  C51  1  0.64610000  0.95580000  0.14990000  1.0 0.5394451129
C  C52  1  0.14610000  0.64990000  0.54420000  1.0 0.5394451129
C  C53  1  0.14610000  0.35010000  0.45580000  1.0 0.5394451129
C  C54  1  0.85390000  0.64990000  0.45580000  1.0 0.5394451129
C  C55  1  0.64990000  0.45580000  0.85390000  1.0 0.5394451129
C  C56  1  0.35010000  0.45580000  0.14610000  1.0 0.5394451129
C  C57  1  0.64990000  0.54420000  0.14610000  1.0 0.5394451129
C  C58  1  0.45580000  0.14610000  0.35010000  1.0 0.5394451129
C  C59  1  0.45580000  0.85390000  0.64990000  1.0 0.5394451129
C  C60  1  0.54420000  0.14610000  0.64990000  1.0 0.5394451129
C  C61  1  0.64990000  0.14610000  0.54420000  1.0 0.5394451129
C  C62  1  0.64990000  0.85390000  0.45580000  1.0 0.5394451129
C  C63  1  0.35010000  0.14610000  0.45580000  1.0 0.5394451129
C  C64  1  0.54420000  0.64990000  0.14610000  1.0 0.5394451129
C  C65  1  0.45580000  0.64990000  0.85390000  1.0 0.5394451129
C  C66  1  0.45580000  0.35010000  0.14610000  1.0 0.5394451129
C  C67  1  0.14610000  0.54420000  0.64990000  1.0 0.5394451129
C  C68  1  0.85390000  0.45580000  0.64990000  1.0 0.5394451129
C  C69  1  0.14610000  0.45580000  0.35010000  1.0 0.5394451129
C  C70  1  0.64610000  0.14990000  0.95580000  1.0 0.5394451129
C  C71  1  0.14990000  0.95580000  0.64610000  1.0 0.5394451129
C  C72  1  0.95580000  0.64610000  0.14990000  1.0 0.5394451129
C  C73  1  0.35010000  0.85390000  0.54420000  1.0 0.5394451129
C  C74  1  0.54420000  0.35010000  0.85390000  1.0 0.5394451129
C  C75  1  0.85390000  0.54420000  0.35010000  1.0 0.5394451129
C  C76  1  0.35390000  0.85010000  0.95580000  1.0 0.5394451129
C  C77  1  0.35390000  0.14990000  0.04420000  1.0 0.5394451129
C  C78  1  0.64610000  0.85010000  0.04420000  1.0 0.5394451129
C  C79  1  0.85010000  0.04420000  0.64610000  1.0 0.5394451129
C  C80  1  0.14990000  0.04420000  0.35390000  1.0 0.5394451129
C  C81  1  0.85010000  0.95580000  0.35390000  1.0 0.5394451129
C  C82  1  0.04420000  0.35390000  0.14990000  1.0 0.5394451129
C  C83  1  0.04420000  0.64610000  0.85010000  1.0 0.5394451129
C  C84  1  0.95580000  0.35390000  0.85010000  1.0 0.5394451129
C  C85  1  0.85010000  0.35390000  0.95580000  1.0 0.5394451129
C  C86  1  0.85010000  0.64610000  0.04420000  1.0 0.5394451129
C  C87  1  0.14990000  0.35390000  0.04420000  1.0 0.5394451129
C  C88  1  0.95580000  0.85010000  0.35390000  1.0 0.5394451129
C  C89  1  0.04420000  0.85010000  0.64610000  1.0 0.5394451129
C  C90  1  0.04420000  0.14990000  0.35390000  1.0 0.5394451129
C  C91  1  0.35390000  0.95580000  0.85010000  1.0 0.5394451129
C  C92  1  0.64610000  0.04420000  0.85010000  1.0 0.5394451129
C  C93  1  0.35390000  0.04420000  0.14990000  1.0 0.5394451129
C  C94  1  0.85390000  0.35010000  0.54420000  1.0 0.5394451129
C  C95  1  0.35010000  0.54420000  0.85390000  1.0 0.5394451129
C  C96  1  0.54420000  0.85390000  0.35010000  1.0 0.5394451129
N  N1  1  0.16690000  0.56920000  0.93920000  1.0 -0.3145650618
N  N2  1  0.93920000  0.16690000  0.56920000  1.0 -0.3145650618
N  N3  1  0.56920000  0.93920000  0.16690000  1.0 -0.3145650618
N  N4  1  0.06920000  0.66690000  0.56080000  1.0 -0.3163125756
N  N5  1  0.06920000  0.33310000  0.43920000  1.0 -0.3163125756
N  N6  1  0.93080000  0.66690000  0.43920000  1.0 -0.3145650618
N  N7  1  0.66690000  0.43920000  0.93080000  1.0 -0.3145650618
N  N8  1  0.33310000  0.43920000  0.06920000  1.0 -0.3163125756
N  N9  1  0.66690000  0.56080000  0.06920000  1.0 -0.3163125756
N  N10  1  0.43920000  0.06920000  0.33310000  1.0 -0.3163125756
N  N11  1  0.43920000  0.93080000  0.66690000  1.0 -0.3145650618
N  N12  1  0.56080000  0.06920000  0.66690000  1.0 -0.3163125756
N  N13  1  0.66690000  0.06920000  0.56080000  1.0 -0.3163125756
N  N14  1  0.66690000  0.93080000  0.43920000  1.0 -0.3145650618
N  N15  1  0.33310000  0.06920000  0.43920000  1.0 -0.3163125756
N  N16  1  0.56080000  0.66690000  0.06920000  1.0 -0.3163125756
N  N17  1  0.43920000  0.66690000  0.93080000  1.0 -0.3145650618
N  N18  1  0.43920000  0.33310000  0.06920000  1.0 -0.3163125756
N  N19  1  0.06920000  0.56080000  0.66690000  1.0 -0.3163125756
N  N20  1  0.93080000  0.43920000  0.66690000  1.0 -0.3145650618
N  N21  1  0.06920000  0.43920000  0.33310000  1.0 -0.3163125756
N  N22  1  0.56920000  0.16690000  0.93920000  1.0 -0.3145650618
N  N23  1  0.16690000  0.93920000  0.56920000  1.0 -0.3145650618
N  N24  1  0.93920000  0.56920000  0.16690000  1.0 -0.3145650618
N  N25  1  0.33310000  0.93080000  0.56080000  1.0 -0.3163125756
N  N26  1  0.56080000  0.33310000  0.93080000  1.0 -0.3163125756
N  N27  1  0.93080000  0.56080000  0.33310000  1.0 -0.3163125756
N  N28  1  0.43080000  0.83310000  0.93920000  1.0 -0.3163125756
N  N29  1  0.43080000  0.16690000  0.06080000  1.0 -0.3163125756
N  N30  1  0.56920000  0.83310000  0.06080000  1.0 -0.3145650618
N  N31  1  0.83310000  0.06080000  0.56920000  1.0 -0.3145650618
N  N32  1  0.16690000  0.06080000  0.43080000  1.0 -0.3163125756
N  N33  1  0.83310000  0.93920000  0.43080000  1.0 -0.3163125756
N  N34  1  0.06080000  0.43080000  0.16690000  1.0 -0.3163125756
N  N35  1  0.06080000  0.56920000  0.83310000  1.0 -0.3145650618
N  N36  1  0.93920000  0.43080000  0.83310000  1.0 -0.3163125756
N  N37  1  0.83310000  0.43080000  0.93920000  1.0 -0.3163125756
N  N38  1  0.83310000  0.56920000  0.06080000  1.0 -0.3145650618
N  N39  1  0.16690000  0.43080000  0.06080000  1.0 -0.3163125756
N  N40  1  0.93920000  0.83310000  0.43080000  1.0 -0.3163125756
N  N41  1  0.06080000  0.83310000  0.56920000  1.0 -0.3145650618
N  N42  1  0.06080000  0.16690000  0.43080000  1.0 -0.3163125756
N  N43  1  0.43080000  0.93920000  0.83310000  1.0 -0.3163125756
N  N44  1  0.56920000  0.06080000  0.83310000  1.0 -0.3145650618
N  N45  1  0.43080000  0.06080000  0.16690000  1.0 -0.3163125756
N  N46  1  0.93080000  0.33310000  0.56080000  1.0 -0.3163125756
N  N47  1  0.33310000  0.56080000  0.93080000  1.0 -0.3163125756
N  N48  1  0.56080000  0.93080000  0.33310000  1.0 -0.3163125756
O  O1  1  0.20000000  0.67100000  0.01900000  1.0 -0.3391702447
O  O2  1  0.01900000  0.20000000  0.67100000  1.0 -0.3391702447
O  O3  1  0.67100000  0.01900000  0.20000000  1.0 -0.3391702447
O  O4  1  0.17100000  0.70000000  0.48100000  1.0 -0.3391702447
O  O5  1  0.17100000  0.30000000  0.51900000  1.0 -0.3391702447
O  O6  1  0.82900000  0.70000000  0.51900000  1.0 -0.3391702447
O  O7  1  0.70000000  0.51900000  0.82900000  1.0 -0.3391702447
O  O8  1  0.30000000  0.51900000  0.17100000  1.0 -0.3391702447
O  O9  1  0.70000000  0.48100000  0.17100000  1.0 -0.3391702447
O  O10  1  0.51900000  0.17100000  0.30000000  1.0 -0.3391702447
O  O11  1  0.51900000  0.82900000  0.70000000  1.0 -0.3391702447
O  O12  1  0.48100000  0.17100000  0.70000000  1.0 -0.3391702447
O  O13  1  0.70000000  0.17100000  0.48100000  1.0 -0.3391702447
O  O14  1  0.70000000  0.82900000  0.51900000  1.0 -0.3391702447
O  O15  1  0.30000000  0.17100000  0.51900000  1.0 -0.3391702447
O  O16  1  0.48100000  0.70000000  0.17100000  1.0 -0.3391702447
O  O17  1  0.51900000  0.70000000  0.82900000  1.0 -0.3391702447
O  O18  1  0.51900000  0.30000000  0.17100000  1.0 -0.3391702447
O  O19  1  0.17100000  0.48100000  0.70000000  1.0 -0.3391702447
O  O20  1  0.82900000  0.51900000  0.70000000  1.0 -0.3391702447
O  O21  1  0.17100000  0.51900000  0.30000000  1.0 -0.3391702447
O  O22  1  0.67100000  0.20000000  0.01900000  1.0 -0.3391702447
O  O23  1  0.20000000  0.01900000  0.67100000  1.0 -0.3391702447
O  O24  1  0.01900000  0.67100000  0.20000000  1.0 -0.3391702447
O  O25  1  0.30000000  0.82900000  0.48100000  1.0 -0.3391702447
O  O26  1  0.48100000  0.30000000  0.82900000  1.0 -0.3391702447
O  O27  1  0.82900000  0.48100000  0.30000000  1.0 -0.3391702447
O  O28  1  0.32900000  0.80000000  0.01900000  1.0 -0.3391702447
O  O29  1  0.32900000  0.20000000  0.98100000  1.0 -0.3391702447
O  O30  1  0.67100000  0.80000000  0.98100000  1.0 -0.3391702447
O  O31  1  0.80000000  0.98100000  0.67100000  1.0 -0.3391702447
O  O32  1  0.20000000  0.98100000  0.32900000  1.0 -0.3391702447
O  O33  1  0.80000000  0.01900000  0.32900000  1.0 -0.3391702447
O  O34  1  0.98100000  0.32900000  0.20000000  1.0 -0.3391702447
O  O35  1  0.98100000  0.67100000  0.80000000  1.0 -0.3391702447
O  O36  1  0.01900000  0.32900000  0.80000000  1.0 -0.3391702447
O  O37  1  0.80000000  0.32900000  0.01900000  1.0 -0.3391702447
O  O38  1  0.80000000  0.67100000  0.98100000  1.0 -0.3391702447
O  O39  1  0.20000000  0.32900000  0.98100000  1.0 -0.3391702447
O  O40  1  0.01900000  0.80000000  0.32900000  1.0 -0.3391702447
O  O41  1  0.98100000  0.80000000  0.67100000  1.0 -0.3391702447
O  O42  1  0.98100000  0.20000000  0.32900000  1.0 -0.3391702447
O  O43  1  0.32900000  0.01900000  0.80000000  1.0 -0.3391702447
O  O44  1  0.67100000  0.98100000  0.80000000  1.0 -0.3391702447
O  O45  1  0.32900000  0.98100000  0.20000000  1.0 -0.3391702447
O  O46  1  0.82900000  0.30000000  0.48100000  1.0 -0.3391702447
O  O47  1  0.30000000  0.48100000  0.82900000  1.0 -0.3391702447
O  O48  1  0.48100000  0.82900000  0.30000000  1.0 -0.3391702447
