# DDEC6 charges by PACMAN v1.1 (https://github.com/mtap-research/PACMAN-charge/)
data_ALOLOD_FSR_pacman
_symmetry_space_group_name_H-M   'P 1'
_cell_length_a   27.23400000
_cell_length_b   27.23400000
_cell_length_c   32.87060000
_cell_angle_alpha   90.00000000
_cell_angle_beta   90.00000000
_cell_angle_gamma   120.00000000
_symmetry_Int_Tables_number   1
_chemical_formula_structural   InH14(C8O3)3
_chemical_formula_sum   'In18 H252 C432 O162'
_cell_volume   21113.54360187
_cell_formula_units_Z   18
loop_
 _symmetry_equiv_pos_site_id
 _symmetry_equiv_pos_as_xyz
  1  'x, y, z'
loop_
 _atom_site_type_symbol
 _atom_site_label
 _atom_site_symmetry_multiplicity
 _atom_site_fract_x
 _atom_site_fract_y
 _atom_site_fract_z
 _atom_site_occupancy
 _atom_site_charge
In  In1  1  0.94349000  0.12618000  0.44940000  1.0 1.3296846783
In  In2  1  0.81731000  0.87382000  0.94940000  1.0 1.3296846783
In  In3  1  0.84607000  0.38584000  0.37230000  1.0 1.310923709
In  In4  1  0.46023000  0.61416000  0.87230000  1.0 1.310923709
In  In5  1  0.20681000  0.48331000  0.37240000  1.0 1.310923709
In  In6  1  0.72350000  0.51669000  0.87240000  1.0 1.310923709
In  In7  1  0.18269000  0.05651000  0.44940000  1.0 1.3296846783
In  In8  1  0.05651000  0.18269000  0.94940000  1.0 1.3296846783
In  In9  1  0.53977000  0.15393000  0.37230000  1.0 1.310923709
In  In10  1  0.15393000  0.53977000  0.87230000  1.0 1.310923709
In  In11  1  0.27650000  0.79319000  0.37240000  1.0 1.310923709
In  In12  1  0.79319000  0.27650000  0.87240000  1.0 1.310923709
In  In13  1  0.87382000  0.81731000  0.44940000  1.0 1.3296846783
In  In14  1  0.12618000  0.94349000  0.94940000  1.0 1.3296846783
In  In15  1  0.61416000  0.46023000  0.37230000  1.0 1.310923709
In  In16  1  0.38584000  0.84607000  0.87230000  1.0 1.310923709
In  In17  1  0.51669000  0.72350000  0.37240000  1.0 1.310923709
In  In18  1  0.48331000  0.20681000  0.87240000  1.0 1.310923709
H  H1  1  0.24180000  0.21490000  0.41110000  1.0 0.3580526712
H  H2  1  0.02690000  0.78510000  0.91110000  1.0 0.3580526712
H  H3  1  0.11990000  0.70130000  0.34930000  1.0 0.3580526712
H  H4  1  0.41860000  0.29870000  0.84930000  1.0 0.3580526712
H  H5  1  0.63540000  0.08790000  0.40880000  1.0 0.3580526712
H  H6  1  0.54750000  0.91210000  0.90880000  1.0 0.3580526712
H  H7  1  0.80850000  0.86820000  0.80350000  1.0 0.1303362584
H  H8  1  0.94030000  0.13180000  0.30350000  1.0 0.1303362584
H  H9  1  0.83840000  0.90790000  0.73930000  1.0 0.1208790915
H  H10  1  0.93050000  0.09210000  0.23930000  1.0 0.1208790915
H  H11  1  0.94400000  0.05950000  0.78790000  1.0 0.1208790915
H  H12  1  0.88450000  0.94050000  0.28790000  1.0 0.1208790915
H  H13  1  0.91820000  0.01980000  0.85250000  1.0 0.1303362584
H  H14  1  0.89840000  0.98020000  0.35250000  1.0 0.1420474179
H  H15  1  0.94230000  0.06520000  0.72790000  1.0 0.1112679671
H  H16  1  0.87710000  0.93480000  0.22790000  1.0 0.1112679671
H  H17  1  0.89420000  0.95810000  0.68440000  1.0 0.0972464791
H  H18  1  0.93610000  0.04190000  0.18440000  1.0 0.0972464791
H  H19  1  0.89890000  0.95190000  0.61510000  1.0 0.1112679671
H  H20  1  0.94700000  0.04810000  0.11510000  1.0 0.1112679671
H  H21  1  0.91530000  0.99420000  0.55240000  1.0 0.1303362584
H  H22  1  0.92110000  0.00580000  0.05240000  1.0 0.1303362584
H  H23  1  0.95640000  0.14720000  0.59430000  1.0 0.1303362584
H  H24  1  0.80920000  0.85280000  0.09430000  1.0 0.1303362584
H  H25  1  0.95200000  0.10860000  0.65910000  1.0 0.1208790915
H  H26  1  0.84340000  0.89140000  0.15910000  1.0 0.1208790915
H  H27  1  0.14360000  0.17550000  0.42490000  1.0 0.1576727664
H  H28  1  0.96810000  0.82450000  0.92490000  1.0 0.1576727664
H  H29  1  0.09640000  0.29010000  0.40110000  1.0 0.1420474179
H  H30  1  0.80630000  0.70990000  0.90110000  1.0 0.1420474179
H  H31  1  0.25810000  0.33280000  0.38270000  1.0 0.1420474179
H  H32  1  0.92530000  0.66720000  0.88270000  1.0 0.1420474179
H  H33  1  0.15770000  0.63910000  0.34630000  1.0 0.1576727664
H  H34  1  0.51860000  0.36090000  0.84630000  1.0 0.1576727664
H  H35  1  0.03930000  0.47680000  0.36610000  1.0 0.1420474179
H  H36  1  0.56250000  0.52320000  0.86610000  1.0 0.1420474179
H  H37  1  0.99060000  0.59010000  0.34870000  1.0 0.1495367324
H  H38  1  0.40050000  0.40990000  0.84870000  1.0 0.1495367324
H  H39  1  0.33320000  0.58540000  0.76730000  1.0 0.1303362584
H  H40  1  0.74780000  0.41460000  0.26730000  1.0 0.1303362584
H  H41  1  0.30310000  0.57200000  0.69930000  1.0 0.1208790915
H  H42  1  0.73110000  0.42800000  0.19930000  1.0 0.1208790915
H  H43  1  0.46330000  0.63970000  0.65820000  1.0 0.1208790915
H  H44  1  0.82360000  0.36030000  0.15820000  1.0 0.1208790915
H  H45  1  0.49180000  0.63690000  0.72550000  1.0 0.1208790915
H  H46  1  0.85490000  0.36310000  0.22550000  1.0 0.1208790915
H  H47  1  0.40440000  0.63930000  0.61650000  1.0 0.1112679671
H  H48  1  0.76510000  0.36070000  0.11650000  1.0 0.1112679671
H  H49  1  0.29540000  0.54800000  0.62630000  1.0 0.1112679671
H  H50  1  0.74740000  0.45200000  0.12630000  1.0 0.1112679671
H  H51  1  0.23030000  0.51500000  0.58540000  1.0 0.1208790915
H  H52  1  0.71530000  0.48500000  0.08540000  1.0 0.1208790915
H  H53  1  0.19250000  0.48860000  0.52120000  1.0 0.1208790915
H  H54  1  0.70390000  0.51140000  0.02120000  1.0 0.1208790915
H  H55  1  0.34350000  0.58430000  0.46980000  1.0 0.1303362584
H  H56  1  0.75920000  0.41570000  0.96980000  1.0 0.1303362584
H  H57  1  0.38330000  0.60470000  0.53380000  1.0 0.1208790915
H  H58  1  0.77860000  0.39530000  0.03380000  1.0 0.1208790915
H  H59  1  0.69770000  0.18540000  0.39270000  1.0 0.1576727664
H  H60  1  0.51230000  0.81460000  0.89270000  1.0 0.1576727664
H  H61  1  0.86110000  0.23790000  0.42480000  1.0 0.1303362584
H  H62  1  0.62320000  0.76210000  0.92480000  1.0 0.1303362584
H  H63  1  0.73990000  0.07620000  0.44260000  1.0 0.1420474179
H  H64  1  0.66370000  0.92380000  0.94260000  1.0 0.1420474179
H  H65  1  0.71020000  0.52250000  0.72640000  1.0 0.1303362584
H  H66  1  0.18770000  0.47750000  0.22640000  1.0 0.1303362584
H  H67  1  0.71380000  0.48710000  0.65950000  1.0 0.1208790915
H  H68  1  0.22670000  0.51290000  0.15950000  1.0 0.1208790915
H  H69  1  0.78050000  0.38950000  0.71430000  1.0 0.1420474179
H  H70  1  0.39100000  0.61050000  0.21430000  1.0 0.1420474179
H  H71  1  0.77300000  0.42130000  0.77270000  1.0 0.1420474179
H  H72  1  0.35170000  0.57870000  0.27270000  1.0 0.1420474179
H  H73  1  0.79100000  0.40850000  0.63700000  1.0 0.1208790915
H  H74  1  0.38250000  0.59150000  0.13700000  1.0 0.1208790915
H  H75  1  0.72210000  0.44760000  0.61000000  1.0 0.1208790915
H  H76  1  0.27450000  0.55240000  0.11000000  1.0 0.1208790915
H  H77  1  0.72500000  0.45130000  0.53360000  1.0 0.1303362584
H  H78  1  0.27370000  0.54870000  0.03360000  1.0 0.1303362584
H  H79  1  0.74950000  0.44040000  0.46830000  1.0 0.1420474179
H  H80  1  0.30910000  0.55960000  0.96830000  1.0 0.1420474179
H  H81  1  0.84220000  0.37750000  0.51720000  1.0 0.1303362584
H  H82  1  0.46470000  0.62250000  0.01720000  1.0 0.1303362584
H  H83  1  0.82120000  0.39480000  0.58210000  1.0 0.1208790915
H  H84  1  0.42640000  0.60520000  0.08210000  1.0 0.1208790915
H  H85  1  0.97310000  0.75820000  0.41110000  1.0 0.3580526712
H  H86  1  0.75820000  0.97310000  0.91110000  1.0 0.3580526712
H  H87  1  0.58140000  0.88010000  0.34930000  1.0 0.3580526712
H  H88  1  0.88010000  0.58140000  0.84930000  1.0 0.3580526712
H  H89  1  0.45250000  0.36460000  0.40880000  1.0 0.3580526712
H  H90  1  0.36460000  0.45250000  0.90880000  1.0 0.3580526712
H  H91  1  0.05970000  0.19150000  0.80350000  1.0 0.1303362584
H  H92  1  0.19150000  0.05970000  0.30350000  1.0 0.1303362584
H  H93  1  0.06950000  0.16160000  0.73930000  1.0 0.1208790915
H  H94  1  0.16160000  0.06950000  0.23930000  1.0 0.1208790915
H  H95  1  0.11550000  0.05600000  0.78790000  1.0 0.1208790915
H  H96  1  0.05600000  0.11550000  0.28790000  1.0 0.1208790915
H  H97  1  0.10160000  0.08180000  0.85250000  1.0 0.1303362584
H  H98  1  0.08180000  0.10160000  0.35250000  1.0 0.1303362584
H  H99  1  0.12290000  0.05770000  0.72790000  1.0 0.1112679671
H  H100  1  0.05770000  0.12290000  0.22790000  1.0 0.1112679671
H  H101  1  0.06390000  0.10580000  0.68440000  1.0 0.0972464791
H  H102  1  0.10580000  0.06390000  0.18440000  1.0 0.0972464791
H  H103  1  0.05300000  0.10110000  0.61510000  1.0 0.1112679671
H  H104  1  0.10110000  0.05300000  0.11510000  1.0 0.1112679671
H  H105  1  0.07890000  0.08470000  0.55240000  1.0 0.1303362584
H  H106  1  0.08470000  0.07890000  0.05240000  1.0 0.1303362584
H  H107  1  0.19080000  0.04360000  0.59430000  1.0 0.1303362584
H  H108  1  0.04360000  0.19080000  0.09430000  1.0 0.1303362584
H  H109  1  0.15660000  0.04800000  0.65910000  1.0 0.1208790915
H  H110  1  0.04800000  0.15660000  0.15910000  1.0 0.1208790915
H  H111  1  0.03190000  0.85640000  0.42490000  1.0 0.1576727664
H  H112  1  0.85640000  0.03190000  0.92490000  1.0 0.1576727664
H  H113  1  0.19370000  0.90360000  0.40110000  1.0 0.1420474179
H  H114  1  0.90360000  0.19370000  0.90110000  1.0 0.1420474179
H  H115  1  0.07470000  0.74190000  0.38270000  1.0 0.1420474179
H  H116  1  0.74190000  0.07470000  0.88270000  1.0 0.1420474179
H  H117  1  0.48140000  0.84230000  0.34630000  1.0 0.1576727664
H  H118  1  0.84230000  0.48140000  0.84630000  1.0 0.1576727664
H  H119  1  0.43750000  0.96070000  0.36610000  1.0 0.1420474179
H  H120  1  0.96070000  0.43750000  0.86610000  1.0 0.1420474179
H  H121  1  0.59950000  0.00940000  0.34870000  1.0 0.1495367324
H  H122  1  0.00940000  0.59950000  0.84870000  1.0 0.1495367324
H  H123  1  0.25220000  0.66680000  0.76730000  1.0 0.1303362584
H  H124  1  0.66680000  0.25220000  0.26730000  1.0 0.1303362584
H  H125  1  0.26890000  0.69690000  0.69930000  1.0 0.1208790915
H  H126  1  0.69690000  0.26890000  0.19930000  1.0 0.1208790915
H  H127  1  0.17640000  0.53670000  0.65820000  1.0 0.1208790915
H  H128  1  0.53670000  0.17640000  0.15820000  1.0 0.1208790915
H  H129  1  0.14510000  0.50820000  0.72550000  1.0 0.1208790915
H  H130  1  0.50820000  0.14510000  0.22550000  1.0 0.1208790915
H  H131  1  0.23490000  0.59560000  0.61650000  1.0 0.1112679671
H  H132  1  0.59560000  0.23490000  0.11650000  1.0 0.1112679671
H  H133  1  0.25260000  0.70460000  0.62630000  1.0 0.1112679671
H  H134  1  0.70460000  0.25260000  0.12630000  1.0 0.1112679671
H  H135  1  0.28470000  0.76970000  0.58540000  1.0 0.1208790915
H  H136  1  0.76970000  0.28470000  0.08540000  1.0 0.1208790915
H  H137  1  0.29610000  0.80750000  0.52120000  1.0 0.1208790915
H  H138  1  0.80750000  0.29610000  0.02120000  1.0 0.1208790915
H  H139  1  0.24080000  0.65650000  0.46980000  1.0 0.1303362584
H  H140  1  0.65650000  0.24080000  0.96980000  1.0 0.1303362584
H  H141  1  0.22140000  0.61670000  0.53380000  1.0 0.1208790915
H  H142  1  0.61670000  0.22140000  0.03380000  1.0 0.1208790915
H  H143  1  0.48770000  0.30230000  0.39270000  1.0 0.1576727664
H  H144  1  0.30230000  0.48770000  0.89270000  1.0 0.1576727664
H  H145  1  0.37680000  0.13890000  0.42480000  1.0 0.1303362584
H  H146  1  0.13890000  0.37680000  0.92480000  1.0 0.1303362584
H  H147  1  0.33630000  0.26010000  0.44260000  1.0 0.1420474179
H  H148  1  0.26010000  0.33630000  0.94260000  1.0 0.1420474179
H  H149  1  0.81230000  0.28980000  0.72640000  1.0 0.1303362584
H  H150  1  0.28980000  0.81230000  0.22640000  1.0 0.1303362584
H  H151  1  0.77330000  0.28620000  0.65950000  1.0 0.1208790915
H  H152  1  0.28620000  0.77330000  0.15950000  1.0 0.1208790915
H  H153  1  0.60900000  0.21950000  0.71430000  1.0 0.1420474179
H  H154  1  0.21950000  0.60900000  0.21430000  1.0 0.1420474179
H  H155  1  0.64830000  0.22700000  0.77270000  1.0 0.1420474179
H  H156  1  0.22700000  0.64830000  0.27270000  1.0 0.1420474179
H  H157  1  0.61750000  0.20900000  0.63700000  1.0 0.1208790915
H  H158  1  0.20900000  0.61750000  0.13700000  1.0 0.1208790915
H  H159  1  0.72550000  0.27790000  0.61000000  1.0 0.1208790915
H  H160  1  0.27790000  0.72550000  0.11000000  1.0 0.1208790915
H  H161  1  0.72630000  0.27500000  0.53360000  1.0 0.1303362584
H  H162  1  0.27500000  0.72630000  0.03360000  1.0 0.1303362584
H  H163  1  0.69090000  0.25050000  0.46830000  1.0 0.1420474179
H  H164  1  0.25050000  0.69090000  0.96830000  1.0 0.1420474179
H  H165  1  0.53530000  0.15780000  0.51720000  1.0 0.1303362584
H  H166  1  0.15780000  0.53530000  0.01720000  1.0 0.1303362584
H  H167  1  0.57360000  0.17880000  0.58210000  1.0 0.1208790915
H  H168  1  0.17880000  0.57360000  0.08210000  1.0 0.1208790915
H  H169  1  0.78510000  0.02690000  0.41110000  1.0 0.3580526712
H  H170  1  0.21490000  0.24180000  0.91110000  1.0 0.3580526712
H  H171  1  0.29870000  0.41860000  0.34930000  1.0 0.3580526712
H  H172  1  0.70130000  0.11990000  0.84930000  1.0 0.3580526712
H  H173  1  0.91210000  0.54750000  0.40880000  1.0 0.3580526712
H  H174  1  0.08790000  0.63540000  0.90880000  1.0 0.3580526712
H  H175  1  0.13180000  0.94030000  0.80350000  1.0 0.1303362584
H  H176  1  0.86820000  0.80850000  0.30350000  1.0 0.1303362584
H  H177  1  0.09210000  0.93050000  0.73930000  1.0 0.1208790915
H  H178  1  0.90790000  0.83840000  0.23930000  1.0 0.1208790915
H  H179  1  0.94050000  0.88450000  0.78790000  1.0 0.1208790915
H  H180  1  0.05950000  0.94400000  0.28790000  1.0 0.1208790915
H  H181  1  0.98020000  0.89840000  0.85250000  1.0 0.1303362584
H  H182  1  0.01980000  0.91820000  0.35250000  1.0 0.1303362584
H  H183  1  0.93480000  0.87710000  0.72790000  1.0 0.1112679671
H  H184  1  0.06520000  0.94230000  0.22790000  1.0 0.1112679671
H  H185  1  0.04190000  0.93610000  0.68440000  1.0 0.0972464791
H  H186  1  0.95810000  0.89420000  0.18440000  1.0 0.0972464791
H  H187  1  0.04810000  0.94700000  0.61510000  1.0 0.1112679671
H  H188  1  0.95190000  0.89890000  0.11510000  1.0 0.1112679671
H  H189  1  0.00580000  0.92110000  0.55240000  1.0 0.1303362584
H  H190  1  0.99420000  0.91530000  0.05240000  1.0 0.1420474179
H  H191  1  0.85280000  0.80920000  0.59430000  1.0 0.1303362584
H  H192  1  0.14720000  0.95640000  0.09430000  1.0 0.1303362584
H  H193  1  0.89140000  0.84340000  0.65910000  1.0 0.1208790915
H  H194  1  0.10860000  0.95200000  0.15910000  1.0 0.1208790915
H  H195  1  0.82450000  0.96810000  0.42490000  1.0 0.1576727664
H  H196  1  0.17550000  0.14360000  0.92490000  1.0 0.1576727664
H  H197  1  0.70990000  0.80630000  0.40110000  1.0 0.1420474179
H  H198  1  0.29010000  0.09640000  0.90110000  1.0 0.1420474179
H  H199  1  0.66720000  0.92530000  0.38270000  1.0 0.1420474179
H  H200  1  0.33280000  0.25810000  0.88270000  1.0 0.1420474179
H  H201  1  0.36090000  0.51860000  0.34630000  1.0 0.1576727664
H  H202  1  0.63910000  0.15770000  0.84630000  1.0 0.1576727664
H  H203  1  0.52320000  0.56250000  0.36610000  1.0 0.1420474179
H  H204  1  0.47680000  0.03930000  0.86610000  1.0 0.1420474179
H  H205  1  0.40990000  0.40050000  0.34870000  1.0 0.1495367324
H  H206  1  0.59010000  0.99060000  0.84870000  1.0 0.1495367324
H  H207  1  0.41460000  0.74780000  0.76730000  1.0 0.1303362584
H  H208  1  0.58540000  0.33320000  0.26730000  1.0 0.1303362584
H  H209  1  0.42800000  0.73110000  0.69930000  1.0 0.1208790915
H  H210  1  0.57200000  0.30310000  0.19930000  1.0 0.1208790915
H  H211  1  0.36030000  0.82360000  0.65820000  1.0 0.1208790915
H  H212  1  0.63970000  0.46330000  0.15820000  1.0 0.1208790915
H  H213  1  0.36310000  0.85490000  0.72550000  1.0 0.1208790915
H  H214  1  0.63690000  0.49180000  0.22550000  1.0 0.1208790915
H  H215  1  0.36070000  0.76510000  0.61650000  1.0 0.1112679671
H  H216  1  0.63930000  0.40440000  0.11650000  1.0 0.1112679671
H  H217  1  0.45200000  0.74740000  0.62630000  1.0 0.1112679671
H  H218  1  0.54800000  0.29540000  0.12630000  1.0 0.1112679671
H  H219  1  0.48500000  0.71530000  0.58540000  1.0 0.1208790915
H  H220  1  0.51500000  0.23030000  0.08540000  1.0 0.1208790915
H  H221  1  0.51140000  0.70390000  0.52120000  1.0 0.1208790915
H  H222  1  0.48860000  0.19250000  0.02120000  1.0 0.1208790915
H  H223  1  0.41570000  0.75920000  0.46980000  1.0 0.1303362584
H  H224  1  0.58430000  0.34350000  0.96980000  1.0 0.1303362584
H  H225  1  0.39530000  0.77860000  0.53380000  1.0 0.1208790915
H  H226  1  0.60470000  0.38330000  0.03380000  1.0 0.1208790915
H  H227  1  0.81460000  0.51230000  0.39270000  1.0 0.1576727664
H  H228  1  0.18540000  0.69770000  0.89270000  1.0 0.1576727664
H  H229  1  0.76210000  0.62320000  0.42480000  1.0 0.1303362584
H  H230  1  0.23790000  0.86110000  0.92480000  1.0 0.1303362584
H  H231  1  0.92380000  0.66370000  0.44260000  1.0 0.1420474179
H  H232  1  0.07620000  0.73990000  0.94260000  1.0 0.1420474179
H  H233  1  0.47750000  0.18770000  0.72640000  1.0 0.1303362584
H  H234  1  0.52250000  0.71020000  0.22640000  1.0 0.1303362584
H  H235  1  0.51290000  0.22670000  0.65950000  1.0 0.1208790915
H  H236  1  0.48710000  0.71380000  0.15950000  1.0 0.1208790915
H  H237  1  0.61050000  0.39100000  0.71430000  1.0 0.1420474179
H  H238  1  0.38950000  0.78050000  0.21430000  1.0 0.1420474179
H  H239  1  0.57870000  0.35170000  0.77270000  1.0 0.1420474179
H  H240  1  0.42130000  0.77300000  0.27270000  1.0 0.1420474179
H  H241  1  0.59150000  0.38250000  0.63700000  1.0 0.1208790915
H  H242  1  0.40850000  0.79100000  0.13700000  1.0 0.1208790915
H  H243  1  0.55240000  0.27450000  0.61000000  1.0 0.1208790915
H  H244  1  0.44760000  0.72210000  0.11000000  1.0 0.1208790915
H  H245  1  0.54870000  0.27370000  0.53360000  1.0 0.1303362584
H  H246  1  0.45130000  0.72500000  0.03360000  1.0 0.1303362584
H  H247  1  0.55960000  0.30910000  0.46830000  1.0 0.1420474179
H  H248  1  0.44040000  0.74950000  0.96830000  1.0 0.1420474179
H  H249  1  0.62250000  0.46470000  0.51720000  1.0 0.1303362584
H  H250  1  0.37750000  0.84220000  0.01720000  1.0 0.1303362584
H  H251  1  0.60520000  0.42640000  0.58210000  1.0 0.1208790915
H  H252  1  0.39480000  0.82120000  0.08210000  1.0 0.1208790915
C  C1  1  0.84240000  0.91130000  0.87490000  1.0 0.5271516626
C  C2  1  0.93110000  0.08870000  0.37490000  1.0 0.5271516626
C  C3  1  0.86170000  0.94050000  0.83420000  1.0 -0.0094872377
C  C4  1  0.92120000  0.05950000  0.33420000  1.0 -0.0094872377
C  C5  1  0.83670000  0.90590000  0.80050000  1.0 -0.1076346277
C  C6  1  0.93080000  0.09410000  0.30050000  1.0 -0.1076346277
C  C7  1  0.85550000  0.92980000  0.76230000  1.0 -0.1478914898
C  C8  1  0.92570000  0.07020000  0.26230000  1.0 -0.1478914898
C  C9  1  0.89900000  0.98540000  0.75740000  1.0 0.1303362584
C  C10  1  0.91360000  0.01460000  0.25740000  1.0 0.1303362584
C  C11  1  0.91940000  0.02080000  0.79110000  1.0 -0.1605847608
C  C12  1  0.89860000  0.97920000  0.29110000  1.0 -0.1605847608
C  C13  1  0.90230000  0.99730000  0.82960000  1.0 -0.07102252
C  C14  1  0.90500000  0.00270000  0.32960000  1.0 -0.07102252
C  C15  1  0.92230000  0.02610000  0.72450000  1.0 -0.1998871645
C  C16  1  0.89620000  0.97390000  0.22450000  1.0 -0.1998871645
C  C17  1  0.91020000  0.99730000  0.68460000  1.0 -0.0917714822
C  C18  1  0.91290000  0.00270000  0.18460000  1.0 -0.0917714822
C  C19  1  0.92140000  0.02600000  0.64570000  1.0 0.1112679671
C  C20  1  0.89540000  0.97400000  0.14570000  1.0 0.1112679671
C  C21  1  0.91120000  0.99030000  0.61240000  1.0 -0.1325493121
C  C22  1  0.92090000  0.00970000  0.11240000  1.0 -0.1325493121
C  C23  1  0.92080000  0.01700000  0.57490000  1.0 -0.0917714822
C  C24  1  0.90380000  0.98300000  0.07490000  1.0 -0.0917714822
C  C25  1  0.93700000  0.07110000  0.56690000  1.0 -0.0094872377
C  C26  1  0.86590000  0.92890000  0.06690000  1.0 -0.0094872377
C  C27  1  0.94720000  0.10980000  0.59830000  1.0 -0.0917714822
C  C28  1  0.83740000  0.89020000  0.09830000  1.0 -0.0917714822
C  C29  1  0.94150000  0.08440000  0.63680000  1.0 -0.1478914898
C  C30  1  0.85710000  0.91560000  0.13680000  1.0 -0.1478914898
C  C31  1  0.93610000  0.09280000  0.52440000  1.0 0.5388514609
C  C32  1  0.84330000  0.90720000  0.02440000  1.0 0.5388514609
C  C33  1  0.20330000  0.25070000  0.39860000  1.0 0.3070479071
C  C34  1  0.95260000  0.74930000  0.89860000  1.0 0.3070479071
C  C35  1  0.15180000  0.21170000  0.41720000  1.0 -0.2184147607
C  C36  1  0.94010000  0.78830000  0.91720000  1.0 -0.2184147607
C  C37  1  0.11270000  0.23200000  0.42330000  1.0 0.033587735
C  C38  1  0.88070000  0.76800000  0.92330000  1.0 0.033587735
C  C39  1  0.12560000  0.28210000  0.40430000  1.0 -0.098471907
C  C40  1  0.84350000  0.71790000  0.90430000  1.0 -0.098471907
C  C41  1  0.17650000  0.32000000  0.38990000  1.0 -0.0187778046
C  C42  1  0.85650000  0.68000000  0.88990000  1.0 -0.0187778046
C  C43  1  0.22080000  0.30650000  0.38910000  1.0 -0.2184147607
C  C44  1  0.91430000  0.69350000  0.88910000  1.0 -0.2184147607
C  C45  1  0.18840000  0.37680000  0.37960000  1.0 0.5553173757
C  C46  1  0.81160000  0.62320000  0.87960000  1.0 0.5553173757
C  C47  1  0.05040000  0.18930000  0.43440000  1.0 0.5191819604
C  C48  1  0.86110000  0.81070000  0.93440000  1.0 0.5191819604
C  C49  1  0.07540000  0.62140000  0.34750000  1.0 0.2909878577
C  C50  1  0.45400000  0.37860000  0.84750000  1.0 0.2909878577
C  C51  1  0.12010000  0.61080000  0.35010000  1.0 -0.2184147607
C  C52  1  0.50930000  0.38920000  0.85010000  1.0 -0.2184147607
C  C53  1  0.10510000  0.55520000  0.35880000  1.0 0.0193422435
C  C54  1  0.54990000  0.44480000  0.85880000  1.0 0.0193422435
C  C55  1  0.04830000  0.51440000  0.36340000  1.0 -0.098471907
C  C56  1  0.53390000  0.48560000  0.86340000  1.0 -0.098471907
C  C57  1  0.00410000  0.52600000  0.36420000  1.0 -0.0316631423
C  C58  1  0.47810000  0.47400000  0.86420000  1.0 -0.0316631423
C  C59  1  0.01860000  0.58070000  0.35280000  1.0 -0.1929932797
C  C60  1  0.43790000  0.41930000  0.85280000  1.0 -0.1929932797
C  C61  1  0.94630000  0.48080000  0.36840000  1.0 0.5388514609
C  C62  1  0.46550000  0.51920000  0.86840000  1.0 0.5388514609
C  C63  1  0.14920000  0.53770000  0.36490000  1.0 0.5271516626
C  C64  1  0.61150000  0.46230000  0.86490000  1.0 0.5271516626
C  C65  1  0.43780000  0.62030000  0.79370000  1.0 0.5191819604
C  C66  1  0.81750000  0.37970000  0.29370000  1.0 0.5191819604
C  C67  1  0.41630000  0.61720000  0.75090000  1.0 -0.0187778046
C  C68  1  0.79910000  0.38280000  0.25090000  1.0 -0.0187778046
C  C69  1  0.35840000  0.59460000  0.74570000  1.0 -0.0917714822
C  C70  1  0.76380000  0.40540000  0.24570000  1.0 -0.0917714822
C  C71  1  0.34140000  0.58690000  0.70520000  1.0 -0.1401788805
C  C72  1  0.75450000  0.41310000  0.20520000  1.0 -0.1401788805
C  C73  1  0.37940000  0.60070000  0.67320000  1.0 0.1208790915
C  C74  1  0.77870000  0.39930000  0.17320000  1.0 0.1208790915
C  C75  1  0.43740000  0.62550000  0.67960000  1.0 -0.1788962671
C  C76  1  0.81190000  0.37450000  0.17960000  1.0 -0.1788962671
C  C77  1  0.45490000  0.62810000  0.71970000  1.0 -0.098471907
C  C78  1  0.82680000  0.37190000  0.21970000  1.0 -0.098471907
C  C79  1  0.37400000  0.60900000  0.63020000  1.0 -0.1788962671
C  C80  1  0.76500000  0.39100000  0.13020000  1.0 -0.1788962671
C  C81  1  0.32520000  0.57240000  0.60950000  1.0 -0.1478914898
C  C82  1  0.75280000  0.42760000  0.10950000  1.0 -0.1478914898
C  C83  1  0.31160000  0.56500000  0.56650000  1.0 0.1208790915
C  C84  1  0.74660000  0.43500000  0.06650000  1.0 0.1208790915
C  C85  1  0.25350000  0.52850000  0.56260000  1.0 -0.1605847608
C  C86  1  0.72500000  0.47150000  0.06260000  1.0 -0.1605847608
C  C87  1  0.23140000  0.51290000  0.52360000  1.0 -0.098471907
C  C88  1  0.71850000  0.48710000  0.02360000  1.0 -0.098471907
C  C89  1  0.26280000  0.53070000  0.48790000  1.0 -0.0356434511
C  C90  1  0.73210000  0.46930000  0.98790000  1.0 -0.0356434511
C  C91  1  0.32070000  0.56850000  0.49260000  1.0 -0.0831649194
C  C92  1  0.75220000  0.43150000  0.99260000  1.0 -0.0831649194
C  C93  1  0.34420000  0.58260000  0.53130000  1.0 -0.1401788805
C  C94  1  0.76160000  0.41740000  0.03130000  1.0 -0.1401788805
C  C95  1  0.23470000  0.51030000  0.44910000  1.0 0.4921328461
C  C96  1  0.72440000  0.48970000  0.94910000  1.0 0.4921328461
C  C97  1  0.71130000  0.12350000  0.41950000  1.0 0.2909878577
C  C98  1  0.58780000  0.87650000  0.91950000  1.0 0.2909878577
C  C99  1  0.72530000  0.17780000  0.40230000  1.0 -0.2184147607
C  C100  1  0.54750000  0.82220000  0.90230000  1.0 -0.2184147607
C  C101  1  0.78440000  0.21920000  0.40090000  1.0 0.0015486503
C  C102  1  0.56520000  0.78080000  0.90090000  1.0 0.0015486503
C  C103  1  0.82450000  0.20820000  0.42050000  1.0 -0.0917714822
C  C104  1  0.61630000  0.79180000  0.92050000  1.0 -0.0917714822
C  C105  1  0.80940000  0.15200000  0.43380000  1.0 -0.0316631423
C  C106  1  0.65740000  0.84800000  0.93380000  1.0 -0.0316631423
C  C107  1  0.75150000  0.11250000  0.43310000  1.0 -0.1998871645
C  C108  1  0.63900000  0.88750000  0.93310000  1.0 -0.1998871645
C  C109  1  0.85490000  0.14180000  0.44410000  1.0 0.5388514609
C  C110  1  0.71310000  0.85820000  0.94410000  1.0 0.5388514609
C  C111  1  0.80330000  0.27830000  0.38800000  1.0 0.5388514609
C  C112  1  0.52500000  0.72170000  0.88800000  1.0 0.5388514609
C  C113  1  0.73460000  0.49130000  0.79780000  1.0 0.4988829231
C  C114  1  0.24330000  0.50870000  0.29780000  1.0 0.4988829231
C  C115  1  0.73610000  0.47240000  0.75680000  1.0 -0.0316631423
C  C116  1  0.26370000  0.52760000  0.25680000  1.0 -0.0316631423
C  C117  1  0.72170000  0.49580000  0.72290000  1.0 -0.1076346277
C  C118  1  0.22590000  0.50420000  0.22290000  1.0 -0.1076346277
C  C119  1  0.72590000  0.47500000  0.68180000  1.0 -0.1998871645
C  C120  1  0.25090000  0.52500000  0.18180000  1.0 -0.1998871645
C  C121  1  0.74750000  0.43850000  0.67510000  1.0 0.0819010844
C  C122  1  0.30900000  0.56150000  0.17510000  1.0 0.0819010844
C  C123  1  0.76660000  0.41440000  0.71650000  1.0 -0.1401788805
C  C124  1  0.35220000  0.58560000  0.21650000  1.0 -0.1401788805
C  C125  1  0.76110000  0.43250000  0.74980000  1.0 -0.05590833
C  C126  1  0.32860000  0.56750000  0.24980000  1.0 -0.05590833
C  C127  1  0.76710000  0.42370000  0.63770000  1.0 -0.1160628313
C  C128  1  0.34340000  0.57630000  0.13770000  1.0 -0.1160628313
C  C129  1  0.74740000  0.43420000  0.60810000  1.0 -0.1160628313
C  C130  1  0.31320000  0.56580000  0.10810000  1.0 -0.1160628313
C  C131  1  0.76870000  0.42350000  0.56540000  1.0 0.1208790915
C  C132  1  0.34520000  0.57650000  0.06540000  1.0 0.1208790915
C  C133  1  0.74970000  0.43730000  0.53030000  1.0 -0.1605847608
C  C134  1  0.31240000  0.56270000  0.03030000  1.0 -0.1605847608
C  C135  1  0.76450000  0.43180000  0.49080000  1.0 -0.07102252
C  C136  1  0.33270000  0.56820000  0.99080000  1.0 -0.07102252
C  C137  1  0.80290000  0.41270000  0.48690000  1.0 0.0071696837
C  C138  1  0.39020000  0.58730000  0.98690000  1.0 0.0071696837
C  C139  1  0.82050000  0.39490000  0.52070000  1.0 -0.098471907
C  C140  1  0.42560000  0.60510000  0.02070000  1.0 -0.098471907
C  C141  1  0.80600000  0.40310000  0.55960000  1.0 -0.1658134425
C  C142  1  0.40290000  0.59690000  0.05960000  1.0 -0.1658134425
C  C143  1  0.82040000  0.40260000  0.44520000  1.0 0.5191819604
C  C144  1  0.41780000  0.59740000  0.94520000  1.0 0.5191819604
C  C145  1  0.06890000  0.15760000  0.87490000  1.0 0.5271516626
C  C146  1  0.15760000  0.06890000  0.37490000  1.0 0.5271516626
C  C147  1  0.07880000  0.13830000  0.83420000  1.0 -0.0094872377
C  C148  1  0.13830000  0.07880000  0.33420000  1.0 -0.0094872377
C  C149  1  0.06920000  0.16330000  0.80050000  1.0 -0.1076346277
C  C150  1  0.16330000  0.06920000  0.30050000  1.0 -0.1076346277
C  C151  1  0.07430000  0.14450000  0.76230000  1.0 -0.1478914898
C  C152  1  0.14450000  0.07430000  0.26230000  1.0 -0.1478914898
C  C153  1  0.08640000  0.10100000  0.75740000  1.0 0.1303362584
C  C154  1  0.10100000  0.08640000  0.25740000  1.0 0.1303362584
C  C155  1  0.10140000  0.08060000  0.79110000  1.0 -0.1605847608
C  C156  1  0.08060000  0.10140000  0.29110000  1.0 -0.1605847608
C  C157  1  0.09500000  0.09770000  0.82960000  1.0 -0.07102252
C  C158  1  0.09770000  0.09500000  0.32960000  1.0 -0.07102252
C  C159  1  0.10380000  0.07770000  0.72450000  1.0 -0.1998871645
C  C160  1  0.07770000  0.10380000  0.22450000  1.0 -0.1998871645
C  C161  1  0.08710000  0.08980000  0.68460000  1.0 -0.0917714822
C  C162  1  0.08980000  0.08710000  0.18460000  1.0 -0.0917714822
C  C163  1  0.10460000  0.07860000  0.64570000  1.0 0.1112679671
C  C164  1  0.07860000  0.10460000  0.14570000  1.0 0.1112679671
C  C165  1  0.07910000  0.08880000  0.61240000  1.0 -0.1325493121
C  C166  1  0.08880000  0.07910000  0.11240000  1.0 -0.1325493121
C  C167  1  0.09620000  0.07920000  0.57490000  1.0 -0.0917714822
C  C168  1  0.07920000  0.09620000  0.07490000  1.0 -0.0917714822
C  C169  1  0.13410000  0.06300000  0.56690000  1.0 -0.0094872377
C  C170  1  0.06300000  0.13410000  0.06690000  1.0 -0.0094872377
C  C171  1  0.16260000  0.05280000  0.59830000  1.0 -0.0917714822
C  C172  1  0.05280000  0.16260000  0.09830000  1.0 -0.0917714822
C  C173  1  0.14290000  0.05850000  0.63680000  1.0 -0.1478914898
C  C174  1  0.05850000  0.14290000  0.13680000  1.0 -0.1478914898
C  C175  1  0.15670000  0.06390000  0.52440000  1.0 0.5388514609
C  C176  1  0.06390000  0.15670000  0.02440000  1.0 0.5388514609
C  C177  1  0.04740000  0.79670000  0.39860000  1.0 0.3070479071
C  C178  1  0.79670000  0.04740000  0.89860000  1.0 0.3070479071
C  C179  1  0.05990000  0.84820000  0.41720000  1.0 -0.2184147607
C  C180  1  0.84820000  0.05990000  0.91720000  1.0 -0.2184147607
C  C181  1  0.11930000  0.88730000  0.42330000  1.0 0.033587735
C  C182  1  0.88730000  0.11930000  0.92330000  1.0 0.033587735
C  C183  1  0.15650000  0.87440000  0.40430000  1.0 -0.098471907
C  C184  1  0.87440000  0.15650000  0.90430000  1.0 -0.098471907
C  C185  1  0.14350000  0.82350000  0.38990000  1.0 -0.0187778046
C  C186  1  0.82350000  0.14350000  0.88990000  1.0 -0.0187778046
C  C187  1  0.08570000  0.77920000  0.38910000  1.0 -0.2184147607
C  C188  1  0.77920000  0.08570000  0.88910000  1.0 -0.2184147607
C  C189  1  0.18840000  0.81160000  0.37960000  1.0 0.5553173757
C  C190  1  0.81160000  0.18840000  0.87960000  1.0 0.5553173757
C  C191  1  0.13890000  0.94960000  0.43440000  1.0 0.5191819604
C  C192  1  0.94960000  0.13890000  0.93440000  1.0 0.5191819604
C  C193  1  0.54600000  0.92460000  0.34750000  1.0 0.2909878577
C  C194  1  0.92460000  0.54600000  0.84750000  1.0 0.2909878577
C  C195  1  0.49070000  0.87990000  0.35010000  1.0 -0.2184147607
C  C196  1  0.87990000  0.49070000  0.85010000  1.0 -0.2184147607
C  C197  1  0.45010000  0.89490000  0.35880000  1.0 0.0193422435
C  C198  1  0.89490000  0.45010000  0.85880000  1.0 0.0193422435
C  C199  1  0.46610000  0.95170000  0.36340000  1.0 -0.098471907
C  C200  1  0.95170000  0.46610000  0.86340000  1.0 -0.098471907
C  C201  1  0.52190000  0.99590000  0.36420000  1.0 -0.0316631423
C  C202  1  0.99590000  0.52190000  0.86420000  1.0 -0.0316631423
C  C203  1  0.56210000  0.98140000  0.35280000  1.0 -0.1929932797
C  C204  1  0.98140000  0.56210000  0.85280000  1.0 -0.1929932797
C  C205  1  0.53450000  0.05370000  0.36840000  1.0 0.5388514609
C  C206  1  0.05370000  0.53450000  0.86840000  1.0 0.5388514609
C  C207  1  0.38850000  0.85080000  0.36490000  1.0 0.5271516626
C  C208  1  0.85080000  0.38850000  0.86490000  1.0 0.5271516626
C  C209  1  0.18250000  0.56220000  0.79370000  1.0 0.5191819604
C  C210  1  0.56220000  0.18250000  0.29370000  1.0 0.5191819604
C  C211  1  0.20090000  0.58370000  0.75090000  1.0 -0.0187778046
C  C212  1  0.58370000  0.20090000  0.25090000  1.0 -0.0187778046
C  C213  1  0.23620000  0.64160000  0.74570000  1.0 -0.0917714822
C  C214  1  0.64160000  0.23620000  0.24570000  1.0 -0.0917714822
C  C215  1  0.24550000  0.65860000  0.70520000  1.0 -0.1401788805
C  C216  1  0.65860000  0.24550000  0.20520000  1.0 -0.1401788805
C  C217  1  0.22130000  0.62060000  0.67320000  1.0 0.1208790915
C  C218  1  0.62060000  0.22130000  0.17320000  1.0 0.1208790915
C  C219  1  0.18810000  0.56260000  0.67960000  1.0 -0.1788962671
C  C220  1  0.56260000  0.18810000  0.17960000  1.0 -0.1788962671
C  C221  1  0.17320000  0.54510000  0.71970000  1.0 -0.098471907
C  C222  1  0.54510000  0.17320000  0.21970000  1.0 -0.098471907
C  C223  1  0.23500000  0.62600000  0.63020000  1.0 -0.1788962671
C  C224  1  0.62600000  0.23500000  0.13020000  1.0 -0.1788962671
C  C225  1  0.24720000  0.67480000  0.60950000  1.0 -0.1478914898
C  C226  1  0.67480000  0.24720000  0.10950000  1.0 -0.1478914898
C  C227  1  0.25340000  0.68840000  0.56650000  1.0 0.1208790915
C  C228  1  0.68840000  0.25340000  0.06650000  1.0 0.1208790915
C  C229  1  0.27500000  0.74650000  0.56260000  1.0 -0.1605847608
C  C230  1  0.74650000  0.27500000  0.06260000  1.0 -0.1605847608
C  C231  1  0.28150000  0.76860000  0.52360000  1.0 -0.098471907
C  C232  1  0.76860000  0.28150000  0.02360000  1.0 -0.098471907
C  C233  1  0.26790000  0.73720000  0.48790000  1.0 -0.0356434511
C  C234  1  0.73720000  0.26790000  0.98790000  1.0 -0.0356434511
C  C235  1  0.24780000  0.67930000  0.49260000  1.0 -0.0831649194
C  C236  1  0.67930000  0.24780000  0.99260000  1.0 -0.0831649194
C  C237  1  0.23840000  0.65580000  0.53130000  1.0 -0.1401788805
C  C238  1  0.65580000  0.23840000  0.03130000  1.0 -0.1401788805
C  C239  1  0.27560000  0.76530000  0.44910000  1.0 0.4921328461
C  C240  1  0.76530000  0.27560000  0.94910000  1.0 0.4921328461
C  C241  1  0.41220000  0.28870000  0.41950000  1.0 0.2909878577
C  C242  1  0.28870000  0.41220000  0.91950000  1.0 0.2909878577
C  C243  1  0.45250000  0.27470000  0.40230000  1.0 -0.2184147607
C  C244  1  0.27470000  0.45250000  0.90230000  1.0 -0.2184147607
C  C245  1  0.43480000  0.21560000  0.40090000  1.0 0.0015486503
C  C246  1  0.21560000  0.43480000  0.90090000  1.0 0.0015486503
C  C247  1  0.38370000  0.17550000  0.42050000  1.0 -0.0917714822
C  C248  1  0.17550000  0.38370000  0.92050000  1.0 -0.0917714822
C  C249  1  0.34260000  0.19060000  0.43380000  1.0 -0.0316631423
C  C250  1  0.19060000  0.34260000  0.93380000  1.0 -0.0316631423
C  C251  1  0.36100000  0.24850000  0.43310000  1.0 -0.1998871645
C  C252  1  0.24850000  0.36100000  0.93310000  1.0 -0.1998871645
C  C253  1  0.28690000  0.14510000  0.44410000  1.0 0.5388514609
C  C254  1  0.14510000  0.28690000  0.94410000  1.0 0.5388514609
C  C255  1  0.47500000  0.19670000  0.38800000  1.0 0.5388514609
C  C256  1  0.19670000  0.47500000  0.88800000  1.0 0.5388514609
C  C257  1  0.75670000  0.26540000  0.79780000  1.0 0.4988829231
C  C258  1  0.26540000  0.75670000  0.29780000  1.0 0.4988829231
C  C259  1  0.73630000  0.26390000  0.75680000  1.0 -0.0316631423
C  C260  1  0.26390000  0.73630000  0.25680000  1.0 -0.0316631423
C  C261  1  0.77410000  0.27830000  0.72290000  1.0 -0.1076346277
C  C262  1  0.27830000  0.77410000  0.22290000  1.0 -0.1076346277
C  C263  1  0.74910000  0.27410000  0.68180000  1.0 -0.1998871645
C  C264  1  0.27410000  0.74910000  0.18180000  1.0 -0.1998871645
C  C265  1  0.69100000  0.25250000  0.67510000  1.0 0.0819010844
C  C266  1  0.25250000  0.69100000  0.17510000  1.0 0.0819010844
C  C267  1  0.64780000  0.23340000  0.71650000  1.0 -0.1401788805
C  C268  1  0.23340000  0.64780000  0.21650000  1.0 -0.1401788805
C  C269  1  0.67140000  0.23890000  0.74980000  1.0 -0.05590833
C  C270  1  0.23890000  0.67140000  0.24980000  1.0 -0.05590833
C  C271  1  0.65660000  0.23290000  0.63770000  1.0 -0.1160628313
C  C272  1  0.23290000  0.65660000  0.13770000  1.0 -0.1160628313
C  C273  1  0.68680000  0.25260000  0.60810000  1.0 -0.1160628313
C  C274  1  0.25260000  0.68680000  0.10810000  1.0 -0.1160628313
C  C275  1  0.65480000  0.23130000  0.56540000  1.0 0.1208790915
C  C276  1  0.23130000  0.65480000  0.06540000  1.0 0.1208790915
C  C277  1  0.68760000  0.25030000  0.53030000  1.0 -0.1605847608
C  C278  1  0.25030000  0.68760000  0.03030000  1.0 -0.1605847608
C  C279  1  0.66730000  0.23550000  0.49080000  1.0 -0.07102252
C  C280  1  0.23550000  0.66730000  0.99080000  1.0 -0.07102252
C  C281  1  0.60980000  0.19710000  0.48690000  1.0 0.0071696837
C  C282  1  0.19710000  0.60980000  0.98690000  1.0 0.0071696837
C  C283  1  0.57440000  0.17950000  0.52070000  1.0 -0.098471907
C  C284  1  0.17950000  0.57440000  0.02070000  1.0 -0.098471907
C  C285  1  0.59710000  0.19400000  0.55960000  1.0 -0.1658134425
C  C286  1  0.19400000  0.59710000  0.05960000  1.0 -0.1658134425
C  C287  1  0.58220000  0.17960000  0.44520000  1.0 0.5191819604
C  C288  1  0.17960000  0.58220000  0.94520000  1.0 0.5191819604
C  C289  1  0.08870000  0.93110000  0.87490000  1.0 0.5271516626
C  C290  1  0.91130000  0.84240000  0.37490000  1.0 0.5271516626
C  C291  1  0.05950000  0.92120000  0.83420000  1.0 -0.0094872377
C  C292  1  0.94050000  0.86170000  0.33420000  1.0 -0.0094872377
C  C293  1  0.09410000  0.93080000  0.80050000  1.0 -0.1076346277
C  C294  1  0.90590000  0.83670000  0.30050000  1.0 -0.1076346277
C  C295  1  0.07020000  0.92570000  0.76230000  1.0 -0.1478914898
C  C296  1  0.92980000  0.85550000  0.26230000  1.0 -0.1478914898
C  C297  1  0.01460000  0.91360000  0.75740000  1.0 0.1303362584
C  C298  1  0.98540000  0.89900000  0.25740000  1.0 0.1303362584
C  C299  1  0.97920000  0.89860000  0.79110000  1.0 -0.1605847608
C  C300  1  0.02080000  0.91940000  0.29110000  1.0 -0.1605847608
C  C301  1  0.00270000  0.90500000  0.82960000  1.0 -0.07102252
C  C302  1  0.99730000  0.90230000  0.32960000  1.0 -0.07102252
C  C303  1  0.97390000  0.89620000  0.72450000  1.0 -0.1998871645
C  C304  1  0.02610000  0.92230000  0.22450000  1.0 -0.1998871645
C  C305  1  0.00270000  0.91290000  0.68460000  1.0 -0.0917714822
C  C306  1  0.99730000  0.91020000  0.18460000  1.0 -0.0917714822
C  C307  1  0.97400000  0.89540000  0.64570000  1.0 0.1112679671
C  C308  1  0.02600000  0.92140000  0.14570000  1.0 0.1112679671
C  C309  1  0.00970000  0.92090000  0.61240000  1.0 -0.1325493121
C  C310  1  0.99030000  0.91120000  0.11240000  1.0 -0.1325493121
C  C311  1  0.98300000  0.90380000  0.57490000  1.0 -0.098471907
C  C312  1  0.01700000  0.92080000  0.07490000  1.0 -0.0917714822
C  C313  1  0.92890000  0.86590000  0.56690000  1.0 -0.0094872377
C  C314  1  0.07110000  0.93700000  0.06690000  1.0 -0.0094872377
C  C315  1  0.89020000  0.83740000  0.59830000  1.0 -0.0917714822
C  C316  1  0.10980000  0.94720000  0.09830000  1.0 -0.0917714822
C  C317  1  0.91560000  0.85710000  0.63680000  1.0 -0.1478914898
C  C318  1  0.08440000  0.94150000  0.13680000  1.0 -0.1478914898
C  C319  1  0.90720000  0.84330000  0.52440000  1.0 0.5388514609
C  C320  1  0.09280000  0.93610000  0.02440000  1.0 0.5388514609
C  C321  1  0.74930000  0.95260000  0.39860000  1.0 0.3070479071
C  C322  1  0.25070000  0.20330000  0.89860000  1.0 0.3070479071
C  C323  1  0.78830000  0.94010000  0.41720000  1.0 -0.2184147607
C  C324  1  0.21170000  0.15180000  0.91720000  1.0 -0.2184147607
C  C325  1  0.76800000  0.88070000  0.42330000  1.0 0.033587735
C  C326  1  0.23200000  0.11270000  0.92330000  1.0 0.033587735
C  C327  1  0.71790000  0.84350000  0.40430000  1.0 -0.098471907
C  C328  1  0.28210000  0.12560000  0.90430000  1.0 -0.098471907
C  C329  1  0.68000000  0.85650000  0.38990000  1.0 -0.0187778046
C  C330  1  0.32000000  0.17650000  0.88990000  1.0 -0.0187778046
C  C331  1  0.69350000  0.91430000  0.38910000  1.0 -0.2184147607
C  C332  1  0.30650000  0.22080000  0.88910000  1.0 -0.2184147607
C  C333  1  0.62320000  0.81160000  0.37960000  1.0 0.5553173757
C  C334  1  0.37680000  0.18840000  0.87960000  1.0 0.5553173757
C  C335  1  0.81070000  0.86110000  0.43440000  1.0 0.5191819604
C  C336  1  0.18930000  0.05040000  0.93440000  1.0 0.5191819604
C  C337  1  0.37860000  0.45400000  0.34750000  1.0 0.2909878577
C  C338  1  0.62140000  0.07540000  0.84750000  1.0 0.2909878577
C  C339  1  0.38920000  0.50930000  0.35010000  1.0 -0.2184147607
C  C340  1  0.61080000  0.12010000  0.85010000  1.0 -0.2184147607
C  C341  1  0.44480000  0.54990000  0.35880000  1.0 0.0193422435
C  C342  1  0.55520000  0.10510000  0.85880000  1.0 0.0193422435
C  C343  1  0.48560000  0.53390000  0.36340000  1.0 -0.098471907
C  C344  1  0.51440000  0.04830000  0.86340000  1.0 -0.098471907
C  C345  1  0.47400000  0.47810000  0.36420000  1.0 -0.0316631423
C  C346  1  0.52600000  0.00410000  0.86420000  1.0 -0.0316631423
C  C347  1  0.41930000  0.43790000  0.35280000  1.0 -0.1929932797
C  C348  1  0.58070000  0.01860000  0.85280000  1.0 -0.1929932797
C  C349  1  0.51920000  0.46550000  0.36840000  1.0 0.5388514609
C  C350  1  0.48080000  0.94630000  0.86840000  1.0 0.5388514609
C  C351  1  0.46230000  0.61150000  0.36490000  1.0 0.5271516626
C  C352  1  0.53770000  0.14920000  0.86490000  1.0 0.5271516626
C  C353  1  0.37970000  0.81750000  0.79370000  1.0 0.5191819604
C  C354  1  0.62030000  0.43780000  0.29370000  1.0 0.5191819604
C  C355  1  0.38280000  0.79910000  0.75090000  1.0 -0.0187778046
C  C356  1  0.61720000  0.41630000  0.25090000  1.0 -0.0187778046
C  C357  1  0.40540000  0.76380000  0.74570000  1.0 -0.0917714822
C  C358  1  0.59460000  0.35840000  0.24570000  1.0 -0.0917714822
C  C359  1  0.41310000  0.75450000  0.70520000  1.0 -0.1401788805
C  C360  1  0.58690000  0.34140000  0.20520000  1.0 -0.1401788805
C  C361  1  0.39930000  0.77870000  0.67320000  1.0 0.1208790915
C  C362  1  0.60070000  0.37940000  0.17320000  1.0 0.1208790915
C  C363  1  0.37450000  0.81190000  0.67960000  1.0 -0.1788962671
C  C364  1  0.62550000  0.43740000  0.17960000  1.0 -0.1788962671
C  C365  1  0.37190000  0.82680000  0.71970000  1.0 -0.098471907
C  C366  1  0.62810000  0.45490000  0.21970000  1.0 -0.098471907
C  C367  1  0.39100000  0.76500000  0.63020000  1.0 -0.1788962671
C  C368  1  0.60900000  0.37400000  0.13020000  1.0 -0.1788962671
C  C369  1  0.42760000  0.75280000  0.60950000  1.0 -0.1478914898
C  C370  1  0.57240000  0.32520000  0.10950000  1.0 -0.1478914898
C  C371  1  0.43500000  0.74660000  0.56650000  1.0 0.1208790915
C  C372  1  0.56500000  0.31160000  0.06650000  1.0 0.1208790915
C  C373  1  0.47150000  0.72500000  0.56260000  1.0 -0.1605847608
C  C374  1  0.52850000  0.25350000  0.06260000  1.0 -0.1605847608
C  C375  1  0.48710000  0.71850000  0.52360000  1.0 -0.098471907
C  C376  1  0.51290000  0.23140000  0.02360000  1.0 -0.098471907
C  C377  1  0.46930000  0.73210000  0.48790000  1.0 -0.0356434511
C  C378  1  0.53070000  0.26280000  0.98790000  1.0 -0.0356434511
C  C379  1  0.43150000  0.75220000  0.49260000  1.0 -0.0831649194
C  C380  1  0.56850000  0.32070000  0.99260000  1.0 -0.0831649194
C  C381  1  0.41740000  0.76160000  0.53130000  1.0 -0.1401788805
C  C382  1  0.58260000  0.34420000  0.03130000  1.0 -0.1401788805
C  C383  1  0.48970000  0.72440000  0.44910000  1.0 0.4921328461
C  C384  1  0.51030000  0.23470000  0.94910000  1.0 0.4921328461
C  C385  1  0.87650000  0.58780000  0.41950000  1.0 0.2909878577
C  C386  1  0.12350000  0.71130000  0.91950000  1.0 0.2909878577
C  C387  1  0.82220000  0.54750000  0.40230000  1.0 -0.2184147607
C  C388  1  0.17780000  0.72530000  0.90230000  1.0 -0.2184147607
C  C389  1  0.78080000  0.56520000  0.40090000  1.0 0.0015486503
C  C390  1  0.21920000  0.78440000  0.90090000  1.0 0.0015486503
C  C391  1  0.79180000  0.61630000  0.42050000  1.0 -0.0917714822
C  C392  1  0.20820000  0.82450000  0.92050000  1.0 -0.0917714822
C  C393  1  0.84800000  0.65740000  0.43380000  1.0 -0.0316631423
C  C394  1  0.15200000  0.80940000  0.93380000  1.0 -0.0316631423
C  C395  1  0.88750000  0.63900000  0.43310000  1.0 -0.1998871645
C  C396  1  0.11250000  0.75150000  0.93310000  1.0 -0.1998871645
C  C397  1  0.85820000  0.71310000  0.44410000  1.0 0.5388514609
C  C398  1  0.14180000  0.85490000  0.94410000  1.0 0.5388514609
C  C399  1  0.72170000  0.52500000  0.38800000  1.0 0.5388514609
C  C400  1  0.27830000  0.80330000  0.88800000  1.0 0.5388514609
C  C401  1  0.50870000  0.24330000  0.79780000  1.0 0.4988829231
C  C402  1  0.49130000  0.73460000  0.29780000  1.0 0.4988829231
C  C403  1  0.52760000  0.26370000  0.75680000  1.0 -0.0316631423
C  C404  1  0.47240000  0.73610000  0.25680000  1.0 -0.0316631423
C  C405  1  0.50420000  0.22590000  0.72290000  1.0 -0.1076346277
C  C406  1  0.49580000  0.72170000  0.22290000  1.0 -0.1076346277
C  C407  1  0.52500000  0.25090000  0.68180000  1.0 -0.1998871645
C  C408  1  0.47500000  0.72590000  0.18180000  1.0 -0.1998871645
C  C409  1  0.56150000  0.30900000  0.67510000  1.0 0.0819010844
C  C410  1  0.43850000  0.74750000  0.17510000  1.0 0.0819010844
C  C411  1  0.58560000  0.35220000  0.71650000  1.0 -0.1401788805
C  C412  1  0.41440000  0.76660000  0.21650000  1.0 -0.1401788805
C  C413  1  0.56750000  0.32860000  0.74980000  1.0 -0.05590833
C  C414  1  0.43250000  0.76110000  0.24980000  1.0 -0.05590833
C  C415  1  0.57630000  0.34340000  0.63770000  1.0 -0.1160628313
C  C416  1  0.42370000  0.76710000  0.13770000  1.0 -0.1160628313
C  C417  1  0.56580000  0.31320000  0.60810000  1.0 -0.1160628313
C  C418  1  0.43420000  0.74740000  0.10810000  1.0 -0.1160628313
C  C419  1  0.57650000  0.34520000  0.56540000  1.0 0.1208790915
C  C420  1  0.42350000  0.76870000  0.06540000  1.0 0.1208790915
C  C421  1  0.56270000  0.31240000  0.53030000  1.0 -0.1605847608
C  C422  1  0.43730000  0.74970000  0.03030000  1.0 -0.1605847608
C  C423  1  0.56820000  0.33270000  0.49080000  1.0 -0.07102252
C  C424  1  0.43180000  0.76450000  0.99080000  1.0 -0.07102252
C  C425  1  0.58730000  0.39020000  0.48690000  1.0 0.0071696837
C  C426  1  0.41270000  0.80290000  0.98690000  1.0 0.0071696837
C  C427  1  0.60510000  0.42560000  0.52070000  1.0 -0.098471907
C  C428  1  0.39490000  0.82050000  0.02070000  1.0 -0.098471907
C  C429  1  0.59690000  0.40290000  0.55960000  1.0 -0.1658134425
C  C430  1  0.40310000  0.80600000  0.05960000  1.0 -0.1658134425
C  C431  1  0.59740000  0.41780000  0.44520000  1.0 0.5191819604
C  C432  1  0.40260000  0.82040000  0.94520000  1.0 0.5191819604
O  O1  1  0.92740000  0.06080000  0.49330000  1.0 -0.5091563329
O  O2  1  0.86660000  0.93920000  0.99330000  1.0 -0.5091563329
O  O3  1  0.86760000  0.94490000  0.90690000  1.0 -0.4974736834
O  O4  1  0.92270000  0.05510000  0.40690000  1.0 -0.4974736834
O  O5  1  0.84290000  0.08700000  0.44830000  1.0 -0.6248100364
O  O6  1  0.75590000  0.91300000  0.94830000  1.0 -0.6248100364
O  O7  1  0.90300000  0.18050000  0.44830000  1.0 -0.4518491955
O  O8  1  0.72250000  0.81950000  0.94830000  1.0 -0.4518491955
O  O9  1  0.02090000  0.21040000  0.44200000  1.0 -0.468550902
O  O10  1  0.81050000  0.78960000  0.94200000  1.0 -0.468550902
O  O11  1  0.03400000  0.13900000  0.44000000  1.0 -0.4808479297
O  O12  1  0.89500000  0.86100000  0.94000000  1.0 -0.4808479297
O  O13  1  0.80810000  0.86520000  0.88310000  1.0 -0.3838444913
O  O14  1  0.94290000  0.13480000  0.38310000  1.0 -0.3838444913
O  O15  1  0.95360000  0.14260000  0.52020000  1.0 -0.4596168165
O  O16  1  0.81100000  0.85740000  0.02020000  1.0 -0.4596168165
O  O17  1  0.12920000  0.48430000  0.37230000  1.0 -0.5091563329
O  O18  1  0.64490000  0.51570000  0.87230000  1.0 -0.5091563329
O  O19  1  0.14740000  0.38700000  0.37550000  1.0 -0.5239717329
O  O20  1  0.76040000  0.61300000  0.87550000  1.0 -0.5239717329
O  O21  1  0.19940000  0.56840000  0.36820000  1.0 -0.4518491955
O  O22  1  0.63100000  0.43160000  0.86820000  1.0 -0.4518491955
O  O23  1  0.24030000  0.41800000  0.37390000  1.0 -0.574719634
O  O24  1  0.82230000  0.58200000  0.87390000  1.0 -0.574719634
O  O25  1  0.19580000  0.48440000  0.44550000  1.0 -0.2480257267
O  O26  1  0.71140000  0.51560000  0.94550000  1.0 -0.2480257267
O  O27  1  0.79590000  0.40950000  0.41620000  1.0 -0.4596168165
O  O28  1  0.38640000  0.59050000  0.91620000  1.0 -0.4596168165
O  O29  1  0.93880000  0.43070000  0.36740000  1.0 -0.4936156436
O  O30  1  0.50810000  0.56930000  0.86740000  1.0 -0.4936156436
O  O31  1  0.85500000  0.30950000  0.38150000  1.0 -0.5091563329
O  O32  1  0.54550000  0.69050000  0.88150000  1.0 -0.5091563329
O  O33  1  0.90750000  0.48900000  0.37150000  1.0 -0.4808479297
O  O34  1  0.41850000  0.51100000  0.87150000  1.0 -0.4808479297
O  O35  1  0.27490000  0.53190000  0.41650000  1.0 -0.5279068514
O  O36  1  0.74300000  0.46810000  0.91650000  1.0 -0.5279068514
O  O37  1  0.39630000  0.60200000  0.82450000  1.0 -0.4808479297
O  O38  1  0.79430000  0.39800000  0.32450000  1.0 -0.4808479297
O  O39  1  0.74640000  0.46990000  0.82840000  1.0 -0.4518491955
O  O40  1  0.27650000  0.53010000  0.32840000  1.0 -0.4518491955
O  O41  1  0.72520000  0.52520000  0.80570000  1.0 -0.3253226021
O  O42  1  0.20000000  0.47480000  0.30570000  1.0 -0.3253226021
O  O43  1  0.47690000  0.62700000  0.80850000  1.0 -0.2976821178
O  O44  1  0.84990000  0.37300000  0.30850000  1.0 -0.2976821178
O  O45  1  0.76840000  0.29620000  0.38400000  1.0 -0.5279068514
O  O46  1  0.47220000  0.70380000  0.88400000  1.0 -0.5279068514
O  O47  1  0.85920000  0.39630000  0.44240000  1.0 -0.427355487
O  O48  1  0.46290000  0.60370000  0.94240000  1.0 -0.427355487
O  O49  1  0.24560000  0.23880000  0.39430000  1.0 -0.4159172142
O  O50  1  0.00680000  0.76120000  0.89430000  1.0 -0.4159172142
O  O51  1  0.09220000  0.67910000  0.33590000  1.0 -0.468550902
O  O52  1  0.41310000  0.32090000  0.83590000  1.0 -0.468550902
O  O53  1  0.65510000  0.08320000  0.42540000  1.0 -0.427355487
O  O54  1  0.57190000  0.91680000  0.92540000  1.0 -0.427355487
O  O55  1  0.13340000  0.07260000  0.49330000  1.0 -0.5091563329
O  O56  1  0.07260000  0.13340000  0.99330000  1.0 -0.5091563329
O  O57  1  0.07730000  0.13240000  0.90690000  1.0 -0.4974736834
O  O58  1  0.13240000  0.07730000  0.40690000  1.0 -0.4974736834
O  O59  1  0.24410000  0.15710000  0.44830000  1.0 -0.6248100364
O  O60  1  0.15710000  0.24410000  0.94830000  1.0 -0.6248100364
O  O61  1  0.27750000  0.09700000  0.44830000  1.0 -0.4518491955
O  O62  1  0.09700000  0.27750000  0.94830000  1.0 -0.4518491955
O  O63  1  0.18950000  0.97910000  0.44200000  1.0 -0.468550902
O  O64  1  0.97910000  0.18950000  0.94200000  1.0 -0.468550902
O  O65  1  0.10500000  0.96600000  0.44000000  1.0 -0.4808479297
O  O66  1  0.96600000  0.10500000  0.94000000  1.0 -0.4808479297
O  O67  1  0.05710000  0.19190000  0.88310000  1.0 -0.3838444913
O  O68  1  0.19190000  0.05710000  0.38310000  1.0 -0.3838444913
O  O69  1  0.18900000  0.04640000  0.52020000  1.0 -0.4596168165
O  O70  1  0.04640000  0.18900000  0.02020000  1.0 -0.4596168165
O  O71  1  0.35510000  0.87080000  0.37230000  1.0 -0.5091563329
O  O72  1  0.87080000  0.35510000  0.87230000  1.0 -0.5091563329
O  O73  1  0.23960000  0.85260000  0.37550000  1.0 -0.5239717329
O  O74  1  0.85260000  0.23960000  0.87550000  1.0 -0.5239717329
O  O75  1  0.36900000  0.80060000  0.36820000  1.0 -0.4518491955
O  O76  1  0.80060000  0.36900000  0.86820000  1.0 -0.4518491955
O  O77  1  0.17770000  0.75970000  0.37390000  1.0 -0.574719634
O  O78  1  0.75970000  0.17770000  0.87390000  1.0 -0.574719634
O  O79  1  0.28860000  0.80420000  0.44550000  1.0 -0.2480257267
O  O80  1  0.80420000  0.28860000  0.94550000  1.0 -0.2480257267
O  O81  1  0.61360000  0.20410000  0.41620000  1.0 -0.4596168165
O  O82  1  0.20410000  0.61360000  0.91620000  1.0 -0.4596168165
O  O83  1  0.49190000  0.06120000  0.36740000  1.0 -0.4936156436
O  O84  1  0.06120000  0.49190000  0.86740000  1.0 -0.4936156436
O  O85  1  0.45450000  0.14500000  0.38150000  1.0 -0.5091563329
O  O86  1  0.14500000  0.45450000  0.88150000  1.0 -0.5091563329
O  O87  1  0.58150000  0.09250000  0.37150000  1.0 -0.4808479297
O  O88  1  0.09250000  0.58150000  0.87150000  1.0 -0.4808479297
O  O89  1  0.25700000  0.72510000  0.41650000  1.0 -0.5279068514
O  O90  1  0.72510000  0.25700000  0.91650000  1.0 -0.5279068514
O  O91  1  0.20570000  0.60370000  0.82450000  1.0 -0.4808479297
O  O92  1  0.60370000  0.20570000  0.32450000  1.0 -0.4808479297
O  O93  1  0.72350000  0.25360000  0.82840000  1.0 -0.4518491955
O  O94  1  0.25360000  0.72350000  0.32840000  1.0 -0.4518491955
O  O95  1  0.80000000  0.27480000  0.80570000  1.0 -0.3245573008
O  O96  1  0.27480000  0.80000000  0.30570000  1.0 -0.3253226021
O  O97  1  0.15010000  0.52310000  0.80850000  1.0 -0.2976821178
O  O98  1  0.52310000  0.15010000  0.30850000  1.0 -0.2976821178
O  O99  1  0.52780000  0.23160000  0.38400000  1.0 -0.5279068514
O  O100  1  0.23160000  0.52780000  0.88400000  1.0 -0.5279068514
O  O101  1  0.53710000  0.14080000  0.44240000  1.0 -0.427355487
O  O102  1  0.14080000  0.53710000  0.94240000  1.0 -0.427355487
O  O103  1  0.99320000  0.75440000  0.39430000  1.0 -0.4159172142
O  O104  1  0.75440000  0.99320000  0.89430000  1.0 -0.4159172142
O  O105  1  0.58690000  0.90780000  0.33590000  1.0 -0.468550902
O  O106  1  0.90780000  0.58690000  0.83590000  1.0 -0.468550902
O  O107  1  0.42810000  0.34490000  0.42540000  1.0 -0.427355487
O  O108  1  0.34490000  0.42810000  0.92540000  1.0 -0.427355487
O  O109  1  0.93920000  0.86660000  0.49330000  1.0 -0.5091563329
O  O110  1  0.06080000  0.92740000  0.99330000  1.0 -0.5091563329
O  O111  1  0.05510000  0.92270000  0.90690000  1.0 -0.4974736834
O  O112  1  0.94490000  0.86760000  0.40690000  1.0 -0.4974736834
O  O113  1  0.91300000  0.75590000  0.44830000  1.0 -0.6248100364
O  O114  1  0.08700000  0.84290000  0.94830000  1.0 -0.6248100364
O  O115  1  0.81950000  0.72250000  0.44830000  1.0 -0.4518491955
O  O116  1  0.18050000  0.90300000  0.94830000  1.0 -0.4518491955
O  O117  1  0.78960000  0.81050000  0.44200000  1.0 -0.468550902
O  O118  1  0.21040000  0.02090000  0.94200000  1.0 -0.468550902
O  O119  1  0.86100000  0.89500000  0.44000000  1.0 -0.4808479297
O  O120  1  0.13900000  0.03400000  0.94000000  1.0 -0.4808479297
O  O121  1  0.13480000  0.94290000  0.88310000  1.0 -0.3838444913
O  O122  1  0.86520000  0.80810000  0.38310000  1.0 -0.3838444913
O  O123  1  0.85740000  0.81100000  0.52020000  1.0 -0.4596168165
O  O124  1  0.14260000  0.95360000  0.02020000  1.0 -0.4596168165
O  O125  1  0.51570000  0.64490000  0.37230000  1.0 -0.5091563329
O  O126  1  0.48430000  0.12920000  0.87230000  1.0 -0.5091563329
O  O127  1  0.61300000  0.76040000  0.37550000  1.0 -0.5239717329
O  O128  1  0.38700000  0.14740000  0.87550000  1.0 -0.5239717329
O  O129  1  0.43160000  0.63100000  0.36820000  1.0 -0.4518491955
O  O130  1  0.56840000  0.19940000  0.86820000  1.0 -0.4518491955
O  O131  1  0.58200000  0.82230000  0.37390000  1.0 -0.574719634
O  O132  1  0.41800000  0.24030000  0.87390000  1.0 -0.574719634
O  O133  1  0.51560000  0.71140000  0.44550000  1.0 -0.2480257267
O  O134  1  0.48440000  0.19580000  0.94550000  1.0 -0.2480257267
O  O135  1  0.59050000  0.38640000  0.41620000  1.0 -0.4596168165
O  O136  1  0.40950000  0.79590000  0.91620000  1.0 -0.4596168165
O  O137  1  0.56930000  0.50810000  0.36740000  1.0 -0.4936156436
O  O138  1  0.43070000  0.93880000  0.86740000  1.0 -0.4936156436
O  O139  1  0.69050000  0.54550000  0.38150000  1.0 -0.5091563329
O  O140  1  0.30950000  0.85500000  0.88150000  1.0 -0.5091563329
O  O141  1  0.51100000  0.41850000  0.37150000  1.0 -0.4808479297
O  O142  1  0.48900000  0.90750000  0.87150000  1.0 -0.4808479297
O  O143  1  0.46810000  0.74300000  0.41650000  1.0 -0.5279068514
O  O144  1  0.53190000  0.27490000  0.91650000  1.0 -0.5279068514
O  O145  1  0.39800000  0.79430000  0.82450000  1.0 -0.4808479297
O  O146  1  0.60200000  0.39630000  0.32450000  1.0 -0.4808479297
O  O147  1  0.53010000  0.27650000  0.82840000  1.0 -0.4518491955
O  O148  1  0.46990000  0.74640000  0.32840000  1.0 -0.4518491955
O  O149  1  0.47480000  0.20000000  0.80570000  1.0 -0.3245573008
O  O150  1  0.52520000  0.72520000  0.30570000  1.0 -0.3253226021
O  O151  1  0.37300000  0.84990000  0.80850000  1.0 -0.2976821178
O  O152  1  0.62700000  0.47690000  0.30850000  1.0 -0.2976821178
O  O153  1  0.70380000  0.47220000  0.38400000  1.0 -0.5279068514
O  O154  1  0.29620000  0.76840000  0.88400000  1.0 -0.5279068514
O  O155  1  0.60370000  0.46290000  0.44240000  1.0 -0.427355487
O  O156  1  0.39630000  0.85920000  0.94240000  1.0 -0.427355487
O  O157  1  0.76120000  0.00680000  0.39430000  1.0 -0.4159172142
O  O158  1  0.23880000  0.24560000  0.89430000  1.0 -0.4159172142
O  O159  1  0.32090000  0.41310000  0.33590000  1.0 -0.468550902
O  O160  1  0.67910000  0.09220000  0.83590000  1.0 -0.468550902
O  O161  1  0.91680000  0.57190000  0.42540000  1.0 -0.427355487
O  O162  1  0.08320000  0.65510000  0.92540000  1.0 -0.427355487
