# DDEC6 charges by PACMAN v1.1 (https://github.com/mtap-research/PACMAN-charge/)
data_ALOLET_ASR_pacman
_symmetry_space_group_name_H-M   'P 1'
_cell_length_a   27.29590000
_cell_length_b   27.29590000
_cell_length_c   28.08960000
_cell_angle_alpha   90.00000000
_cell_angle_beta   90.00000000
_cell_angle_gamma   120.00000000
_symmetry_Int_Tables_number   1
_chemical_formula_structural   In5H32C66(NO6)4
_chemical_formula_sum   'In30 H192 C396 N24 O144'
_cell_volume   18124.70820158
_cell_formula_units_Z   6
loop_
 _symmetry_equiv_pos_site_id
 _symmetry_equiv_pos_as_xyz
  1  'x, y, z'
loop_
 _atom_site_type_symbol
 _atom_site_label
 _atom_site_symmetry_multiplicity
 _atom_site_fract_x
 _atom_site_fract_y
 _atom_site_fract_z
 _atom_site_occupancy
 _atom_site_charge
In  In1  1  0.72780000  0.21020000  0.57190000  1.0 0.6305596813
In  In2  1  0.21020000  0.72780000  0.07190000  1.0 0.6305596813
In  In3  1  0.45820000  0.84840000  0.57400000  1.0 0.6457539831
In  In4  1  0.84840000  0.45820000  0.07400000  1.0 0.6457539831
In  In5  1  0.81613000  0.94220000  0.47350000  1.0 1.3198386465
In  In6  1  0.94220000  0.81613000  0.97350000  1.0 1.3198386465
In  In7  1  0.72470000  0.20610000  0.55100000  1.0 0.6305596813
In  In8  1  0.20610000  0.72470000  0.05100000  1.0 0.6305596813
In  In9  1  0.84860000  0.46150000  0.05060000  1.0 0.607990626
In  In10  1  0.46150000  0.84860000  0.55060000  1.0 0.607990626
In  In11  1  0.48240000  0.27220000  0.57190000  1.0 0.6305596813
In  In12  1  0.51760000  0.78980000  0.07190000  1.0 0.6305596813
In  In13  1  0.39020000  0.54180000  0.57400000  1.0 0.6457539831
In  In14  1  0.60980000  0.15160000  0.07400000  1.0 0.6457539831
In  In15  1  0.12607000  0.18387000  0.47350000  1.0 1.3198386465
In  In16  1  0.87393000  0.05780000  0.97350000  1.0 1.3198386465
In  In17  1  0.48140000  0.27530000  0.55100000  1.0 0.6305596813
In  In18  1  0.51860000  0.79390000  0.05100000  1.0 0.6305596813
In  In19  1  0.61290000  0.15140000  0.05060000  1.0 0.607990626
In  In20  1  0.38710000  0.53850000  0.55060000  1.0 0.607990626
In  In21  1  0.78980000  0.51760000  0.57190000  1.0 0.6305596813
In  In22  1  0.27220000  0.48240000  0.07190000  1.0 0.6305596813
In  In23  1  0.15160000  0.60980000  0.57400000  1.0 0.6457539831
In  In24  1  0.54180000  0.39020000  0.07400000  1.0 0.6457539831
In  In25  1  0.05780000  0.87393000  0.47350000  1.0 1.3198386465
In  In26  1  0.18387000  0.12607000  0.97350000  1.0 1.3198386465
In  In27  1  0.79390000  0.51860000  0.55100000  1.0 0.6305596813
In  In28  1  0.27530000  0.48140000  0.05100000  1.0 0.6305596813
In  In29  1  0.53850000  0.38710000  0.05060000  1.0 0.607990626
In  In30  1  0.15140000  0.61290000  0.55060000  1.0 0.607990626
H  H1  1  0.62300000  0.86400000  0.50600000  1.0 0.1288731837
H  H2  1  0.86400000  0.62300000  0.00600000  1.0 0.1288731837
H  H3  1  0.51580000  0.70270000  0.53170000  1.0 0.1288731837
H  H4  1  0.70270000  0.51580000  0.03170000  1.0 0.1288731837
H  H5  1  0.66930000  0.75030000  0.47620000  1.0 0.1288731837
H  H6  1  0.75030000  0.66930000  0.97620000  1.0 0.1288731837
H  H7  1  0.56510000  0.04260000  0.57070000  1.0 0.1208520797
H  H8  1  0.04260000  0.56510000  0.07070000  1.0 0.1208520797
H  H9  1  0.53080000  0.15920000  0.51790000  1.0 0.1288731837
H  H10  1  0.15920000  0.53080000  0.01790000  1.0 0.1288731837
H  H11  1  0.40760000  0.00550000  0.54930000  1.0 0.1288731837
H  H12  1  0.00550000  0.40760000  0.04930000  1.0 0.1288731837
H  H13  1  0.79800000  0.08820000  0.52800000  1.0 0.1383670137
H  H14  1  0.08820000  0.79800000  0.02800000  1.0 0.1383670137
H  H15  1  0.96900000  0.15120000  0.50330000  1.0 0.1485626451
H  H16  1  0.15120000  0.96900000  0.00330000  1.0 0.1485626451
H  H17  1  0.80820000  0.93170000  0.65030000  1.0 0.1383670137
H  H18  1  0.93170000  0.80820000  0.15030000  1.0 0.1383670137
H  H19  1  0.84540000  0.93250000  0.71840000  1.0 0.1383670137
H  H20  1  0.93250000  0.84540000  0.21840000  1.0 0.1383670137
H  H21  1  0.95550000  0.89870000  0.66030000  1.0 0.1288731837
H  H22  1  0.89870000  0.95550000  0.16030000  1.0 0.1288731837
H  H23  1  0.91760000  0.90450000  0.58740000  1.0 0.1383670137
H  H24  1  0.90450000  0.91760000  0.08740000  1.0 0.1383670137
H  H25  1  0.91170000  0.95540000  0.77710000  1.0 0.1208520797
H  H26  1  0.95540000  0.91170000  0.27710000  1.0 0.1208520797
H  H27  1  0.90280000  0.92080000  0.86450000  1.0 0.1763615767
H  H28  1  0.92080000  0.90280000  0.36450000  1.0 0.1763615767
H  H29  1  0.95110000  0.80940000  0.80510000  1.0 0.1485626451
H  H30  1  0.80940000  0.95110000  0.30510000  1.0 0.1485626451
H  H31  1  0.92710000  0.83070000  0.72270000  1.0 0.1288731837
H  H32  1  0.83070000  0.92710000  0.22270000  1.0 0.1288731837
H  H33  1  0.85380000  0.45690000  0.87670000  1.0 0.1288731837
H  H34  1  0.45690000  0.85380000  0.37670000  1.0 0.1288731837
H  H35  1  0.82210000  0.41540000  0.80250000  1.0 0.1000575979
H  H36  1  0.41540000  0.82210000  0.30250000  1.0 0.1000575979
H  H37  1  0.72850000  0.27350000  0.87850000  1.0 0.1288731837
H  H38  1  0.27350000  0.72850000  0.37850000  1.0 0.1288731837
H  H39  1  0.75260000  0.31760000  0.95280000  1.0 0.1288731837
H  H40  1  0.31760000  0.75260000  0.45280000  1.0 0.1288731837
H  H41  1  0.78700000  0.38920000  0.75380000  1.0 0.1000575979
H  H42  1  0.38920000  0.78700000  0.25380000  1.0 0.1000575979
H  H43  1  0.77200000  0.35460000  0.67770000  1.0 0.1288731837
H  H44  1  0.35460000  0.77200000  0.17770000  1.0 0.1288731837
H  H45  1  0.71410000  0.20390000  0.73210000  1.0 0.1208520797
H  H46  1  0.20390000  0.71410000  0.23210000  1.0 0.1208520797
H  H47  1  0.73210000  0.23350000  0.80950000  1.0 0.1208520797
H  H48  1  0.23350000  0.73210000  0.30950000  1.0 0.1208520797
H  H49  1  0.73790000  0.32020000  0.17540000  1.0 0.1288731837
H  H50  1  0.32020000  0.73790000  0.67540000  1.0 0.1288731837
H  H51  1  0.71870000  0.28390000  0.25350000  1.0 0.1208520797
H  H52  1  0.28390000  0.71870000  0.75350000  1.0 0.1208520797
H  H53  1  0.83520000  0.43250000  0.30790000  1.0 0.1288731837
H  H54  1  0.43250000  0.83520000  0.80790000  1.0 0.1288731837
H  H55  1  0.85620000  0.47260000  0.23110000  1.0 0.1208520797
H  H56  1  0.47260000  0.85620000  0.73110000  1.0 0.1208520797
H  H57  1  0.73550000  0.24870000  0.31760000  1.0 0.1288731837
H  H58  1  0.24870000  0.73550000  0.81760000  1.0 0.1288731837
H  H59  1  0.73380000  0.21170000  0.39130000  1.0 0.1208520797
H  H60  1  0.21170000  0.73380000  0.89130000  1.0 0.1208520797
H  H61  1  0.77030000  0.35850000  0.45390000  1.0 0.1288731837
H  H62  1  0.35850000  0.77030000  0.95390000  1.0 0.1288731837
H  H63  1  0.75410000  0.38470000  0.38020000  1.0 0.1288731837
H  H64  1  0.38470000  0.75410000  0.88020000  1.0 0.1288731837
H  H65  1  0.24100000  0.37700000  0.50600000  1.0 0.1288731837
H  H66  1  0.75900000  0.13600000  0.00600000  1.0 0.1288731837
H  H67  1  0.18690000  0.48420000  0.53170000  1.0 0.1288731837
H  H68  1  0.81310000  0.29730000  0.03170000  1.0 0.1288731837
H  H69  1  0.08100000  0.33070000  0.47620000  1.0 0.1288731837
H  H70  1  0.91900000  0.24970000  0.97620000  1.0 0.1288731837
H  H71  1  0.47750000  0.43490000  0.57070000  1.0 0.1208520797
H  H72  1  0.52250000  0.95740000  0.07070000  1.0 0.1208520797
H  H73  1  0.62840000  0.46920000  0.51790000  1.0 0.1288731837
H  H74  1  0.37160000  0.84080000  0.01790000  1.0 0.1288731837
H  H75  1  0.59790000  0.59240000  0.54930000  1.0 0.1288731837
H  H76  1  0.40210000  0.99450000  0.04930000  1.0 0.1288731837
H  H77  1  0.29020000  0.20200000  0.52800000  1.0 0.1383670137
H  H78  1  0.70980000  0.91180000  0.02800000  1.0 0.1383670137
H  H79  1  0.18220000  0.03100000  0.50330000  1.0 0.1485626451
H  H80  1  0.81780000  0.84880000  0.00330000  1.0 0.1485626451
H  H81  1  0.12350000  0.19180000  0.65030000  1.0 0.1383670137
H  H82  1  0.87650000  0.06830000  0.15030000  1.0 0.1383670137
H  H83  1  0.08710000  0.15460000  0.71840000  1.0 0.1383670137
H  H84  1  0.91290000  0.06750000  0.21840000  1.0 0.1383670137
H  H85  1  0.94320000  0.04450000  0.66030000  1.0 0.1288731837
H  H86  1  0.05680000  0.10130000  0.16030000  1.0 0.1288731837
H  H87  1  0.98690000  0.08240000  0.58740000  1.0 0.1383670137
H  H88  1  0.01310000  0.09550000  0.08740000  1.0 0.1383670137
H  H89  1  0.04370000  0.08830000  0.77710000  1.0 0.1208520797
H  H90  1  0.95630000  0.04460000  0.27710000  1.0 0.1208520797
H  H91  1  0.01800000  0.09720000  0.86450000  1.0 0.1763615767
H  H92  1  0.98200000  0.07920000  0.36450000  1.0 0.1763615767
H  H93  1  0.85830000  0.04890000  0.80510000  1.0 0.1485626451
H  H94  1  0.14170000  0.19060000  0.30510000  1.0 0.1485626451
H  H95  1  0.90360000  0.07290000  0.72270000  1.0 0.1288731837
H  H96  1  0.09640000  0.16930000  0.22270000  1.0 0.1288731837
H  H97  1  0.60310000  0.14620000  0.87670000  1.0 0.1288731837
H  H98  1  0.39690000  0.54310000  0.37670000  1.0 0.1288731837
H  H99  1  0.59330000  0.17790000  0.80250000  1.0 0.1000575979
H  H100  1  0.40670000  0.58460000  0.30250000  1.0 0.1000575979
H  H101  1  0.54500000  0.27150000  0.87850000  1.0 0.1288731837
H  H102  1  0.45500000  0.72650000  0.37850000  1.0 0.1288731837
H  H103  1  0.56500000  0.24740000  0.95280000  1.0 0.1288731837
H  H104  1  0.43500000  0.68240000  0.45280000  1.0 0.1288731837
H  H105  1  0.60220000  0.21300000  0.75380000  1.0 0.1000575979
H  H106  1  0.39780000  0.61080000  0.25380000  1.0 0.1000575979
H  H107  1  0.58260000  0.22800000  0.67770000  1.0 0.1288731837
H  H108  1  0.41740000  0.64540000  0.17770000  1.0 0.1288731837
H  H109  1  0.48980000  0.28590000  0.73210000  1.0 0.1208520797
H  H110  1  0.51020000  0.79610000  0.23210000  1.0 0.1208520797
H  H111  1  0.50140000  0.26790000  0.80950000  1.0 0.1208520797
H  H112  1  0.49860000  0.76650000  0.30950000  1.0 0.1208520797
H  H113  1  0.58230000  0.26210000  0.17540000  1.0 0.1288731837
H  H114  1  0.41770000  0.67980000  0.67540000  1.0 0.1288731837
H  H115  1  0.56520000  0.28130000  0.25350000  1.0 0.1208520797
H  H116  1  0.43480000  0.71610000  0.75350000  1.0 0.1208520797
H  H117  1  0.59730000  0.16480000  0.30790000  1.0 0.1288731837
H  H118  1  0.40270000  0.56750000  0.80790000  1.0 0.1288731837
H  H119  1  0.61640000  0.14380000  0.23110000  1.0 0.1208520797
H  H120  1  0.38360000  0.52740000  0.73110000  1.0 0.1208520797
H  H121  1  0.51320000  0.26450000  0.31760000  1.0 0.1288731837
H  H122  1  0.48680000  0.75130000  0.81760000  1.0 0.1288731837
H  H123  1  0.47790000  0.26620000  0.39130000  1.0 0.1208520797
H  H124  1  0.52210000  0.78830000  0.89130000  1.0 0.1208520797
H  H125  1  0.58820000  0.22970000  0.45390000  1.0 0.1288731837
H  H126  1  0.41180000  0.64150000  0.95390000  1.0 0.1288731837
H  H127  1  0.63060000  0.24590000  0.38020000  1.0 0.1288731837
H  H128  1  0.36940000  0.61530000  0.88020000  1.0 0.1288731837
H  H129  1  0.13600000  0.75900000  0.50600000  1.0 0.1288731837
H  H130  1  0.37700000  0.24100000  0.00600000  1.0 0.1288731837
H  H131  1  0.29730000  0.81310000  0.53170000  1.0 0.1288731837
H  H132  1  0.48420000  0.18690000  0.03170000  1.0 0.1288731837
H  H133  1  0.24970000  0.91900000  0.47620000  1.0 0.1288731837
H  H134  1  0.33070000  0.08100000  0.97620000  1.0 0.1288731837
H  H135  1  0.95740000  0.52250000  0.57070000  1.0 0.1208520797
H  H136  1  0.43490000  0.47750000  0.07070000  1.0 0.1208520797
H  H137  1  0.84080000  0.37160000  0.51790000  1.0 0.1288731837
H  H138  1  0.46920000  0.62840000  0.01790000  1.0 0.1288731837
H  H139  1  0.99450000  0.40210000  0.54930000  1.0 0.1288731837
H  H140  1  0.59240000  0.59790000  0.04930000  1.0 0.1288731837
H  H141  1  0.91180000  0.70980000  0.52800000  1.0 0.1383670137
H  H142  1  0.20200000  0.29020000  0.02800000  1.0 0.1383670137
H  H143  1  0.84880000  0.81780000  0.50330000  1.0 0.1485626451
H  H144  1  0.03100000  0.18220000  0.00330000  1.0 0.1485626451
H  H145  1  0.06830000  0.87650000  0.65030000  1.0 0.1383670137
H  H146  1  0.19180000  0.12350000  0.15030000  1.0 0.1383670137
H  H147  1  0.06750000  0.91290000  0.71840000  1.0 0.1383670137
H  H148  1  0.15460000  0.08710000  0.21840000  1.0 0.1383670137
H  H149  1  0.10130000  0.05680000  0.66030000  1.0 0.1288731837
H  H150  1  0.04450000  0.94320000  0.16030000  1.0 0.1288731837
H  H151  1  0.09550000  0.01310000  0.58740000  1.0 0.1383670137
H  H152  1  0.08240000  0.98690000  0.08740000  1.0 0.1383670137
H  H153  1  0.04460000  0.95630000  0.77710000  1.0 0.1208520797
H  H154  1  0.08830000  0.04370000  0.27710000  1.0 0.1208520797
H  H155  1  0.07920000  0.98200000  0.86450000  1.0 0.1763615767
H  H156  1  0.09720000  0.01800000  0.36450000  1.0 0.1763615767
H  H157  1  0.19060000  0.14170000  0.80510000  1.0 0.1485626451
H  H158  1  0.04890000  0.85830000  0.30510000  1.0 0.1485626451
H  H159  1  0.16930000  0.09640000  0.72270000  1.0 0.1288731837
H  H160  1  0.07290000  0.90360000  0.22270000  1.0 0.1288731837
H  H161  1  0.54310000  0.39690000  0.87670000  1.0 0.1288731837
H  H162  1  0.14620000  0.60310000  0.37670000  1.0 0.1288731837
H  H163  1  0.58460000  0.40670000  0.80250000  1.0 0.1000575979
H  H164  1  0.17790000  0.59330000  0.30250000  1.0 0.1000575979
H  H165  1  0.72650000  0.45500000  0.87850000  1.0 0.1288731837
H  H166  1  0.27150000  0.54500000  0.37850000  1.0 0.1288731837
H  H167  1  0.68240000  0.43500000  0.95280000  1.0 0.1288731837
H  H168  1  0.24740000  0.56500000  0.45280000  1.0 0.1288731837
H  H169  1  0.61080000  0.39780000  0.75380000  1.0 0.1000575979
H  H170  1  0.21300000  0.60220000  0.25380000  1.0 0.1000575979
H  H171  1  0.64540000  0.41740000  0.67770000  1.0 0.1288731837
H  H172  1  0.22800000  0.58260000  0.17770000  1.0 0.1288731837
H  H173  1  0.79610000  0.51020000  0.73210000  1.0 0.1208520797
H  H174  1  0.28590000  0.48980000  0.23210000  1.0 0.1208520797
H  H175  1  0.76650000  0.49860000  0.80950000  1.0 0.1208520797
H  H176  1  0.26790000  0.50140000  0.30950000  1.0 0.1208520797
H  H177  1  0.67980000  0.41770000  0.17540000  1.0 0.1288731837
H  H178  1  0.26210000  0.58230000  0.67540000  1.0 0.1288731837
H  H179  1  0.71610000  0.43480000  0.25350000  1.0 0.1208520797
H  H180  1  0.28130000  0.56520000  0.75350000  1.0 0.1208520797
H  H181  1  0.56750000  0.40270000  0.30790000  1.0 0.1288731837
H  H182  1  0.16480000  0.59730000  0.80790000  1.0 0.1288731837
H  H183  1  0.52740000  0.38360000  0.23110000  1.0 0.1208520797
H  H184  1  0.14380000  0.61640000  0.73110000  1.0 0.1208520797
H  H185  1  0.75130000  0.48680000  0.31760000  1.0 0.1288731837
H  H186  1  0.26450000  0.51320000  0.81760000  1.0 0.1288731837
H  H187  1  0.78830000  0.52210000  0.39130000  1.0 0.1208520797
H  H188  1  0.26620000  0.47790000  0.89130000  1.0 0.1208520797
H  H189  1  0.64150000  0.41180000  0.45390000  1.0 0.1288731837
H  H190  1  0.22970000  0.58820000  0.95390000  1.0 0.1288731837
H  H191  1  0.61530000  0.36940000  0.38020000  1.0 0.1288731837
H  H192  1  0.24590000  0.63060000  0.88020000  1.0 0.1288731837
C  C1  1  0.71490000  0.85860000  0.47650000  1.0 0.5201185976
C  C2  1  0.85860000  0.71490000  0.97650000  1.0 0.5201185976
C  C3  1  0.65750000  0.81630000  0.49160000  1.0 -0.0202211312
C  C4  1  0.81630000  0.65750000  0.99160000  1.0 -0.0202211312
C  C5  1  0.61590000  0.82700000  0.50850000  1.0 -0.0691375582
C  C6  1  0.82700000  0.61590000  0.00850000  1.0 -0.0691375582
C  C7  1  0.56470000  0.78770000  0.52890000  1.0 -0.0804062035
C  C8  1  0.78770000  0.56470000  0.02890000  1.0 -0.0804062035
C  C9  1  0.52880000  0.80320000  0.55040000  1.0 0.4999677027
C  C10  1  0.80320000  0.52880000  0.05040000  1.0 0.4999677027
C  C11  1  0.55140000  0.73180000  0.52280000  1.0 -0.1300318113
C  C12  1  0.73180000  0.55140000  0.02280000  1.0 -0.1300318113
C  C13  1  0.59040000  0.71870000  0.50360000  1.0 0.2270253633
C  C14  1  0.71870000  0.59040000  0.00360000  1.0 0.2270253633
C  C15  1  0.64360000  0.76000000  0.48830000  1.0 -0.170924622
C  C16  1  0.76000000  0.64360000  0.98830000  1.0 -0.170924622
C  C17  1  0.47390000  0.95610000  0.56540000  1.0 0.4999677027
C  C18  1  0.95610000  0.47390000  0.06540000  1.0 0.4999677027
C  C19  1  0.48320000  0.00920000  0.55200000  1.0 -0.0901675434
C  C20  1  0.00920000  0.48320000  0.05200000  1.0 -0.0901675434
C  C21  1  0.53920000  0.05160000  0.55780000  1.0 -0.1026657115
C  C22  1  0.05160000  0.53920000  0.05780000  1.0 -0.1026657115
C  C23  1  0.55700000  0.10700000  0.54480000  1.0 0.0180348067
C  C24  1  0.10700000  0.55700000  0.04480000  1.0 0.0180348067
C  C25  1  0.61850000  0.14800000  0.55660000  1.0 0.3826836978
C  C26  1  0.14800000  0.61850000  0.05660000  1.0 0.3826836978
C  C27  1  0.51920000  0.12180000  0.52560000  1.0 -0.1795248206
C  C28  1  0.12180000  0.51920000  0.02560000  1.0 -0.1795248206
C  C29  1  0.46360000  0.07930000  0.51830000  1.0 0.2138100152
C  C30  1  0.07930000  0.46360000  0.01830000  1.0 0.2138100152
C  C31  1  0.44560000  0.02790000  0.54110000  1.0 -0.1406294539
C  C32  1  0.02790000  0.44560000  0.04110000  1.0 -0.1406294539
C  C33  1  0.81720000  0.19150000  0.55020000  1.0 0.3907278364
C  C34  1  0.19150000  0.81720000  0.05020000  1.0 0.3907278364
C  C35  1  0.85110000  0.17380000  0.54500000  1.0 -0.0691375582
C  C36  1  0.17380000  0.85110000  0.04500000  1.0 -0.0691375582
C  C37  1  0.83530000  0.11760000  0.52680000  1.0 -0.0515851231
C  C38  1  0.11760000  0.83530000  0.02680000  1.0 -0.0515851231
C  C39  1  0.88300000  0.10840000  0.50540000  1.0 -0.0636371246
C  C40  1  0.10840000  0.88300000  0.00540000  1.0 -0.0636371246
C  C41  1  0.87040000  0.05440000  0.49760000  1.0 0.4730216746
C  C42  1  0.05440000  0.87040000  0.99760000  1.0 0.4730216746
C  C43  1  0.93880000  0.15430000  0.51510000  1.0 -0.1300318113
C  C44  1  0.15430000  0.93880000  0.01510000  1.0 -0.1300318113
C  C45  1  0.95170000  0.20300000  0.54050000  1.0 0.1288731837
C  C46  1  0.20300000  0.95170000  0.04050000  1.0 0.1288731837
C  C47  1  0.91950000  0.22910000  0.54510000  1.0 -0.0515851231
C  C48  1  0.22910000  0.91950000  0.04510000  1.0 -0.0515851231
C  C49  1  0.84380000  0.92430000  0.56710000  1.0 0.4478956943
C  C50  1  0.92430000  0.84380000  0.06710000  1.0 0.4478956943
C  C51  1  0.86300000  0.92020000  0.61000000  1.0 -0.0417104596
C  C52  1  0.92020000  0.86300000  0.11000000  1.0 -0.0417104596
C  C53  1  0.83890000  0.92570000  0.65160000  1.0 -0.0901675434
C  C54  1  0.92570000  0.83890000  0.15160000  1.0 -0.0901675434
C  C55  1  0.85880000  0.92250000  0.69180000  1.0 -0.1406294539
C  C56  1  0.92250000  0.85880000  0.19180000  1.0 -0.1406294539
C  C57  1  0.89700000  0.90660000  0.69960000  1.0 0.0844379922
C  C58  1  0.90660000  0.89700000  0.19960000  1.0 0.0844379922
C  C59  1  0.92430000  0.90390000  0.65890000  1.0 -0.1618516374
C  C60  1  0.90390000  0.92430000  0.15890000  1.0 -0.1618516374
C  C61  1  0.90180000  0.90940000  0.61500000  1.0 -0.0691375582
C  C62  1  0.90940000  0.90180000  0.11500000  1.0 -0.0691375582
C  C63  1  0.91040000  0.89350000  0.74890000  1.0 0.0691677999
C  C64  1  0.89350000  0.91040000  0.24890000  1.0 0.0691677999
C  C65  1  0.91140000  0.92180000  0.78360000  1.0 -0.1300318113
C  C66  1  0.92180000  0.91140000  0.28360000  1.0 -0.1300318113
C  C67  1  0.91250000  0.90670000  0.83820000  1.0 -0.0901675434
C  C68  1  0.90670000  0.91250000  0.33820000  1.0 -0.0901675434
C  C69  1  0.93320000  0.86400000  0.83760000  1.0 0.0180348067
C  C70  1  0.86400000  0.93320000  0.33760000  1.0 0.0180348067
C  C71  1  0.93930000  0.83570000  0.80050000  1.0 -0.1127536324
C  C72  1  0.83570000  0.93930000  0.30050000  1.0 -0.1127536324
C  C73  1  0.92560000  0.84920000  0.75000000  1.0 -0.1198260861
C  C74  1  0.84920000  0.92560000  0.25000000  1.0 -0.1198260861
C  C75  1  0.93680000  0.84720000  0.88870000  1.0 0.5201185976
C  C76  1  0.84720000  0.93680000  0.38870000  1.0 0.5201185976
C  C77  1  0.82210000  0.41320000  0.96690000  1.0 0.1485626451
C  C78  1  0.41320000  0.82210000  0.46690000  1.0 0.1485626451
C  C79  1  0.81020000  0.39280000  0.92040000  1.0 -0.031049969
C  C80  1  0.39280000  0.81020000  0.42040000  1.0 -0.031049969
C  C81  1  0.82680000  0.41870000  0.87610000  1.0 -0.0901675434
C  C82  1  0.41870000  0.82680000  0.37610000  1.0 -0.0901675434
C  C83  1  0.80880000  0.39570000  0.83100000  1.0 -0.1406294539
C  C84  1  0.39570000  0.80880000  0.33100000  1.0 -0.1406294539
C  C85  1  0.76790000  0.33870000  0.83480000  1.0 0.0691677999
C  C86  1  0.33870000  0.76790000  0.33480000  1.0 0.0691677999
C  C87  1  0.75250000  0.31250000  0.87910000  1.0 -0.1300318113
C  C88  1  0.31250000  0.75250000  0.37910000  1.0 -0.1300318113
C  C89  1  0.76810000  0.33650000  0.92430000  1.0 -0.0804062035
C  C90  1  0.33650000  0.76810000  0.42430000  1.0 -0.0804062035
C  C91  1  0.76080000  0.31620000  0.78910000  1.0 0.0323345118
C  C92  1  0.31620000  0.76080000  0.28910000  1.0 0.0323345118
C  C93  1  0.77250000  0.35060000  0.74930000  1.0 -0.1198260861
C  C94  1  0.35060000  0.77250000  0.24930000  1.0 -0.1198260861
C  C95  1  0.76350000  0.32980000  0.70310000  1.0 -0.0901675434
C  C96  1  0.32980000  0.76350000  0.20310000  1.0 -0.0901675434
C  C97  1  0.74200000  0.27250000  0.69400000  1.0 -0.0417104596
C  C98  1  0.27250000  0.74200000  0.19400000  1.0 -0.0417104596
C  C99  1  0.73100000  0.24280000  0.73650000  1.0 -0.0901675434
C  C100  1  0.24280000  0.73100000  0.23650000  1.0 -0.0901675434
C  C101  1  0.73950000  0.25830000  0.78430000  1.0 -0.1406294539
C  C102  1  0.25830000  0.73950000  0.28430000  1.0 -0.1406294539
C  C103  1  0.73380000  0.24740000  0.64940000  1.0 0.4077431594
C  C104  1  0.24740000  0.73380000  0.14940000  1.0 0.4077431594
C  C105  1  0.81200000  0.42400000  0.15450000  1.0 0.2667498127
C  C106  1  0.42400000  0.81200000  0.65450000  1.0 0.2667498127
C  C107  1  0.79770000  0.39900000  0.19930000  1.0 -0.0515851231
C  C108  1  0.39900000  0.79770000  0.69930000  1.0 -0.0515851231
C  C109  1  0.75590000  0.34230000  0.20200000  1.0 -0.0691375582
C  C110  1  0.34230000  0.75590000  0.70200000  1.0 -0.0691375582
C  C111  1  0.74400000  0.32210000  0.24840000  1.0 -0.1618516374
C  C112  1  0.32210000  0.74400000  0.74840000  1.0 -0.1618516374
C  C113  1  0.76880000  0.35730000  0.28750000  1.0 0.1000575979
C  C114  1  0.35730000  0.76880000  0.78750000  1.0 0.1000575979
C  C115  1  0.81440000  0.41190000  0.28170000  1.0 -0.170924622
C  C116  1  0.41190000  0.81440000  0.78170000  1.0 -0.170924622
C  C117  1  0.82830000  0.43530000  0.23640000  1.0 -0.0691375582
C  C118  1  0.43530000  0.82830000  0.73640000  1.0 -0.0691375582
C  C119  1  0.74930000  0.32510000  0.33800000  1.0 0.0878084784
C  C120  1  0.32510000  0.74930000  0.83800000  1.0 0.0878084784
C  C121  1  0.74020000  0.27070000  0.34440000  1.0 -0.1795248206
C  C122  1  0.27070000  0.74020000  0.84440000  1.0 -0.1795248206
C  C123  1  0.73780000  0.24750000  0.38900000  1.0 -0.0691375582
C  C124  1  0.24750000  0.73780000  0.88900000  1.0 -0.0691375582
C  C125  1  0.74120000  0.27700000  0.43040000  1.0 -0.0515851231
C  C126  1  0.27700000  0.74120000  0.93040000  1.0 -0.0515851231
C  C127  1  0.75800000  0.33420000  0.42790000  1.0 -0.0515851231
C  C128  1  0.33420000  0.75800000  0.92790000  1.0 -0.0515851231
C  C129  1  0.75380000  0.35050000  0.38190000  1.0 -0.170924622
C  C130  1  0.35050000  0.75380000  0.88190000  1.0 -0.170924622
C  C131  1  0.74270000  0.25420000  0.47420000  1.0 0.2917297119
C  C132  1  0.25420000  0.74270000  0.97420000  1.0 0.2917297119
C  C133  1  0.14370000  0.28510000  0.47650000  1.0 0.5201185976
C  C134  1  0.85630000  0.14140000  0.97650000  1.0 0.5201185976
C  C135  1  0.15880000  0.34250000  0.49160000  1.0 -0.0202211312
C  C136  1  0.84120000  0.18370000  0.99160000  1.0 -0.0202211312
C  C137  1  0.21110000  0.38410000  0.50850000  1.0 -0.0691375582
C  C138  1  0.78890000  0.17300000  0.00850000  1.0 -0.0691375582
C  C139  1  0.22300000  0.43530000  0.52890000  1.0 -0.0804062035
C  C140  1  0.77700000  0.21230000  0.02890000  1.0 -0.0804062035
C  C141  1  0.27440000  0.47120000  0.55040000  1.0 0.4999677027
C  C142  1  0.72560000  0.19680000  0.05040000  1.0 0.4999677027
C  C143  1  0.18040000  0.44860000  0.52280000  1.0 -0.1300318113
C  C144  1  0.81960000  0.26820000  0.02280000  1.0 -0.1300318113
C  C145  1  0.12830000  0.40960000  0.50360000  1.0 0.2270253633
C  C146  1  0.87170000  0.28130000  0.00360000  1.0 0.2270253633
C  C147  1  0.11640000  0.35640000  0.48830000  1.0 -0.170924622
C  C148  1  0.88360000  0.24000000  0.98830000  1.0 -0.170924622
C  C149  1  0.48220000  0.52610000  0.56540000  1.0 0.4999677027
C  C150  1  0.51780000  0.04390000  0.06540000  1.0 0.4999677027
C  C151  1  0.52600000  0.51680000  0.55200000  1.0 -0.0901675434
C  C152  1  0.47400000  0.99080000  0.05200000  1.0 -0.0901675434
C  C153  1  0.51240000  0.46080000  0.55780000  1.0 -0.1026657115
C  C154  1  0.48760000  0.94840000  0.05780000  1.0 -0.1026657115
C  C155  1  0.55000000  0.44300000  0.54480000  1.0 0.0180348067
C  C156  1  0.45000000  0.89300000  0.04480000  1.0 0.0180348067
C  C157  1  0.52950000  0.38150000  0.55660000  1.0 0.3826836978
C  C158  1  0.47050000  0.85200000  0.05660000  1.0 0.3826836978
C  C159  1  0.60260000  0.48080000  0.52560000  1.0 -0.1795248206
C  C160  1  0.39740000  0.87820000  0.02560000  1.0 -0.1795248206
C  C161  1  0.61570000  0.53640000  0.51830000  1.0 0.2138100152
C  C162  1  0.38430000  0.92070000  0.01830000  1.0 0.2138100152
C  C163  1  0.58230000  0.55440000  0.54110000  1.0 -0.1406294539
C  C164  1  0.41770000  0.97210000  0.04110000  1.0 -0.1406294539
C  C165  1  0.37430000  0.18280000  0.55020000  1.0 0.3907278364
C  C166  1  0.62570000  0.80850000  0.05020000  1.0 0.3907278364
C  C167  1  0.32270000  0.14890000  0.54500000  1.0 -0.0691375582
C  C168  1  0.67730000  0.82620000  0.04500000  1.0 -0.0691375582
C  C169  1  0.28230000  0.16470000  0.52680000  1.0 -0.0515851231
C  C170  1  0.71770000  0.88240000  0.02680000  1.0 -0.0515851231
C  C171  1  0.22540000  0.11700000  0.50540000  1.0 -0.0636371246
C  C172  1  0.77460000  0.89160000  0.00540000  1.0 -0.0636371246
C  C173  1  0.18400000  0.12960000  0.49760000  1.0 0.4730216746
C  C174  1  0.81600000  0.94560000  0.99760000  1.0 0.4730216746
C  C175  1  0.21550000  0.06120000  0.51510000  1.0 -0.1300318113
C  C176  1  0.78450000  0.84570000  0.01510000  1.0 -0.1300318113
C  C177  1  0.25130000  0.04830000  0.54050000  1.0 0.1288731837
C  C178  1  0.74870000  0.79700000  0.04050000  1.0 0.1288731837
C  C179  1  0.30960000  0.08050000  0.54510000  1.0 -0.0515851231
C  C180  1  0.69040000  0.77090000  0.04510000  1.0 -0.0515851231
C  C181  1  0.08050000  0.15620000  0.56710000  1.0 0.4478956943
C  C182  1  0.91950000  0.07570000  0.06710000  1.0 0.4478956943
C  C183  1  0.05720000  0.13700000  0.61000000  1.0 -0.0417104596
C  C184  1  0.94280000  0.07980000  0.11000000  1.0 -0.0417104596
C  C185  1  0.08680000  0.16110000  0.65160000  1.0 -0.0901675434
C  C186  1  0.91320000  0.07430000  0.15160000  1.0 -0.0901675434
C  C187  1  0.06370000  0.14120000  0.69180000  1.0 -0.1406294539
C  C188  1  0.93630000  0.07750000  0.19180000  1.0 -0.1406294539
C  C189  1  0.00960000  0.10300000  0.69960000  1.0 0.0844379922
C  C190  1  0.99040000  0.09340000  0.19960000  1.0 0.0878084784
C  C191  1  0.97960000  0.07570000  0.65890000  1.0 -0.1618516374
C  C192  1  0.02040000  0.09610000  0.15890000  1.0 -0.1618516374
C  C193  1  0.00760000  0.09820000  0.61500000  1.0 -0.0691375582
C  C194  1  0.99240000  0.09060000  0.11500000  1.0 -0.0691375582
C  C195  1  0.98310000  0.08960000  0.74890000  1.0 0.0691677999
C  C196  1  0.01690000  0.10650000  0.24890000  1.0 0.0691677999
C  C197  1  0.01040000  0.08860000  0.78360000  1.0 -0.1300318113
C  C198  1  0.98960000  0.07820000  0.28360000  1.0 -0.1300318113
C  C199  1  0.99420000  0.08750000  0.83820000  1.0 -0.0901675434
C  C200  1  0.00580000  0.09330000  0.33820000  1.0 -0.0901675434
C  C201  1  0.93080000  0.06680000  0.83760000  1.0 0.0180348067
C  C202  1  0.06920000  0.13600000  0.33760000  1.0 0.0180348067
C  C203  1  0.89640000  0.06070000  0.80050000  1.0 -0.1127536324
C  C204  1  0.10360000  0.16430000  0.30050000  1.0 -0.1127536324
C  C205  1  0.92360000  0.07440000  0.75000000  1.0 -0.1198260861
C  C206  1  0.07640000  0.15080000  0.25000000  1.0 -0.1198260861
C  C207  1  0.91040000  0.06320000  0.88870000  1.0 0.5201185976
C  C208  1  0.08960000  0.15280000  0.38870000  1.0 0.5201185976
C  C209  1  0.59110000  0.17790000  0.96690000  1.0 0.1485626451
C  C210  1  0.40890000  0.58680000  0.46690000  1.0 0.1485626451
C  C211  1  0.58260000  0.18980000  0.92040000  1.0 -0.031049969
C  C212  1  0.41740000  0.60720000  0.42040000  1.0 -0.031049969
C  C213  1  0.59190000  0.17320000  0.87610000  1.0 -0.0901675434
C  C214  1  0.40810000  0.58130000  0.37610000  1.0 -0.0901675434
C  C215  1  0.58690000  0.19120000  0.83100000  1.0 -0.1406294539
C  C216  1  0.41310000  0.60430000  0.33100000  1.0 -0.1406294539
C  C217  1  0.57080000  0.23210000  0.83480000  1.0 0.0691677999
C  C218  1  0.42920000  0.66130000  0.33480000  1.0 0.0691677999
C  C219  1  0.56000000  0.24750000  0.87910000  1.0 -0.1300318113
C  C220  1  0.44000000  0.68750000  0.37910000  1.0 -0.1300318113
C  C221  1  0.56840000  0.23190000  0.92430000  1.0 -0.0804062035
C  C222  1  0.43160000  0.66350000  0.42430000  1.0 -0.0804062035
C  C223  1  0.55540000  0.23920000  0.78910000  1.0 0.0323345118
C  C224  1  0.44460000  0.68380000  0.28910000  1.0 0.0323345118
C  C225  1  0.57810000  0.22750000  0.74930000  1.0 -0.1198260861
C  C226  1  0.42190000  0.64940000  0.24930000  1.0 -0.1198260861
C  C227  1  0.56630000  0.23650000  0.70310000  1.0 -0.0901675434
C  C228  1  0.43370000  0.67020000  0.20310000  1.0 -0.0901675434
C  C229  1  0.53050000  0.25800000  0.69400000  1.0 -0.0417104596
C  C230  1  0.46950000  0.72750000  0.19400000  1.0 -0.0417104596
C  C231  1  0.51180000  0.26900000  0.73650000  1.0 -0.0901675434
C  C232  1  0.48820000  0.75720000  0.23650000  1.0 -0.0901675434
C  C233  1  0.51880000  0.26050000  0.78430000  1.0 -0.1406294539
C  C234  1  0.48120000  0.74170000  0.28430000  1.0 -0.1406294539
C  C235  1  0.51360000  0.26620000  0.64940000  1.0 0.4077431594
C  C236  1  0.48640000  0.75260000  0.14940000  1.0 0.4077431594
C  C237  1  0.61200000  0.18800000  0.15450000  1.0 0.2667498127
C  C238  1  0.38800000  0.57600000  0.65450000  1.0 0.2667498127
C  C239  1  0.60130000  0.20230000  0.19930000  1.0 -0.0515851231
C  C240  1  0.39870000  0.60100000  0.69930000  1.0 -0.0515851231
C  C241  1  0.58640000  0.24410000  0.20200000  1.0 -0.0691375582
C  C242  1  0.41360000  0.65770000  0.70200000  1.0 -0.0691375582
C  C243  1  0.57810000  0.25600000  0.24840000  1.0 -0.1618516374
C  C244  1  0.42190000  0.67790000  0.74840000  1.0 -0.1618516374
C  C245  1  0.58850000  0.23120000  0.28750000  1.0 0.1000575979
C  C246  1  0.41150000  0.64270000  0.78750000  1.0 0.1000575979
C  C247  1  0.59750000  0.18560000  0.28170000  1.0 -0.170924622
C  C248  1  0.40250000  0.58810000  0.78170000  1.0 -0.170924622
C  C249  1  0.60700000  0.17170000  0.23640000  1.0 -0.0691375582
C  C250  1  0.39300000  0.56470000  0.73640000  1.0 -0.0691375582
C  C251  1  0.57580000  0.25070000  0.33800000  1.0 0.0878084784
C  C252  1  0.42420000  0.67490000  0.83800000  1.0 0.0878084784
C  C253  1  0.53050000  0.25980000  0.34440000  1.0 -0.1795248206
C  C254  1  0.46950000  0.72930000  0.84440000  1.0 -0.1795248206
C  C255  1  0.50970000  0.26220000  0.38900000  1.0 -0.0691375582
C  C256  1  0.49030000  0.75250000  0.88900000  1.0 -0.0691375582
C  C257  1  0.53580000  0.25880000  0.43040000  1.0 -0.0515851231
C  C258  1  0.46420000  0.72300000  0.93040000  1.0 -0.0515851231
C  C259  1  0.57620000  0.24200000  0.42790000  1.0 -0.0515851231
C  C260  1  0.42380000  0.66580000  0.92790000  1.0 -0.0515851231
C  C261  1  0.59670000  0.24620000  0.38190000  1.0 -0.170924622
C  C262  1  0.40330000  0.64950000  0.88190000  1.0 -0.170924622
C  C263  1  0.51150000  0.25730000  0.47420000  1.0 0.2917297119
C  C264  1  0.48850000  0.74580000  0.97420000  1.0 0.2917297119
C  C265  1  0.14140000  0.85630000  0.47650000  1.0 0.5201185976
C  C266  1  0.28510000  0.14370000  0.97650000  1.0 0.5201185976
C  C267  1  0.18370000  0.84120000  0.49160000  1.0 -0.0202211312
C  C268  1  0.34250000  0.15880000  0.99160000  1.0 -0.0202211312
C  C269  1  0.17300000  0.78890000  0.50850000  1.0 -0.0691375582
C  C270  1  0.38410000  0.21110000  0.00850000  1.0 -0.0691375582
C  C271  1  0.21230000  0.77700000  0.52890000  1.0 -0.0804062035
C  C272  1  0.43530000  0.22300000  0.02890000  1.0 -0.0804062035
C  C273  1  0.19680000  0.72560000  0.55040000  1.0 0.4999677027
C  C274  1  0.47120000  0.27440000  0.05040000  1.0 0.4999677027
C  C275  1  0.26820000  0.81960000  0.52280000  1.0 -0.1300318113
C  C276  1  0.44860000  0.18040000  0.02280000  1.0 -0.1300318113
C  C277  1  0.28130000  0.87170000  0.50360000  1.0 0.2270253633
C  C278  1  0.40960000  0.12830000  0.00360000  1.0 0.2270253633
C  C279  1  0.24000000  0.88360000  0.48830000  1.0 -0.170924622
C  C280  1  0.35640000  0.11640000  0.98830000  1.0 -0.170924622
C  C281  1  0.04390000  0.51780000  0.56540000  1.0 0.4999677027
C  C282  1  0.52610000  0.48220000  0.06540000  1.0 0.4999677027
C  C283  1  0.99080000  0.47400000  0.55200000  1.0 -0.0901675434
C  C284  1  0.51680000  0.52600000  0.05200000  1.0 -0.0901675434
C  C285  1  0.94840000  0.48760000  0.55780000  1.0 -0.1026657115
C  C286  1  0.46080000  0.51240000  0.05780000  1.0 -0.1026657115
C  C287  1  0.89300000  0.45000000  0.54480000  1.0 0.0180348067
C  C288  1  0.44300000  0.55000000  0.04480000  1.0 0.0180348067
C  C289  1  0.85200000  0.47050000  0.55660000  1.0 0.3826836978
C  C290  1  0.38150000  0.52950000  0.05660000  1.0 0.3826836978
C  C291  1  0.87820000  0.39740000  0.52560000  1.0 -0.1795248206
C  C292  1  0.48080000  0.60260000  0.02560000  1.0 -0.1795248206
C  C293  1  0.92070000  0.38430000  0.51830000  1.0 0.2138100152
C  C294  1  0.53640000  0.61570000  0.01830000  1.0 0.2138100152
C  C295  1  0.97210000  0.41770000  0.54110000  1.0 -0.1406294539
C  C296  1  0.55440000  0.58230000  0.04110000  1.0 -0.1406294539
C  C297  1  0.80850000  0.62570000  0.55020000  1.0 0.3907278364
C  C298  1  0.18280000  0.37430000  0.05020000  1.0 0.3907278364
C  C299  1  0.82620000  0.67730000  0.54500000  1.0 -0.0691375582
C  C300  1  0.14890000  0.32270000  0.04500000  1.0 -0.0691375582
C  C301  1  0.88240000  0.71770000  0.52680000  1.0 -0.0515851231
C  C302  1  0.16470000  0.28230000  0.02680000  1.0 -0.0515851231
C  C303  1  0.89160000  0.77460000  0.50540000  1.0 -0.0636371246
C  C304  1  0.11700000  0.22540000  0.00540000  1.0 -0.0636371246
C  C305  1  0.94560000  0.81600000  0.49760000  1.0 0.4730216746
C  C306  1  0.12960000  0.18400000  0.99760000  1.0 0.4730216746
C  C307  1  0.84570000  0.78450000  0.51510000  1.0 -0.1300318113
C  C308  1  0.06120000  0.21550000  0.01510000  1.0 -0.1300318113
C  C309  1  0.79700000  0.74870000  0.54050000  1.0 0.1288731837
C  C310  1  0.04830000  0.25130000  0.04050000  1.0 0.1288731837
C  C311  1  0.77090000  0.69040000  0.54510000  1.0 -0.0515851231
C  C312  1  0.08050000  0.30960000  0.04510000  1.0 -0.0515851231
C  C313  1  0.07570000  0.91950000  0.56710000  1.0 0.4478956943
C  C314  1  0.15620000  0.08050000  0.06710000  1.0 0.4478956943
C  C315  1  0.07980000  0.94280000  0.61000000  1.0 -0.0417104596
C  C316  1  0.13700000  0.05720000  0.11000000  1.0 -0.0417104596
C  C317  1  0.07430000  0.91320000  0.65160000  1.0 -0.0901675434
C  C318  1  0.16110000  0.08680000  0.15160000  1.0 -0.0901675434
C  C319  1  0.07750000  0.93630000  0.69180000  1.0 -0.1406294539
C  C320  1  0.14120000  0.06370000  0.19180000  1.0 -0.1406294539
C  C321  1  0.09340000  0.99040000  0.69960000  1.0 0.0844379922
C  C322  1  0.10300000  0.00960000  0.19960000  1.0 0.0878084784
C  C323  1  0.09610000  0.02040000  0.65890000  1.0 -0.1618516374
C  C324  1  0.07570000  0.97960000  0.15890000  1.0 -0.1618516374
C  C325  1  0.09060000  0.99240000  0.61500000  1.0 -0.0691375582
C  C326  1  0.09820000  0.00760000  0.11500000  1.0 -0.0691375582
C  C327  1  0.10650000  0.01690000  0.74890000  1.0 0.0691677999
C  C328  1  0.08960000  0.98310000  0.24890000  1.0 0.0691677999
C  C329  1  0.07820000  0.98960000  0.78360000  1.0 -0.1300318113
C  C330  1  0.08860000  0.01040000  0.28360000  1.0 -0.1300318113
C  C331  1  0.09330000  0.00580000  0.83820000  1.0 -0.0901675434
C  C332  1  0.08750000  0.99420000  0.33820000  1.0 -0.0901675434
C  C333  1  0.13600000  0.06920000  0.83760000  1.0 0.0180348067
C  C334  1  0.06680000  0.93080000  0.33760000  1.0 0.0180348067
C  C335  1  0.16430000  0.10360000  0.80050000  1.0 -0.1127536324
C  C336  1  0.06070000  0.89640000  0.30050000  1.0 -0.1127536324
C  C337  1  0.15080000  0.07640000  0.75000000  1.0 -0.1198260861
C  C338  1  0.07440000  0.92360000  0.25000000  1.0 -0.1198260861
C  C339  1  0.15280000  0.08960000  0.88870000  1.0 0.5201185976
C  C340  1  0.06320000  0.91040000  0.38870000  1.0 0.5201185976
C  C341  1  0.58680000  0.40890000  0.96690000  1.0 0.1485626451
C  C342  1  0.17790000  0.59110000  0.46690000  1.0 0.1485626451
C  C343  1  0.60720000  0.41740000  0.92040000  1.0 -0.031049969
C  C344  1  0.18980000  0.58260000  0.42040000  1.0 -0.031049969
C  C345  1  0.58130000  0.40810000  0.87610000  1.0 -0.0901675434
C  C346  1  0.17320000  0.59190000  0.37610000  1.0 -0.0901675434
C  C347  1  0.60430000  0.41310000  0.83100000  1.0 -0.1406294539
C  C348  1  0.19120000  0.58690000  0.33100000  1.0 -0.1406294539
C  C349  1  0.66130000  0.42920000  0.83480000  1.0 0.0691677999
C  C350  1  0.23210000  0.57080000  0.33480000  1.0 0.0691677999
C  C351  1  0.68750000  0.44000000  0.87910000  1.0 -0.1300318113
C  C352  1  0.24750000  0.56000000  0.37910000  1.0 -0.1300318113
C  C353  1  0.66350000  0.43160000  0.92430000  1.0 -0.0804062035
C  C354  1  0.23190000  0.56840000  0.42430000  1.0 -0.0804062035
C  C355  1  0.68380000  0.44460000  0.78910000  1.0 0.0323345118
C  C356  1  0.23920000  0.55540000  0.28910000  1.0 0.0323345118
C  C357  1  0.64940000  0.42190000  0.74930000  1.0 -0.1198260861
C  C358  1  0.22750000  0.57810000  0.24930000  1.0 -0.1198260861
C  C359  1  0.67020000  0.43370000  0.70310000  1.0 -0.0901675434
C  C360  1  0.23650000  0.56630000  0.20310000  1.0 -0.0901675434
C  C361  1  0.72750000  0.46950000  0.69400000  1.0 -0.0417104596
C  C362  1  0.25800000  0.53050000  0.19400000  1.0 -0.0417104596
C  C363  1  0.75720000  0.48820000  0.73650000  1.0 -0.0901675434
C  C364  1  0.26900000  0.51180000  0.23650000  1.0 -0.0901675434
C  C365  1  0.74170000  0.48120000  0.78430000  1.0 -0.1406294539
C  C366  1  0.26050000  0.51880000  0.28430000  1.0 -0.1406294539
C  C367  1  0.75260000  0.48640000  0.64940000  1.0 0.4077431594
C  C368  1  0.26620000  0.51360000  0.14940000  1.0 0.4077431594
C  C369  1  0.57600000  0.38800000  0.15450000  1.0 0.2667498127
C  C370  1  0.18800000  0.61200000  0.65450000  1.0 0.2667498127
C  C371  1  0.60100000  0.39870000  0.19930000  1.0 -0.0515851231
C  C372  1  0.20230000  0.60130000  0.69930000  1.0 -0.0515851231
C  C373  1  0.65770000  0.41360000  0.20200000  1.0 -0.0691375582
C  C374  1  0.24410000  0.58640000  0.70200000  1.0 -0.0691375582
C  C375  1  0.67790000  0.42190000  0.24840000  1.0 -0.1618516374
C  C376  1  0.25600000  0.57810000  0.74840000  1.0 -0.1618516374
C  C377  1  0.64270000  0.41150000  0.28750000  1.0 0.1000575979
C  C378  1  0.23120000  0.58850000  0.78750000  1.0 0.1000575979
C  C379  1  0.58810000  0.40250000  0.28170000  1.0 -0.170924622
C  C380  1  0.18560000  0.59750000  0.78170000  1.0 -0.170924622
C  C381  1  0.56470000  0.39300000  0.23640000  1.0 -0.0691375582
C  C382  1  0.17170000  0.60700000  0.73640000  1.0 -0.0691375582
C  C383  1  0.67490000  0.42420000  0.33800000  1.0 0.0878084784
C  C384  1  0.25070000  0.57580000  0.83800000  1.0 0.0878084784
C  C385  1  0.72930000  0.46950000  0.34440000  1.0 -0.1795248206
C  C386  1  0.25980000  0.53050000  0.84440000  1.0 -0.1795248206
C  C387  1  0.75250000  0.49030000  0.38900000  1.0 -0.0691375582
C  C388  1  0.26220000  0.50970000  0.88900000  1.0 -0.0691375582
C  C389  1  0.72300000  0.46420000  0.43040000  1.0 -0.0515851231
C  C390  1  0.25880000  0.53580000  0.93040000  1.0 -0.0515851231
C  C391  1  0.66580000  0.42380000  0.42790000  1.0 -0.0515851231
C  C392  1  0.24200000  0.57620000  0.92790000  1.0 -0.0515851231
C  C393  1  0.64950000  0.40330000  0.38190000  1.0 -0.170924622
C  C394  1  0.24620000  0.59670000  0.88190000  1.0 -0.170924622
C  C395  1  0.74580000  0.48850000  0.47420000  1.0 0.2917297119
C  C396  1  0.25730000  0.51150000  0.97420000  1.0 0.2917297119
N  N1  1  0.01780000  0.24210000  0.53960000  1.0 0.0430072239
N  N2  1  0.24210000  0.01780000  0.03960000  1.0 0.0430072239
N  N3  1  0.57000000  0.65440000  0.49610000  1.0 -0.0636371246
N  N4  1  0.65440000  0.57000000  0.99610000  1.0 -0.0636371246
N  N5  1  0.41830000  0.09000000  0.49670000  1.0 -0.1127536324
N  N6  1  0.09000000  0.41830000  0.99670000  1.0 -0.1127536324
N  N7  1  0.01120000  0.27120000  0.52470000  1.0 -0.0071824416
N  N8  1  0.27120000  0.01120000  0.02470000  1.0 -0.0071824416
N  N9  1  0.22430000  0.98220000  0.53960000  1.0 0.0430072239
N  N10  1  0.77570000  0.75790000  0.03960000  1.0 0.0430072239
N  N11  1  0.08440000  0.43000000  0.49610000  1.0 -0.0636371246
N  N12  1  0.91560000  0.34560000  0.99610000  1.0 -0.0636371246
N  N13  1  0.67170000  0.58170000  0.49670000  1.0 -0.1127536324
N  N14  1  0.32830000  0.91000000  0.99670000  1.0 -0.1127536324
N  N15  1  0.26000000  0.98880000  0.52470000  1.0 -0.0071824416
N  N16  1  0.74000000  0.72880000  0.02470000  1.0 -0.0071824416
N  N17  1  0.75790000  0.77570000  0.53960000  1.0 0.0430072239
N  N18  1  0.98220000  0.22430000  0.03960000  1.0 0.0430072239
N  N19  1  0.34560000  0.91560000  0.49610000  1.0 -0.0636371246
N  N20  1  0.43000000  0.08440000  0.99610000  1.0 -0.0636371246
N  N21  1  0.91000000  0.32830000  0.49670000  1.0 -0.1127536324
N  N22  1  0.58170000  0.67170000  0.99670000  1.0 -0.1127536324
N  N23  1  0.72880000  0.74000000  0.52470000  1.0 -0.0071824416
N  N24  1  0.98880000  0.26000000  0.02470000  1.0 -0.0071824416
O  O1  1  0.75690000  0.14560000  0.55850000  1.0 -0.5295561021
O  O2  1  0.14560000  0.75690000  0.05850000  1.0 -0.5295561021
O  O3  1  0.82370000  0.23930000  0.56650000  1.0 -0.4237890507
O  O4  1  0.23930000  0.82370000  0.06650000  1.0 -0.4237890507
O  O5  1  0.81190000  0.94160000  0.54970000  1.0 -0.3854429985
O  O6  1  0.94160000  0.81190000  0.04970000  1.0 -0.3854429985
O  O7  1  0.94770000  0.80410000  0.88990000  1.0 -0.522355414
O  O8  1  0.80410000  0.94770000  0.38990000  1.0 -0.522355414
O  O9  1  0.86760000  0.92380000  0.52360000  1.0 -0.4354125823
O  O10  1  0.92380000  0.86760000  0.02360000  1.0 -0.4354125823
O  O11  1  0.42660000  0.90950000  0.56710000  1.0 -0.4025569822
O  O12  1  0.90950000  0.42660000  0.06710000  1.0 -0.4025569822
O  O13  1  0.72220000  0.90550000  0.47570000  1.0 -0.4237890507
O  O14  1  0.90550000  0.72220000  0.97570000  1.0 -0.4306695956
O  O15  1  0.54160000  0.85040000  0.55060000  1.0 -0.3397601609
O  O16  1  0.85040000  0.54160000  0.05060000  1.0 -0.3397601609
O  O17  1  0.85550000  0.45850000  0.99410000  1.0 -0.2045281321
O  O18  1  0.45850000  0.85550000  0.49410000  1.0 -0.2045281321
O  O19  1  0.92670000  0.86640000  0.92580000  1.0 -0.4790269549
O  O20  1  0.86640000  0.92670000  0.42580000  1.0 -0.4790269549
O  O21  1  0.75230000  0.84660000  0.47130000  1.0 -0.4922055269
O  O22  1  0.84660000  0.75230000  0.97130000  1.0 -0.4922055269
O  O23  1  0.89900000  0.03260000  0.49040000  1.0 -0.4306695956
O  O24  1  0.03260000  0.89900000  0.99040000  1.0 -0.4306695956
O  O25  1  0.81570000  0.02070000  0.47780000  1.0 -0.5387625064
O  O26  1  0.02070000  0.81570000  0.97780000  1.0 -0.5387625064
O  O27  1  0.80270000  0.39330000  0.01100000  1.0 -0.2636649574
O  O28  1  0.39330000  0.80270000  0.51100000  1.0 -0.2636649574
O  O29  1  0.63170000  0.19250000  0.55100000  1.0 -0.2636649574
O  O30  1  0.19250000  0.63170000  0.05100000  1.0 -0.2655972208
O  O31  1  0.64760000  0.13430000  0.55570000  1.0 -0.252883262
O  O32  1  0.13430000  0.64760000  0.05570000  1.0 -0.252883262
O  O33  1  0.47430000  0.77060000  0.54940000  1.0 -0.4306695956
O  O34  1  0.77060000  0.47430000  0.04940000  1.0 -0.4306695956
O  O35  1  0.51320000  0.94250000  0.55810000  1.0 -0.4306695956
O  O36  1  0.94250000  0.51320000  0.05810000  1.0 -0.4306695956
O  O37  1  0.80360000  0.40270000  0.11820000  1.0 -0.281216603
O  O38  1  0.40270000  0.80360000  0.61820000  1.0 -0.281216603
O  O39  1  0.85250000  0.47470000  0.14230000  1.0 -0.3397601609
O  O40  1  0.47470000  0.85250000  0.64230000  1.0 -0.3397601609
O  O41  1  0.74580000  0.27940000  0.51620000  1.0 -0.3291347886
O  O42  1  0.27940000  0.74580000  0.01620000  1.0 -0.3291347886
O  O43  1  0.71670000  0.20090000  0.49150000  1.0 -0.3291347886
O  O44  1  0.20090000  0.71670000  0.99150000  1.0 -0.3291347886
O  O45  1  0.75230000  0.27990000  0.61010000  1.0 -0.4306695956
O  O46  1  0.27990000  0.75230000  0.11010000  1.0 -0.4306695956
O  O47  1  0.73020000  0.19650000  0.64440000  1.0 -0.4584340419
O  O48  1  0.19650000  0.73020000  0.14440000  1.0 -0.4584340419
O  O49  1  0.38870000  0.24310000  0.55850000  1.0 -0.5295561021
O  O50  1  0.61130000  0.85440000  0.05850000  1.0 -0.5295561021
O  O51  1  0.41560000  0.17630000  0.56650000  1.0 -0.4237890507
O  O52  1  0.58440000  0.76070000  0.06650000  1.0 -0.4237890507
O  O53  1  0.12970000  0.18810000  0.54970000  1.0 -0.3854429985
O  O54  1  0.87030000  0.05840000  0.04970000  1.0 -0.3854429985
O  O55  1  0.85640000  0.05230000  0.88990000  1.0 -0.522355414
O  O56  1  0.14360000  0.19590000  0.38990000  1.0 -0.522355414
O  O57  1  0.05620000  0.13240000  0.52360000  1.0 -0.4354125823
O  O58  1  0.94380000  0.07620000  0.02360000  1.0 -0.4354125823
O  O59  1  0.48290000  0.57340000  0.56710000  1.0 -0.4025569822
O  O60  1  0.51710000  0.09050000  0.06710000  1.0 -0.4025569822
O  O61  1  0.18330000  0.27780000  0.47570000  1.0 -0.4237890507
O  O62  1  0.81670000  0.09450000  0.97570000  1.0 -0.4306695956
O  O63  1  0.30880000  0.45840000  0.55060000  1.0 -0.3397601609
O  O64  1  0.69120000  0.14960000  0.05060000  1.0 -0.3397601609
O  O65  1  0.60300000  0.14450000  0.99410000  1.0 -0.2045281321
O  O66  1  0.39700000  0.54150000  0.49410000  1.0 -0.2045281321
O  O67  1  0.93970000  0.07330000  0.92580000  1.0 -0.4790269549
O  O68  1  0.06030000  0.13360000  0.42580000  1.0 -0.4790269549
O  O69  1  0.09430000  0.24770000  0.47130000  1.0 -0.4922055269
O  O70  1  0.90570000  0.15340000  0.97130000  1.0 -0.4922055269
O  O71  1  0.13360000  0.10100000  0.49040000  1.0 -0.4306695956
O  O72  1  0.86640000  0.96740000  0.99040000  1.0 -0.4306695956
O  O73  1  0.20500000  0.18430000  0.47780000  1.0 -0.5387625064
O  O74  1  0.79500000  0.97930000  0.97780000  1.0 -0.5387625064
O  O75  1  0.59060000  0.19730000  0.01100000  1.0 -0.2636649574
O  O76  1  0.40940000  0.60670000  0.51100000  1.0 -0.2636649574
O  O77  1  0.56080000  0.36830000  0.55100000  1.0 -0.2636649574
O  O78  1  0.43920000  0.80750000  0.05100000  1.0 -0.2655972208
O  O79  1  0.48670000  0.35240000  0.55570000  1.0 -0.252883262
O  O80  1  0.51330000  0.86570000  0.05570000  1.0 -0.252883262
O  O81  1  0.29630000  0.52570000  0.54940000  1.0 -0.4306695956
O  O82  1  0.70370000  0.22940000  0.04940000  1.0 -0.4306695956
O  O83  1  0.42930000  0.48680000  0.55810000  1.0 -0.4306695956
O  O84  1  0.57070000  0.05750000  0.05810000  1.0 -0.4306695956
O  O85  1  0.59910000  0.19640000  0.11820000  1.0 -0.281216603
O  O86  1  0.40090000  0.59730000  0.61820000  1.0 -0.281216603
O  O87  1  0.62220000  0.14750000  0.14230000  1.0 -0.3397601609
O  O88  1  0.37780000  0.52530000  0.64230000  1.0 -0.3397601609
O  O89  1  0.53360000  0.25420000  0.51620000  1.0 -0.3291347886
O  O90  1  0.46640000  0.72060000  0.01620000  1.0 -0.3291347886
O  O91  1  0.48420000  0.28330000  0.49150000  1.0 -0.3291347886
O  O92  1  0.51580000  0.79910000  0.99150000  1.0 -0.3291347886
O  O93  1  0.52760000  0.24770000  0.61010000  1.0 -0.4306695956
O  O94  1  0.47240000  0.72010000  0.11010000  1.0 -0.4306695956
O  O95  1  0.46630000  0.26980000  0.64440000  1.0 -0.4584340419
O  O96  1  0.53370000  0.80350000  0.14440000  1.0 -0.4584340419
O  O97  1  0.85440000  0.61130000  0.55850000  1.0 -0.5295561021
O  O98  1  0.24310000  0.38870000  0.05850000  1.0 -0.5295561021
O  O99  1  0.76070000  0.58440000  0.56650000  1.0 -0.4237890507
O  O100  1  0.17630000  0.41560000  0.06650000  1.0 -0.4237890507
O  O101  1  0.05840000  0.87030000  0.54970000  1.0 -0.3854429985
O  O102  1  0.18810000  0.12970000  0.04970000  1.0 -0.3854429985
O  O103  1  0.19590000  0.14360000  0.88990000  1.0 -0.522355414
O  O104  1  0.05230000  0.85640000  0.38990000  1.0 -0.522355414
O  O105  1  0.07620000  0.94380000  0.52360000  1.0 -0.4354125823
O  O106  1  0.13240000  0.05620000  0.02360000  1.0 -0.4354125823
O  O107  1  0.09050000  0.51710000  0.56710000  1.0 -0.4025569822
O  O108  1  0.57340000  0.48290000  0.06710000  1.0 -0.4025569822
O  O109  1  0.09450000  0.81670000  0.47570000  1.0 -0.4237890507
O  O110  1  0.27780000  0.18330000  0.97570000  1.0 -0.4306695956
O  O111  1  0.14960000  0.69120000  0.55060000  1.0 -0.3397601609
O  O112  1  0.45840000  0.30880000  0.05060000  1.0 -0.3397601609
O  O113  1  0.54150000  0.39700000  0.99410000  1.0 -0.2045281321
O  O114  1  0.14450000  0.60300000  0.49410000  1.0 -0.2045281321
O  O115  1  0.13360000  0.06030000  0.92580000  1.0 -0.4790269549
O  O116  1  0.07330000  0.93970000  0.42580000  1.0 -0.4790269549
O  O117  1  0.15340000  0.90570000  0.47130000  1.0 -0.4922055269
O  O118  1  0.24770000  0.09430000  0.97130000  1.0 -0.4922055269
O  O119  1  0.96740000  0.86640000  0.49040000  1.0 -0.4306695956
O  O120  1  0.10100000  0.13360000  0.99040000  1.0 -0.4306695956
O  O121  1  0.97930000  0.79500000  0.47780000  1.0 -0.5387625064
O  O122  1  0.18430000  0.20500000  0.97780000  1.0 -0.5387625064
O  O123  1  0.60670000  0.40940000  0.01100000  1.0 -0.2636649574
O  O124  1  0.19730000  0.59060000  0.51100000  1.0 -0.2636649574
O  O125  1  0.80750000  0.43920000  0.55100000  1.0 -0.2636649574
O  O126  1  0.36830000  0.56080000  0.05100000  1.0 -0.2655972208
O  O127  1  0.86570000  0.51330000  0.55570000  1.0 -0.252883262
O  O128  1  0.35240000  0.48670000  0.05570000  1.0 -0.252883262
O  O129  1  0.22940000  0.70370000  0.54940000  1.0 -0.4306695956
O  O130  1  0.52570000  0.29630000  0.04940000  1.0 -0.4306695956
O  O131  1  0.05750000  0.57070000  0.55810000  1.0 -0.4306695956
O  O132  1  0.48680000  0.42930000  0.05810000  1.0 -0.4306695956
O  O133  1  0.59730000  0.40090000  0.11820000  1.0 -0.281216603
O  O134  1  0.19640000  0.59910000  0.61820000  1.0 -0.281216603
O  O135  1  0.52530000  0.37780000  0.14230000  1.0 -0.3397601609
O  O136  1  0.14750000  0.62220000  0.64230000  1.0 -0.3397601609
O  O137  1  0.72060000  0.46640000  0.51620000  1.0 -0.3291347886
O  O138  1  0.25420000  0.53360000  0.01620000  1.0 -0.3291347886
O  O139  1  0.79910000  0.51580000  0.49150000  1.0 -0.3291347886
O  O140  1  0.28330000  0.48420000  0.99150000  1.0 -0.3291347886
O  O141  1  0.72010000  0.47240000  0.61010000  1.0 -0.4306695956
O  O142  1  0.24770000  0.52760000  0.11010000  1.0 -0.4306695956
O  O143  1  0.80350000  0.53370000  0.64440000  1.0 -0.4584340419
O  O144  1  0.26980000  0.46630000  0.14440000  1.0 -0.4584340419
