# DDEC6 charges by PACMAN v1.1 (https://github.com/mtap-research/PACMAN-charge/)
data_ALOLIX_ASR_pacman
_symmetry_space_group_name_H-M   'P 1'
_cell_length_a   27.34490000
_cell_length_b   27.34490000
_cell_length_c   28.25540000
_cell_angle_alpha   90.00000000
_cell_angle_beta   90.00000000
_cell_angle_gamma   120.00000000
_symmetry_Int_Tables_number   1
_chemical_formula_structural   Cs5In9H93C198(NO6)12
_chemical_formula_sum   'Cs10 In18 H186 C396 N24 O144'
_cell_volume   18297.20569988
_cell_formula_units_Z   2
loop_
 _symmetry_equiv_pos_site_id
 _symmetry_equiv_pos_as_xyz
  1  'x, y, z'
loop_
 _atom_site_type_symbol
 _atom_site_label
 _atom_site_symmetry_multiplicity
 _atom_site_fract_x
 _atom_site_fract_y
 _atom_site_fract_z
 _atom_site_occupancy
 _atom_site_charge
Cs  Cs1  1  0.00000000  0.00000000  0.00383000  1.0 0.9033634468
Cs  Cs2  1  0.00000000  0.00000000  0.50383000  1.0 0.9033634468
Cs  Cs3  1  0.66666667  0.33333333  0.45028000  1.0 0.6675489648
Cs  Cs4  1  0.33333333  0.66666667  0.95028000  1.0 0.6675489648
Cs  Cs5  1  0.66666667  0.33333333  0.94421000  1.0 0.4286645158
Cs  Cs6  1  0.33333333  0.66666667  0.44421000  1.0 0.436458896
Cs  Cs7  1  0.33333333  0.66666667  0.02110000  1.0 0.5399993335
Cs  Cs8  1  0.66666667  0.33333333  0.52110000  1.0 0.5399993335
Cs  Cs9  1  0.33333333  0.66666667  0.48870000  1.0 0.3413467063
Cs  Cs10  1  0.66666667  0.33333333  0.98870000  1.0 0.3413467063
In  In1  1  0.82250000  0.87817000  0.00468000  1.0 1.3417398951
In  In2  1  0.12183000  0.94433000  0.00468000  1.0 1.3417398951
In  In3  1  0.05567000  0.17750000  0.00468000  1.0 1.3417398951
In  In4  1  0.87817000  0.82250000  0.50468000  1.0 1.3417398951
In  In5  1  0.94433000  0.12183000  0.50468000  1.0 1.3417398951
In  In6  1  0.17750000  0.05567000  0.50468000  1.0 1.3417398951
In  In7  1  0.48870000  0.21272000  0.94589000  1.0 1.3518572056
In  In8  1  0.78728000  0.27598000  0.94589000  1.0 1.3518572056
In  In9  1  0.72402000  0.51130000  0.94589000  1.0 1.3565480514
In  In10  1  0.21272000  0.48870000  0.44589000  1.0 1.3565480514
In  In11  1  0.27598000  0.78728000  0.44589000  1.0 1.3565480514
In  In12  1  0.51130000  0.72402000  0.44589000  1.0 1.3565480514
In  In13  1  0.38809000  0.84377000  0.94560000  1.0 1.3417398951
In  In14  1  0.15623000  0.54432000  0.94560000  1.0 1.3417398951
In  In15  1  0.45568000  0.61191000  0.94560000  1.0 1.3518572056
In  In16  1  0.84377000  0.38809000  0.44560000  1.0 1.3417398951
In  In17  1  0.54432000  0.15623000  0.44560000  1.0 1.3417398951
In  In18  1  0.61191000  0.45568000  0.44560000  1.0 1.3417398951
H  H1  1  0.47630000  0.04140000  0.95000000  1.0 0.1503064474
H  H2  1  0.95860000  0.43490000  0.95000000  1.0 0.1503064474
H  H3  1  0.56510000  0.52370000  0.95000000  1.0 0.1503064474
H  H4  1  0.04140000  0.47630000  0.45000000  1.0 0.1503064474
H  H5  1  0.43490000  0.95860000  0.45000000  1.0 0.1503064474
H  H6  1  0.52370000  0.56510000  0.45000000  1.0 0.1503064474
H  H7  1  0.63270000  0.14990000  0.91500000  1.0 0.1700973639
H  H8  1  0.85010000  0.48280000  0.91500000  1.0 0.1700973639
H  H9  1  0.51720000  0.36730000  0.91500000  1.0 0.1700973639
H  H10  1  0.14990000  0.63270000  0.41500000  1.0 0.1700973639
H  H11  1  0.48280000  0.85010000  0.41500000  1.0 0.1700973639
H  H12  1  0.36730000  0.51720000  0.41500000  1.0 0.1700973639
H  H13  1  0.57860000  0.98870000  0.90910000  1.0 0.1566037663
H  H14  1  0.01130000  0.58990000  0.90910000  1.0 0.1566037663
H  H15  1  0.41010000  0.42140000  0.90910000  1.0 0.1566037663
H  H16  1  0.98870000  0.57860000  0.40910000  1.0 0.1566037663
H  H17  1  0.58990000  0.01130000  0.40910000  1.0 0.1566037663
H  H18  1  0.42140000  0.41010000  0.40910000  1.0 0.1566037663
H  H19  1  0.56460000  0.27490000  0.63470000  1.0 0.1296372326
H  H20  1  0.72510000  0.28970000  0.63470000  1.0 0.1296372326
H  H21  1  0.71030000  0.43540000  0.63470000  1.0 0.1296372326
H  H22  1  0.27490000  0.56460000  0.13470000  1.0 0.1296372326
H  H23  1  0.28970000  0.72510000  0.13470000  1.0 0.1296372326
H  H24  1  0.43540000  0.71030000  0.13470000  1.0 0.1296372326
H  H25  1  0.59930000  0.42480000  0.68850000  1.0 0.1190681851
H  H26  1  0.57520000  0.17450000  0.68850000  1.0 0.1190681851
H  H27  1  0.82550000  0.40070000  0.68850000  1.0 0.1190681851
H  H28  1  0.42480000  0.59930000  0.18850000  1.0 0.1190681851
H  H29  1  0.17450000  0.57520000  0.18850000  1.0 0.1190681851
H  H30  1  0.40070000  0.82550000  0.18850000  1.0 0.1190681851
H  H31  1  0.59670000  0.45400000  0.61210000  1.0 0.1296372326
H  H32  1  0.54600000  0.14270000  0.61210000  1.0 0.1296372326
H  H33  1  0.85730000  0.40330000  0.61210000  1.0 0.1296372326
H  H34  1  0.45400000  0.59670000  0.11210000  1.0 0.1296372326
H  H35  1  0.14270000  0.54600000  0.11210000  1.0 0.1296372326
H  H36  1  0.40330000  0.85730000  0.11210000  1.0 0.1296372326
H  H37  1  0.50010000  0.24000000  0.70270000  1.0 0.1146038182
H  H38  1  0.76000000  0.26010000  0.70270000  1.0 0.1190681851
H  H39  1  0.73990000  0.49990000  0.70270000  1.0 0.1146038182
H  H40  1  0.24000000  0.50010000  0.20270000  1.0 0.1190681851
H  H41  1  0.26010000  0.76000000  0.20270000  1.0 0.1190681851
H  H42  1  0.49990000  0.73990000  0.20270000  1.0 0.1190681851
H  H43  1  0.48010000  0.20500000  0.78080000  1.0 0.1296372326
H  H44  1  0.79500000  0.27510000  0.78080000  1.0 0.1296372326
H  H45  1  0.72490000  0.51990000  0.78080000  1.0 0.1296372326
H  H46  1  0.20500000  0.48010000  0.28080000  1.0 0.1296372326
H  H47  1  0.27510000  0.79500000  0.28080000  1.0 0.1296372326
H  H48  1  0.51990000  0.72490000  0.28080000  1.0 0.1296372326
H  H49  1  0.59880000  0.35120000  0.83140000  1.0 0.1296372326
H  H50  1  0.64880000  0.24760000  0.83140000  1.0 0.1296372326
H  H51  1  0.75240000  0.40120000  0.83140000  1.0 0.1296372326
H  H52  1  0.35120000  0.59880000  0.33140000  1.0 0.1296372326
H  H53  1  0.24760000  0.64880000  0.33140000  1.0 0.1296372326
H  H54  1  0.40120000  0.75240000  0.33140000  1.0 0.1296372326
H  H55  1  0.62210000  0.38620000  0.75440000  1.0 0.1190681851
H  H56  1  0.61380000  0.23590000  0.75440000  1.0 0.1190681851
H  H57  1  0.76410000  0.37790000  0.75440000  1.0 0.1190681851
H  H58  1  0.38620000  0.62210000  0.25440000  1.0 0.1190681851
H  H59  1  0.23590000  0.61380000  0.25440000  1.0 0.1190681851
H  H60  1  0.37790000  0.76410000  0.25440000  1.0 0.1190681851
H  H61  1  0.62820000  0.76710000  0.97900000  1.0 0.1503064474
H  H62  1  0.23290000  0.86110000  0.97900000  1.0 0.1503064474
H  H63  1  0.13890000  0.37180000  0.97900000  1.0 0.1503064474
H  H64  1  0.76710000  0.62820000  0.47900000  1.0 0.1503064474
H  H65  1  0.86110000  0.23290000  0.47900000  1.0 0.1503064474
H  H66  1  0.37180000  0.13890000  0.47900000  1.0 0.1503064474
H  H67  1  0.67140000  0.92520000  0.01120000  1.0 0.1377325446
H  H68  1  0.07480000  0.74620000  0.01120000  1.0 0.1377325446
H  H69  1  0.25380000  0.32860000  0.01120000  1.0 0.1377325446
H  H70  1  0.92520000  0.67140000  0.51120000  1.0 0.1377325446
H  H71  1  0.74620000  0.07480000  0.51120000  1.0 0.1377325446
H  H72  1  0.32860000  0.25380000  0.51120000  1.0 0.1377325446
H  H73  1  0.51330000  0.81480000  0.97930000  1.0 0.1377325446
H  H74  1  0.18520000  0.69850000  0.97930000  1.0 0.1377325446
H  H75  1  0.30150000  0.48670000  0.97930000  1.0 0.1377325446
H  H76  1  0.81480000  0.51330000  0.47930000  1.0 0.1377325446
H  H77  1  0.69850000  0.18520000  0.47930000  1.0 0.1377325446
H  H78  1  0.48670000  0.30150000  0.47930000  1.0 0.1377325446
H  H79  1  0.61190000  0.46350000  0.27780000  1.0 0.1296372326
H  H80  1  0.53650000  0.14840000  0.27780000  1.0 0.1296372326
H  H81  1  0.85160000  0.38810000  0.27780000  1.0 0.1296372326
H  H82  1  0.46350000  0.61190000  0.77780000  1.0 0.1296372326
H  H83  1  0.14840000  0.53650000  0.77780000  1.0 0.1296372326
H  H84  1  0.38810000  0.85160000  0.77780000  1.0 0.1296372326
H  H85  1  0.60010000  0.43010000  0.19970000  1.0 0.1190681851
H  H86  1  0.56990000  0.17000000  0.19970000  1.0 0.1190681851
H  H87  1  0.83000000  0.39990000  0.19970000  1.0 0.1190681851
H  H88  1  0.43010000  0.60010000  0.69970000  1.0 0.1190681851
H  H89  1  0.17000000  0.56990000  0.69970000  1.0 0.1190681851
H  H90  1  0.39990000  0.83000000  0.69970000  1.0 0.1190681851
H  H91  1  0.57110000  0.28150000  0.25520000  1.0 0.1146038182
H  H92  1  0.71850000  0.28960000  0.25520000  1.0 0.1146038182
H  H93  1  0.71040000  0.42890000  0.25520000  1.0 0.1146038182
H  H94  1  0.28150000  0.57110000  0.75520000  1.0 0.1146038182
H  H95  1  0.28960000  0.71850000  0.75520000  1.0 0.1146038182
H  H96  1  0.42890000  0.71040000  0.75520000  1.0 0.1146038182
H  H97  1  0.58450000  0.32130000  0.32970000  1.0 0.1296372326
H  H98  1  0.67870000  0.26320000  0.32970000  1.0 0.1296372326
H  H99  1  0.73680000  0.41550000  0.32970000  1.0 0.1296372326
H  H100  1  0.32130000  0.58450000  0.82970000  1.0 0.1296372326
H  H101  1  0.26320000  0.67870000  0.82970000  1.0 0.1296372326
H  H102  1  0.41550000  0.73680000  0.82970000  1.0 0.1296372326
H  H103  1  0.62710000  0.38900000  0.13580000  1.0 0.1377325446
H  H104  1  0.61100000  0.23810000  0.13580000  1.0 0.1377325446
H  H105  1  0.76190000  0.37290000  0.13580000  1.0 0.1377325446
H  H106  1  0.38900000  0.62710000  0.63580000  1.0 0.1377325446
H  H107  1  0.23810000  0.61100000  0.63580000  1.0 0.1377325446
H  H108  1  0.37290000  0.76190000  0.63580000  1.0 0.1377325446
H  H109  1  0.47710000  0.21090000  0.11410000  1.0 0.1377325446
H  H110  1  0.78910000  0.26620000  0.11410000  1.0 0.1377325446
H  H111  1  0.73380000  0.52290000  0.11410000  1.0 0.1377325446
H  H112  1  0.21090000  0.47710000  0.61410000  1.0 0.1377325446
H  H113  1  0.26620000  0.78910000  0.61410000  1.0 0.1377325446
H  H114  1  0.52290000  0.73380000  0.61410000  1.0 0.1377325446
H  H115  1  0.50690000  0.24560000  0.18810000  1.0 0.1296372326
H  H116  1  0.75440000  0.26130000  0.18810000  1.0 0.1296372326
H  H117  1  0.73870000  0.49310000  0.18810000  1.0 0.1296372326
H  H118  1  0.24560000  0.50690000  0.68810000  1.0 0.1296372326
H  H119  1  0.26130000  0.75440000  0.68810000  1.0 0.1296372326
H  H120  1  0.49310000  0.73870000  0.68810000  1.0 0.1296372326
H  H121  1  0.81330000  0.86540000  0.17550000  1.0 0.1296372326
H  H122  1  0.13460000  0.94790000  0.17550000  1.0 0.1296372326
H  H123  1  0.05210000  0.18670000  0.17550000  1.0 0.1296372326
H  H124  1  0.86540000  0.81330000  0.67550000  1.0 0.1296372326
H  H125  1  0.94790000  0.13460000  0.67550000  1.0 0.1296372326
H  H126  1  0.18670000  0.05210000  0.67550000  1.0 0.1296372326
H  H127  1  0.83280000  0.90570000  0.25080000  1.0 0.1190681851
H  H128  1  0.09430000  0.92710000  0.25080000  1.0 0.1190681851
H  H129  1  0.07290000  0.16720000  0.25080000  1.0 0.1190681851
H  H130  1  0.90570000  0.83280000  0.75080000  1.0 0.1190681851
H  H131  1  0.92710000  0.09430000  0.75080000  1.0 0.1190681851
H  H132  1  0.16720000  0.07290000  0.75080000  1.0 0.1190681851
H  H133  1  0.95370000  0.05440000  0.19550000  1.0 0.1190681851
H  H134  1  0.94560000  0.89930000  0.19550000  1.0 0.1190681851
H  H135  1  0.10070000  0.04630000  0.19550000  1.0 0.1190681851
H  H136  1  0.05440000  0.95370000  0.69550000  1.0 0.1190681851
H  H137  1  0.89930000  0.94560000  0.69550000  1.0 0.1190681851
H  H138  1  0.04630000  0.10070000  0.69550000  1.0 0.1190681851
H  H139  1  0.93250000  0.01290000  0.12160000  1.0 0.1296372326
H  H140  1  0.98710000  0.91960000  0.12160000  1.0 0.1296372326
H  H141  1  0.08040000  0.06750000  0.12160000  1.0 0.1296372326
H  H142  1  0.01290000  0.93250000  0.62160000  1.0 0.1296372326
H  H143  1  0.91960000  0.98710000  0.62160000  1.0 0.1296372326
H  H144  1  0.06750000  0.08040000  0.62160000  1.0 0.1296372326
H  H145  1  0.90100000  0.94390000  0.31400000  1.0 0.1190681851
H  H146  1  0.05610000  0.95710000  0.31400000  1.0 0.1190681851
H  H147  1  0.04290000  0.09900000  0.31400000  1.0 0.1190681851
H  H148  1  0.94390000  0.90100000  0.81400000  1.0 0.1190681851
H  H149  1  0.95710000  0.05610000  0.81400000  1.0 0.1190681851
H  H150  1  0.09900000  0.04290000  0.81400000  1.0 0.1190681851
H  H151  1  0.91650000  0.97880000  0.39020000  1.0 0.1190681851
H  H152  1  0.02120000  0.93770000  0.39020000  1.0 0.1190681851
H  H153  1  0.06230000  0.08350000  0.39020000  1.0 0.1190681851
H  H154  1  0.97880000  0.91650000  0.89020000  1.0 0.1190681851
H  H155  1  0.93770000  0.02120000  0.89020000  1.0 0.1190681851
H  H156  1  0.08350000  0.06230000  0.89020000  1.0 0.1190681851
H  H157  1  0.93670000  0.12550000  0.33400000  1.0 0.1296372326
H  H158  1  0.87450000  0.81120000  0.33400000  1.0 0.1296372326
H  H159  1  0.18880000  0.06330000  0.33400000  1.0 0.1296372326
H  H160  1  0.12550000  0.93670000  0.83400000  1.0 0.1296372326
H  H161  1  0.81120000  0.87450000  0.83400000  1.0 0.1296372326
H  H162  1  0.06330000  0.18880000  0.83400000  1.0 0.1296372326
H  H163  1  0.91820000  0.08250000  0.25530000  1.0 0.1146038182
H  H164  1  0.91750000  0.83570000  0.25530000  1.0 0.1146038182
H  H165  1  0.16430000  0.08180000  0.25530000  1.0 0.1146038182
H  H166  1  0.08250000  0.91820000  0.75530000  1.0 0.1146038182
H  H167  1  0.83570000  0.91750000  0.75530000  1.0 0.1146038182
H  H168  1  0.08180000  0.16430000  0.75530000  1.0 0.1146038182
H  H169  1  0.29080000  0.09850000  0.96450000  1.0 0.1296372326
H  H170  1  0.90150000  0.19230000  0.96450000  1.0 0.1296372326
H  H171  1  0.80770000  0.70920000  0.96450000  1.0 0.1296372326
H  H172  1  0.09850000  0.29080000  0.46450000  1.0 0.1296372326
H  H173  1  0.19230000  0.90150000  0.46450000  1.0 0.1296372326
H  H174  1  0.70920000  0.80770000  0.46450000  1.0 0.1296372326
H  H175  1  0.17520000  0.14530000  0.96950000  1.0 0.1296372326
H  H176  1  0.85470000  0.02990000  0.96950000  1.0 0.1296372326
H  H177  1  0.97010000  0.82480000  0.96950000  1.0 0.1296372326
H  H178  1  0.14530000  0.17520000  0.46950000  1.0 0.1296372326
H  H179  1  0.02990000  0.85470000  0.46950000  1.0 0.1296372326
H  H180  1  0.82480000  0.97010000  0.46950000  1.0 0.1296372326
H  H181  1  0.33600000  0.25990000  0.93710000  1.0 0.1296372326
H  H182  1  0.74010000  0.07610000  0.93710000  1.0 0.1296372326
H  H183  1  0.92390000  0.66400000  0.93710000  1.0 0.1296372326
H  H184  1  0.25990000  0.33600000  0.43710000  1.0 0.1296372326
H  H185  1  0.07610000  0.74010000  0.43710000  1.0 0.1296372326
H  H186  1  0.66400000  0.92390000  0.43710000  1.0 0.1296372326
C  C1  1  0.47370000  0.94850000  0.94450000  1.0 0.5316742251
C  C2  1  0.05150000  0.52520000  0.94450000  1.0 0.5316742251
C  C3  1  0.47480000  0.52630000  0.94450000  1.0 0.5316742251
C  C4  1  0.94850000  0.47370000  0.44450000  1.0 0.5214091127
C  C5  1  0.52520000  0.05150000  0.44450000  1.0 0.5316742251
C  C6  1  0.52630000  0.47480000  0.44450000  1.0 0.5214091127
C  C7  1  0.52240000  0.00620000  0.93480000  1.0 0.0180273535
C  C8  1  0.99380000  0.51620000  0.93480000  1.0 0.0180273535
C  C9  1  0.48380000  0.47760000  0.93480000  1.0 0.0180273535
C  C10  1  0.00620000  0.52240000  0.43480000  1.0 0.0180273535
C  C11  1  0.51620000  0.99380000  0.43480000  1.0 0.0180273535
C  C12  1  0.47760000  0.48380000  0.43480000  1.0 0.0180273535
C  C13  1  0.51180000  0.04890000  0.94020000  1.0 -0.1293917127
C  C14  1  0.95110000  0.46290000  0.94020000  1.0 -0.1293917127
C  C15  1  0.53710000  0.48820000  0.94020000  1.0 -0.1293917127
C  C16  1  0.04890000  0.51180000  0.44020000  1.0 -0.1293917127
C  C17  1  0.46290000  0.95110000  0.44020000  1.0 -0.1293917127
C  C18  1  0.48820000  0.53710000  0.44020000  1.0 -0.1293917127
C  C19  1  0.55250000  0.10280000  0.93130000  1.0 0.0180273535
C  C20  1  0.89720000  0.44970000  0.93130000  1.0 0.0180273535
C  C21  1  0.55030000  0.44750000  0.93130000  1.0 0.0180273535
C  C22  1  0.10280000  0.55250000  0.43130000  1.0 0.0180273535
C  C23  1  0.44970000  0.89720000  0.43130000  1.0 0.0180273535
C  C24  1  0.44750000  0.55030000  0.43130000  1.0 0.0180273535
C  C25  1  0.60410000  0.11260000  0.91860000  1.0 -0.2352977292
C  C26  1  0.88740000  0.49150000  0.91860000  1.0 -0.2352977292
C  C27  1  0.50850000  0.39590000  0.91860000  1.0 -0.2352977292
C  C28  1  0.11260000  0.60410000  0.41860000  1.0 -0.2352977292
C  C29  1  0.49150000  0.88740000  0.41860000  1.0 -0.2352977292
C  C30  1  0.39590000  0.50850000  0.41860000  1.0 -0.2352977292
C  C31  1  0.61700000  0.07160000  0.91070000  1.0 0.2632244928
C  C32  1  0.92840000  0.54540000  0.91070000  1.0 0.2632244928
C  C33  1  0.45460000  0.38300000  0.91070000  1.0 0.2632244928
C  C34  1  0.07160000  0.61700000  0.41070000  1.0 0.2632244928
C  C35  1  0.54540000  0.92840000  0.41070000  1.0 0.2632244928
C  C36  1  0.38300000  0.45460000  0.41070000  1.0 0.2632244928
C  C37  1  0.57320000  0.01860000  0.91730000  1.0 -0.1866320815
C  C38  1  0.98140000  0.55460000  0.91730000  1.0 -0.1866320815
C  C39  1  0.44540000  0.42680000  0.91730000  1.0 -0.1866320815
C  C40  1  0.01860000  0.57320000  0.41730000  1.0 -0.1866320815
C  C41  1  0.55460000  0.98140000  0.41730000  1.0 -0.1866320815
C  C42  1  0.42680000  0.44540000  0.41730000  1.0 -0.1866320815
C  C43  1  0.54150000  0.15380000  0.95980000  1.0 0.5316742251
C  C44  1  0.84620000  0.38770000  0.95980000  1.0 0.5316742251
C  C45  1  0.61230000  0.45850000  0.95980000  1.0 0.5316742251
C  C46  1  0.15380000  0.54150000  0.45980000  1.0 0.5399993335
C  C47  1  0.38770000  0.84620000  0.45980000  1.0 0.5399993335
C  C48  1  0.45850000  0.61230000  0.45980000  1.0 0.5316742251
C  C49  1  0.59740000  0.41400000  0.53550000  1.0 0.486739914
C  C50  1  0.58600000  0.18340000  0.53550000  1.0 0.486739914
C  C51  1  0.81660000  0.40260000  0.53550000  1.0 0.486739914
C  C52  1  0.41400000  0.59740000  0.03550000  1.0 0.486739914
C  C53  1  0.18340000  0.58600000  0.03550000  1.0 0.486739914
C  C54  1  0.40260000  0.81660000  0.03550000  1.0 0.486739914
C  C55  1  0.58930000  0.38810000  0.57760000  1.0 -0.0797437401
C  C56  1  0.61190000  0.20120000  0.57760000  1.0 -0.0797437401
C  C57  1  0.79880000  0.41070000  0.57760000  1.0 -0.0797437401
C  C58  1  0.38810000  0.58930000  0.07760000  1.0 -0.0797437401
C  C59  1  0.20120000  0.61190000  0.07760000  1.0 -0.0797437401
C  C60  1  0.41070000  0.79880000  0.07760000  1.0 -0.0797437401
C  C61  1  0.58050000  0.33620000  0.58720000  1.0 -0.0907579741
C  C62  1  0.66380000  0.24430000  0.58720000  1.0 -0.0907579741
C  C63  1  0.75570000  0.41950000  0.58720000  1.0 -0.0907579741
C  C64  1  0.33620000  0.58050000  0.08720000  1.0 -0.0907579741
C  C65  1  0.24430000  0.66380000  0.08720000  1.0 -0.0907579741
C  C66  1  0.41950000  0.75570000  0.08720000  1.0 -0.0907579741
C  C67  1  0.57140000  0.31160000  0.63180000  1.0 -0.1585491855
C  C68  1  0.68840000  0.25980000  0.63180000  1.0 -0.1585491855
C  C69  1  0.74020000  0.42860000  0.63180000  1.0 -0.1585491855
C  C70  1  0.31160000  0.57140000  0.13180000  1.0 -0.1585491855
C  C71  1  0.25980000  0.68840000  0.13180000  1.0 -0.1585491855
C  C72  1  0.42860000  0.74020000  0.13180000  1.0 -0.1585491855
C  C73  1  0.57240000  0.34140000  0.67210000  1.0 0.0706451086
C  C74  1  0.65860000  0.23100000  0.67210000  1.0 0.0706451086
C  C75  1  0.76900000  0.42760000  0.67210000  1.0 0.0706451086
C  C76  1  0.34140000  0.57240000  0.17210000  1.0 0.0706451086
C  C77  1  0.23100000  0.65860000  0.17210000  1.0 0.0706451086
C  C78  1  0.42760000  0.76900000  0.17210000  1.0 0.0706451086
C  C79  1  0.58990000  0.39970000  0.66340000  1.0 -0.1498266699
C  C80  1  0.60030000  0.19020000  0.66340000  1.0 -0.1498266699
C  C81  1  0.80980000  0.41010000  0.66340000  1.0 -0.1498266699
C  C82  1  0.39970000  0.58990000  0.16340000  1.0 -0.1498266699
C  C83  1  0.19020000  0.60030000  0.16340000  1.0 -0.1498266699
C  C84  1  0.41010000  0.80980000  0.16340000  1.0 -0.1498266699
C  C85  1  0.59250000  0.41840000  0.61660000  1.0 -0.0797437401
C  C86  1  0.58160000  0.17410000  0.61660000  1.0 -0.0797437401
C  C87  1  0.82590000  0.40750000  0.61660000  1.0 -0.0797437401
C  C88  1  0.41840000  0.59250000  0.11660000  1.0 -0.0797437401
C  C89  1  0.17410000  0.58160000  0.11660000  1.0 -0.0797437401
C  C90  1  0.40750000  0.82590000  0.11660000  1.0 -0.0797437401
C  C91  1  0.56510000  0.31850000  0.71700000  1.0 0.0547194435
C  C92  1  0.68150000  0.24660000  0.71700000  1.0 0.0547194435
C  C93  1  0.75340000  0.43490000  0.71700000  1.0 0.0547194435
C  C94  1  0.31850000  0.56510000  0.21700000  1.0 0.0547194435
C  C95  1  0.24660000  0.68150000  0.21700000  1.0 0.0547194435
C  C96  1  0.43490000  0.75340000  0.21700000  1.0 0.0547194435
C  C97  1  0.52150000  0.26340000  0.72740000  1.0 -0.1498266699
C  C98  1  0.73660000  0.25810000  0.72740000  1.0 -0.1498266699
C  C99  1  0.74190000  0.47850000  0.72740000  1.0 -0.1498266699
C  C100  1  0.26340000  0.52150000  0.22740000  1.0 -0.1498266699
C  C101  1  0.25810000  0.73660000  0.22740000  1.0 -0.1498266699
C  C102  1  0.47850000  0.74190000  0.22740000  1.0 -0.1498266699
C  C103  1  0.50890000  0.24190000  0.77560000  1.0 -0.0797437401
C  C104  1  0.75810000  0.26700000  0.77560000  1.0 -0.0797437401
C  C105  1  0.73300000  0.49110000  0.77560000  1.0 -0.0797437401
C  C106  1  0.24190000  0.50890000  0.27560000  1.0 -0.0797437401
C  C107  1  0.26700000  0.75810000  0.27560000  1.0 -0.0797437401
C  C108  1  0.49110000  0.73300000  0.27560000  1.0 -0.0797437401
C  C109  1  0.53580000  0.27180000  0.81000000  1.0 -0.0014978529
C  C110  1  0.72820000  0.26400000  0.81000000  1.0 -0.0014978529
C  C111  1  0.73600000  0.46420000  0.81000000  1.0 -0.0014978529
C  C112  1  0.27180000  0.53580000  0.31000000  1.0 -0.0014978529
C  C113  1  0.26400000  0.72820000  0.31000000  1.0 -0.0014978529
C  C114  1  0.46420000  0.73600000  0.31000000  1.0 -0.0014978529
C  C115  1  0.57990000  0.32890000  0.80540000  1.0 -0.0907579741
C  C116  1  0.67110000  0.25100000  0.80540000  1.0 -0.0907579741
C  C117  1  0.74900000  0.42010000  0.80540000  1.0 -0.0907579741
C  C118  1  0.32890000  0.57990000  0.30540000  1.0 -0.0907579741
C  C119  1  0.25100000  0.67110000  0.30540000  1.0 -0.0907579741
C  C120  1  0.42010000  0.74900000  0.30540000  1.0 -0.0907579741
C  C121  1  0.59280000  0.34930000  0.75850000  1.0 -0.1498266699
C  C122  1  0.65070000  0.24350000  0.75850000  1.0 -0.1498266699
C  C123  1  0.75650000  0.40720000  0.75850000  1.0 -0.1498266699
C  C124  1  0.34930000  0.59280000  0.25850000  1.0 -0.1498266699
C  C125  1  0.24350000  0.65070000  0.25850000  1.0 -0.1498266699
C  C126  1  0.40720000  0.75650000  0.25850000  1.0 -0.1498266699
C  C127  1  0.51710000  0.25000000  0.85890000  1.0 0.5524439361
C  C128  1  0.75000000  0.26710000  0.85890000  1.0 0.5524439361
C  C129  1  0.73290000  0.48290000  0.85890000  1.0 0.5524439361
C  C130  1  0.25000000  0.51710000  0.35890000  1.0 0.5524439361
C  C131  1  0.26710000  0.75000000  0.35890000  1.0 0.5524439361
C  C132  1  0.48290000  0.73290000  0.35890000  1.0 0.5524439361
C  C133  1  0.51620000  0.72500000  0.96210000  1.0 0.5214091127
C  C134  1  0.27500000  0.79120000  0.96210000  1.0 0.5214091127
C  C135  1  0.20880000  0.48380000  0.96210000  1.0 0.5214091127
C  C136  1  0.72500000  0.51620000  0.46210000  1.0 0.5214091127
C  C137  1  0.79120000  0.27500000  0.46210000  1.0 0.5214091127
C  C138  1  0.48380000  0.20880000  0.46210000  1.0 0.5214091127
C  C139  1  0.56470000  0.78360000  0.97860000  1.0 -0.0190782564
C  C140  1  0.21640000  0.78110000  0.97860000  1.0 -0.0190782564
C  C141  1  0.21890000  0.43530000  0.97860000  1.0 -0.0190782564
C  C142  1  0.78360000  0.56470000  0.47860000  1.0 -0.0190782564
C  C143  1  0.78110000  0.21640000  0.47860000  1.0 -0.0190782564
C  C144  1  0.43530000  0.21890000  0.47860000  1.0 -0.0190782564
C  C145  1  0.61800000  0.79450000  0.98340000  1.0 -0.0907579741
C  C146  1  0.20550000  0.82350000  0.98340000  1.0 -0.0907579741
C  C147  1  0.17650000  0.38200000  0.98340000  1.0 -0.0907579741
C  C148  1  0.79450000  0.61800000  0.48340000  1.0 -0.0907579741
C  C149  1  0.82350000  0.20550000  0.48340000  1.0 -0.0907579741
C  C150  1  0.38200000  0.17650000  0.48340000  1.0 -0.0907579741
C  C151  1  0.65530000  0.84780000  0.99480000  1.0 -0.0190782564
C  C152  1  0.15220000  0.80750000  0.99480000  1.0 -0.0190782564
C  C153  1  0.19250000  0.34470000  0.99480000  1.0 -0.0190782564
C  C154  1  0.84780000  0.65530000  0.49480000  1.0 -0.0190782564
C  C155  1  0.80750000  0.15220000  0.49480000  1.0 -0.0190782564
C  C156  1  0.34470000  0.19250000  0.49480000  1.0 -0.0190782564
C  C157  1  0.64330000  0.88890000  0.00300000  1.0 -0.1498266699
C  C158  1  0.11110000  0.75440000  0.00300000  1.0 -0.1498266699
C  C159  1  0.24560000  0.35670000  0.00300000  1.0 -0.1498266699
C  C160  1  0.88890000  0.64330000  0.50300000  1.0 -0.1498266699
C  C161  1  0.75440000  0.11110000  0.50300000  1.0 -0.1498266699
C  C162  1  0.35670000  0.24560000  0.50300000  1.0 -0.1498266699
C  C163  1  0.58910000  0.87550000  0.99880000  1.0 0.2120789641
C  C164  1  0.12450000  0.71360000  0.99880000  1.0 0.2120789641
C  C165  1  0.28640000  0.41090000  0.99880000  1.0 0.2120789641
C  C166  1  0.87550000  0.58910000  0.49880000  1.0 0.2120789641
C  C167  1  0.71360000  0.12450000  0.49880000  1.0 0.2120789641
C  C168  1  0.41090000  0.28640000  0.49880000  1.0 0.2120789641
C  C169  1  0.55030000  0.82330000  0.98480000  1.0 -0.1704306108
C  C170  1  0.17670000  0.72700000  0.98480000  1.0 -0.1704306108
C  C171  1  0.27300000  0.44970000  0.98480000  1.0 -0.1704306108
C  C172  1  0.82330000  0.55030000  0.48480000  1.0 -0.1704306108
C  C173  1  0.72700000  0.17670000  0.48480000  1.0 -0.1704306108
C  C174  1  0.44970000  0.27300000  0.48480000  1.0 -0.1704306108
C  C175  1  0.71640000  0.85950000  0.00390000  1.0 0.5524439361
C  C176  1  0.14050000  0.85690000  0.00390000  1.0 0.5524439361
C  C177  1  0.14310000  0.28360000  0.00390000  1.0 0.5524439361
C  C178  1  0.85950000  0.71640000  0.50390000  1.0 0.5524439361
C  C179  1  0.85690000  0.14050000  0.50390000  1.0 0.5524439361
C  C180  1  0.28360000  0.14310000  0.50390000  1.0 0.5524439361
C  C181  1  0.60820000  0.42120000  0.35820000  1.0 0.5602255666
C  C182  1  0.57880000  0.18700000  0.35820000  1.0 0.5602255666
C  C183  1  0.81300000  0.39180000  0.35820000  1.0 0.5602255666
C  C184  1  0.42120000  0.60820000  0.85820000  1.0 0.5602255666
C  C185  1  0.18700000  0.57880000  0.85820000  1.0 0.5602255666
C  C186  1  0.39180000  0.81300000  0.85820000  1.0 0.5602255666
C  C187  1  0.60000000  0.39440000  0.30980000  1.0 -0.0014978529
C  C188  1  0.60560000  0.20560000  0.30980000  1.0 -0.0014978529
C  C189  1  0.79440000  0.40000000  0.30980000  1.0 -0.0014978529
C  C190  1  0.39440000  0.60000000  0.80980000  1.0 -0.0014978529
C  C191  1  0.20560000  0.60560000  0.80980000  1.0 -0.0014978529
C  C192  1  0.40000000  0.79440000  0.80980000  1.0 -0.0014978529
C  C193  1  0.60380000  0.42670000  0.27240000  1.0 -0.1090963777
C  C194  1  0.57330000  0.17710000  0.27240000  1.0 -0.1090963777
C  C195  1  0.82290000  0.39620000  0.27240000  1.0 -0.1090963777
C  C196  1  0.42670000  0.60380000  0.77240000  1.0 -0.1090963777
C  C197  1  0.17710000  0.57330000  0.77240000  1.0 -0.1090963777
C  C198  1  0.39620000  0.82290000  0.77240000  1.0 -0.1090963777
C  C199  1  0.59590000  0.40690000  0.22530000  1.0 -0.1498266699
C  C200  1  0.59310000  0.18900000  0.22530000  1.0 -0.1498266699
C  C201  1  0.81100000  0.40410000  0.22530000  1.0 -0.1498266699
C  C202  1  0.40690000  0.59590000  0.72530000  1.0 -0.1498266699
C  C203  1  0.18900000  0.59310000  0.72530000  1.0 -0.1498266699
C  C204  1  0.40410000  0.81100000  0.72530000  1.0 -0.1498266699
C  C205  1  0.58140000  0.35010000  0.21910000  1.0 0.0706451086
C  C206  1  0.64990000  0.23130000  0.21910000  1.0 0.0706451086
C  C207  1  0.76870000  0.41860000  0.21910000  1.0 0.0706451086
C  C208  1  0.35010000  0.58140000  0.71910000  1.0 0.0706451086
C  C209  1  0.23130000  0.64990000  0.71910000  1.0 0.0706451086
C  C210  1  0.41860000  0.76870000  0.71910000  1.0 0.0706451086
C  C211  1  0.57870000  0.31850000  0.25860000  1.0 -0.1405474266
C  C212  1  0.68150000  0.26020000  0.25860000  1.0 -0.1405474266
C  C213  1  0.73980000  0.42130000  0.25860000  1.0 -0.1405474266
C  C214  1  0.31850000  0.57870000  0.75860000  1.0 -0.1405474266
C  C215  1  0.26020000  0.68150000  0.75860000  1.0 -0.1405474266
C  C216  1  0.42130000  0.73980000  0.75860000  1.0 -0.1405474266
C  C217  1  0.58770000  0.34310000  0.30330000  1.0 -0.0907579741
C  C218  1  0.65690000  0.24460000  0.30330000  1.0 -0.0907579741
C  C219  1  0.75540000  0.41230000  0.30330000  1.0 -0.0907579741
C  C220  1  0.34310000  0.58770000  0.80330000  1.0 -0.0907579741
C  C221  1  0.24460000  0.65690000  0.80330000  1.0 -0.0907579741
C  C222  1  0.41230000  0.75540000  0.80330000  1.0 -0.0907579741
C  C223  1  0.56810000  0.32450000  0.17290000  1.0 0.0891970735
C  C224  1  0.67550000  0.24360000  0.17290000  1.0 0.0891970735
C  C225  1  0.75640000  0.43190000  0.17290000  1.0 0.0891970735
C  C226  1  0.32450000  0.56810000  0.67290000  1.0 0.0891970735
C  C227  1  0.24360000  0.67550000  0.67290000  1.0 0.0891970735
C  C228  1  0.43190000  0.75640000  0.67290000  1.0 0.0891970735
C  C229  1  0.59610000  0.35300000  0.13210000  1.0 -0.1866320815
C  C230  1  0.64700000  0.24310000  0.13210000  1.0 -0.1866320815
C  C231  1  0.75690000  0.40390000  0.13210000  1.0 -0.1866320815
C  C232  1  0.35300000  0.59610000  0.63210000  1.0 -0.1866320815
C  C233  1  0.24310000  0.64700000  0.63210000  1.0 -0.1866320815
C  C234  1  0.40390000  0.75690000  0.63210000  1.0 -0.1866320815
C  C235  1  0.58220000  0.33280000  0.08690000  1.0 -0.040196687
C  C236  1  0.66720000  0.24940000  0.08690000  1.0 -0.040196687
C  C237  1  0.75060000  0.41780000  0.08690000  1.0 -0.040196687
C  C238  1  0.33280000  0.58220000  0.58690000  1.0 -0.040196687
C  C239  1  0.24940000  0.66720000  0.58690000  1.0 -0.040196687
C  C240  1  0.41780000  0.75060000  0.58690000  1.0 -0.040196687
C  C241  1  0.53820000  0.27520000  0.08370000  1.0 -0.040196687
C  C242  1  0.72480000  0.26300000  0.08370000  1.0 -0.040196687
C  C243  1  0.73700000  0.46180000  0.08370000  1.0 -0.040196687
C  C244  1  0.27520000  0.53820000  0.58370000  1.0 -0.040196687
C  C245  1  0.26300000  0.72480000  0.58370000  1.0 -0.040196687
C  C246  1  0.46180000  0.73700000  0.58370000  1.0 -0.040196687
C  C247  1  0.50890000  0.24630000  0.11840000  1.0 -0.0907579741
C  C248  1  0.75370000  0.26260000  0.11840000  1.0 -0.0907579741
C  C249  1  0.73740000  0.49110000  0.11840000  1.0 -0.0907579741
C  C250  1  0.24630000  0.50890000  0.61840000  1.0 -0.0907579741
C  C251  1  0.26260000  0.75370000  0.61840000  1.0 -0.0907579741
C  C252  1  0.49110000  0.73740000  0.61840000  1.0 -0.0907579741
C  C253  1  0.52550000  0.26900000  0.16250000  1.0 -0.1704306108
C  C254  1  0.73100000  0.25650000  0.16250000  1.0 -0.1704306108
C  C255  1  0.74350000  0.47450000  0.16250000  1.0 -0.1704306108
C  C256  1  0.26900000  0.52550000  0.66250000  1.0 -0.1704306108
C  C257  1  0.25650000  0.73100000  0.66250000  1.0 -0.1704306108
C  C258  1  0.47450000  0.74350000  0.66250000  1.0 -0.1704306108
C  C259  1  0.52040000  0.25380000  0.03290000  1.0 0.5602255666
C  C260  1  0.74620000  0.26660000  0.03290000  1.0 0.5602255666
C  C261  1  0.73340000  0.47960000  0.03290000  1.0 0.5602255666
C  C262  1  0.25380000  0.52040000  0.53290000  1.0 0.5602255666
C  C263  1  0.26660000  0.74620000  0.53290000  1.0 0.5602255666
C  C264  1  0.47960000  0.73340000  0.53290000  1.0 0.5602255666
C  C265  1  0.85420000  0.91400000  0.09060000  1.0 0.5399993335
C  C266  1  0.08600000  0.94020000  0.09060000  1.0 0.5399993335
C  C267  1  0.05980000  0.14580000  0.09060000  1.0 0.5399993335
C  C268  1  0.91400000  0.85420000  0.59060000  1.0 0.5399993335
C  C269  1  0.94020000  0.08600000  0.59060000  1.0 0.5399993335
C  C270  1  0.14580000  0.05980000  0.59060000  1.0 0.5399993335
C  C271  1  0.87130000  0.93680000  0.14020000  1.0 -0.0089476801
C  C272  1  0.06320000  0.93450000  0.14020000  1.0 -0.0089476801
C  C273  1  0.06550000  0.12870000  0.14020000  1.0 -0.0089476801
C  C274  1  0.93680000  0.87130000  0.64020000  1.0 -0.0089476801
C  C275  1  0.93450000  0.06320000  0.64020000  1.0 -0.0089476801
C  C276  1  0.12870000  0.06550000  0.64020000  1.0 -0.0089476801
C  C277  1  0.84110000  0.90290000  0.17980000  1.0 -0.0907579741
C  C278  1  0.09710000  0.93820000  0.17980000  1.0 -0.0960484885
C  C279  1  0.06180000  0.15890000  0.17980000  1.0 -0.0960484885
C  C280  1  0.90290000  0.84110000  0.67980000  1.0 -0.0907579741
C  C281  1  0.93820000  0.09710000  0.67980000  1.0 -0.0907579741
C  C282  1  0.15890000  0.06180000  0.67980000  1.0 -0.0960484885
C  C283  1  0.85340000  0.92620000  0.22460000  1.0 -0.1405474266
C  C284  1  0.07380000  0.92720000  0.22460000  1.0 -0.1405474266
C  C285  1  0.07280000  0.14660000  0.22460000  1.0 -0.1405474266
C  C286  1  0.92620000  0.85340000  0.72460000  1.0 -0.1405474266
C  C287  1  0.92720000  0.07380000  0.72460000  1.0 -0.1405474266
C  C288  1  0.14660000  0.07280000  0.72460000  1.0 -0.1405474266
C  C289  1  0.90050000  0.98480000  0.22920000  1.0 0.0754154676
C  C290  1  0.01520000  0.91570000  0.22920000  1.0 0.0754154676
C  C291  1  0.08430000  0.09950000  0.22920000  1.0 0.0754154676
C  C292  1  0.98480000  0.90050000  0.72920000  1.0 0.0754154676
C  C293  1  0.91570000  0.01520000  0.72920000  1.0 0.0754154676
C  C294  1  0.09950000  0.08430000  0.72920000  1.0 0.0754154676
C  C295  1  0.92670000  0.01650000  0.19210000  1.0 -0.1405474266
C  C296  1  0.98350000  0.91020000  0.19210000  1.0 -0.1405474266
C  C297  1  0.08980000  0.07330000  0.19210000  1.0 -0.1405474266
C  C298  1  0.01650000  0.92670000  0.69210000  1.0 -0.1405474266
C  C299  1  0.91020000  0.98350000  0.69210000  1.0 -0.1405474266
C  C300  1  0.07330000  0.08980000  0.69210000  1.0 -0.1405474266
C  C301  1  0.91270000  0.99140000  0.14770000  1.0 -0.0960484885
C  C302  1  0.00860000  0.92130000  0.14770000  1.0 -0.0960484885
C  C303  1  0.07870000  0.08730000  0.14770000  1.0 -0.0960484885
C  C304  1  0.99140000  0.91270000  0.64770000  1.0 -0.0960484885
C  C305  1  0.92130000  0.00860000  0.64770000  1.0 -0.0960484885
C  C306  1  0.08730000  0.07870000  0.64770000  1.0 -0.0960484885
C  C307  1  0.90800000  0.00710000  0.28010000  1.0 0.0599822803
C  C308  1  0.99290000  0.90090000  0.28010000  1.0 0.0599822803
C  C309  1  0.09910000  0.09200000  0.28010000  1.0 0.0599822803
C  C310  1  0.00710000  0.90800000  0.78010000  1.0 0.0599822803
C  C311  1  0.90090000  0.99290000  0.78010000  1.0 0.0599822803
C  C312  1  0.09200000  0.09910000  0.78010000  1.0 0.0599822803
C  C313  1  0.90750000  0.98040000  0.31820000  1.0 -0.1293917127
C  C314  1  0.01960000  0.92710000  0.31820000  1.0 -0.1293917127
C  C315  1  0.07290000  0.09250000  0.31820000  1.0 -0.1293917127
C  C316  1  0.98040000  0.90750000  0.81820000  1.0 -0.1293917127
C  C317  1  0.92710000  0.01960000  0.81820000  1.0 -0.1293917127
C  C318  1  0.09250000  0.07290000  0.81820000  1.0 -0.1293917127
C  C319  1  0.91550000  0.00010000  0.36500000  1.0 -0.0907579741
C  C320  1  0.99990000  0.91540000  0.36500000  1.0 -0.0907579741
C  C321  1  0.08460000  0.08450000  0.36500000  1.0 -0.0907579741
C  C322  1  0.00010000  0.91550000  0.86500000  1.0 -0.0907579741
C  C323  1  0.91540000  0.99990000  0.86500000  1.0 -0.0907579741
C  C324  1  0.08450000  0.08460000  0.86500000  1.0 -0.0907579741
C  C325  1  0.92200000  0.05400000  0.37140000  1.0 0.003155983
C  C326  1  0.94600000  0.86800000  0.37140000  1.0 0.003155983
C  C327  1  0.13200000  0.07800000  0.37140000  1.0 0.003155983
C  C328  1  0.05400000  0.92200000  0.87140000  1.0 0.003155983
C  C329  1  0.86800000  0.94600000  0.87140000  1.0 0.003155983
C  C330  1  0.07800000  0.13200000  0.87140000  1.0 0.003155983
C  C331  1  0.92730000  0.08800000  0.33030000  1.0 -0.0960484885
C  C332  1  0.91200000  0.83930000  0.33030000  1.0 -0.0960484885
C  C333  1  0.16070000  0.07270000  0.33030000  1.0 -0.0960484885
C  C334  1  0.08800000  0.92730000  0.83030000  1.0 -0.0960484885
C  C335  1  0.83930000  0.91200000  0.83030000  1.0 -0.0960484885
C  C336  1  0.07270000  0.16070000  0.83030000  1.0 -0.0960484885
C  C337  1  0.91780000  0.06280000  0.28230000  1.0 -0.1585491855
C  C338  1  0.93720000  0.85500000  0.28230000  1.0 -0.1585491855
C  C339  1  0.14500000  0.08220000  0.28230000  1.0 -0.1585491855
C  C340  1  0.06280000  0.91780000  0.78230000  1.0 -0.1585491855
C  C341  1  0.85500000  0.93720000  0.78230000  1.0 -0.1585491855
C  C342  1  0.08220000  0.14500000  0.78230000  1.0 -0.1585491855
C  C343  1  0.92900000  0.07720000  0.42040000  1.0 0.5147424543
C  C344  1  0.92280000  0.85180000  0.42040000  1.0 0.5147424543
C  C345  1  0.14820000  0.07100000  0.42040000  1.0 0.5214091127
C  C346  1  0.07720000  0.92900000  0.92040000  1.0 0.5214091127
C  C347  1  0.85180000  0.92280000  0.92040000  1.0 0.5147424543
C  C348  1  0.07100000  0.14820000  0.92040000  1.0 0.5214091127
C  C349  1  0.38270000  0.19210000  0.95110000  1.0 0.5399993335
C  C350  1  0.80790000  0.19060000  0.95110000  1.0 0.5399993335
C  C351  1  0.80940000  0.61730000  0.95110000  1.0 0.5524439361
C  C352  1  0.19210000  0.38270000  0.45110000  1.0 0.5399993335
C  C353  1  0.19060000  0.80790000  0.45110000  1.0 0.5399993335
C  C354  1  0.61730000  0.80940000  0.45110000  1.0 0.5524439361
C  C355  1  0.32550000  0.18270000  0.95570000  1.0 -0.0343957991
C  C356  1  0.81730000  0.14280000  0.95570000  1.0 -0.0343957991
C  C357  1  0.85720000  0.67450000  0.95570000  1.0 -0.0343957991
C  C358  1  0.18270000  0.32550000  0.45570000  1.0 -0.0343957991
C  C359  1  0.14280000  0.81730000  0.45570000  1.0 -0.0343957991
C  C360  1  0.67450000  0.85720000  0.45570000  1.0 -0.040196687
C  C361  1  0.28250000  0.12750000  0.96510000  1.0 -0.0907579741
C  C362  1  0.87250000  0.15500000  0.96510000  1.0 -0.0907579741
C  C363  1  0.84500000  0.71750000  0.96510000  1.0 -0.0907579741
C  C364  1  0.12750000  0.28250000  0.46510000  1.0 -0.0907579741
C  C365  1  0.15500000  0.87250000  0.46510000  1.0 -0.0907579741
C  C366  1  0.71750000  0.84500000  0.46510000  1.0 -0.0907579741
C  C367  1  0.22860000  0.11520000  0.97500000  1.0 -0.0089476801
C  C368  1  0.88480000  0.11340000  0.97500000  1.0 -0.0089476801
C  C369  1  0.88660000  0.77140000  0.97500000  1.0 -0.0089476801
C  C370  1  0.11520000  0.22860000  0.47500000  1.0 -0.0089476801
C  C371  1  0.11340000  0.88480000  0.47500000  1.0 -0.0089476801
C  C372  1  0.77140000  0.88660000  0.47500000  1.0 -0.0089476801
C  C373  1  0.21290000  0.15500000  0.96610000  1.0 -0.1498266699
C  C374  1  0.84500000  0.05790000  0.96610000  1.0 -0.1498266699
C  C375  1  0.94210000  0.78710000  0.96610000  1.0 -0.1498266699
C  C376  1  0.15500000  0.21290000  0.46610000  1.0 -0.1498266699
C  C377  1  0.05790000  0.84500000  0.46610000  1.0 -0.1498266699
C  C378  1  0.78710000  0.94210000  0.46610000  1.0 -0.1498266699
C  C379  1  0.25310000  0.21040000  0.95180000  1.0 0.2214741089
C  C380  1  0.78960000  0.04270000  0.95180000  1.0 0.2214741089
C  C381  1  0.95730000  0.74690000  0.95180000  1.0 0.2214741089
C  C382  1  0.21040000  0.25310000  0.45180000  1.0 0.2214741089
C  C383  1  0.04270000  0.78960000  0.45180000  1.0 0.2214741089
C  C384  1  0.74690000  0.95730000  0.45180000  1.0 0.2214741089
C  C385  1  0.30900000  0.22380000  0.94660000  1.0 -0.1704306108
C  C386  1  0.77620000  0.08520000  0.94660000  1.0 -0.1763220252
C  C387  1  0.91480000  0.69100000  0.94660000  1.0 -0.1704306108
C  C388  1  0.22380000  0.30900000  0.44660000  1.0 -0.1704306108
C  C389  1  0.08520000  0.77620000  0.44660000  1.0 -0.1763220252
C  C390  1  0.69100000  0.91480000  0.44660000  1.0 -0.1704306108
C  C391  1  0.18670000  0.05940000  0.00360000  1.0 0.5316742251
C  C392  1  0.94060000  0.12730000  0.00360000  1.0 0.5316742251
C  C393  1  0.87270000  0.81330000  0.00360000  1.0 0.5316742251
C  C394  1  0.05940000  0.18670000  0.50360000  1.0 0.5316742251
C  C395  1  0.12730000  0.94060000  0.50360000  1.0 0.5316742251
C  C396  1  0.81330000  0.87270000  0.50360000  1.0 0.5316742251
N  N1  1  0.56930000  0.91450000  0.01640000  1.0 -0.1293917127
N  N2  1  0.08550000  0.65480000  0.01640000  1.0 -0.1293917127
N  N3  1  0.34520000  0.43070000  0.01640000  1.0 -0.1293917127
N  N4  1  0.91450000  0.56930000  0.51640000  1.0 -0.1293917127
N  N5  1  0.65480000  0.08550000  0.51640000  1.0 -0.1293917127
N  N6  1  0.43070000  0.34520000  0.51640000  1.0 -0.1293917127
N  N7  1  0.23520000  0.25330000  0.94390000  1.0 -0.0907579741
N  N8  1  0.74670000  0.98190000  0.94390000  1.0 -0.0907579741
N  N9  1  0.01810000  0.76480000  0.94390000  1.0 -0.0960484885
N  N10  1  0.25330000  0.23520000  0.44390000  1.0 -0.0960484885
N  N11  1  0.98190000  0.74670000  0.44390000  1.0 -0.0907579741
N  N12  1  0.76480000  0.01810000  0.44390000  1.0 -0.0907579741
N  N13  1  0.67280000  0.09810000  0.93910000  1.0 0.0091837454
N  N14  1  0.90190000  0.57470000  0.93910000  1.0 0.0091837454
N  N15  1  0.42530000  0.32720000  0.93910000  1.0 0.0091837454
N  N16  1  0.09810000  0.67280000  0.43910000  1.0 0.0091837454
N  N17  1  0.57470000  0.90190000  0.43910000  1.0 0.0091837454
N  N18  1  0.32720000  0.42530000  0.43910000  1.0 0.0091837454
N  N19  1  0.91550000  0.58250000  0.87820000  1.0 -0.1293917127
N  N20  1  0.41750000  0.33300000  0.87820000  1.0 -0.1293917127
N  N21  1  0.66700000  0.08450000  0.87820000  1.0 -0.1293917127
N  N22  1  0.58250000  0.91550000  0.37820000  1.0 -0.1293917127
N  N23  1  0.33300000  0.41750000  0.37820000  1.0 -0.1293917127
N  N24  1  0.08450000  0.66700000  0.37820000  1.0 -0.1293917127
O  O1  1  0.42640000  0.93800000  0.94250000  1.0 -0.4191206789
O  O2  1  0.06200000  0.48840000  0.94250000  1.0 -0.4191206789
O  O3  1  0.51160000  0.57360000  0.94250000  1.0 -0.4191206789
O  O4  1  0.93800000  0.42640000  0.44250000  1.0 -0.4191206789
O  O5  1  0.48840000  0.06200000  0.44250000  1.0 -0.4191206789
O  O6  1  0.57360000  0.51160000  0.44250000  1.0 -0.4191206789
O  O7  1  0.48180000  0.90570000  0.94030000  1.0 -0.5018059314
O  O8  1  0.09430000  0.57610000  0.94030000  1.0 -0.5018059314
O  O9  1  0.42390000  0.51820000  0.94030000  1.0 -0.5018059314
O  O10  1  0.90570000  0.48180000  0.44030000  1.0 -0.5018059314
O  O11  1  0.57610000  0.09430000  0.44030000  1.0 -0.5018059314
O  O12  1  0.51820000  0.42390000  0.44030000  1.0 -0.5018059314
O  O13  1  0.59600000  0.38590000  0.49540000  1.0 -0.5680725429
O  O14  1  0.61410000  0.21010000  0.49540000  1.0 -0.5753764228
O  O15  1  0.78990000  0.40400000  0.49540000  1.0 -0.5753764228
O  O16  1  0.38590000  0.59600000  0.99540000  1.0 -0.5753764228
O  O17  1  0.21010000  0.61410000  0.99540000  1.0 -0.5753764228
O  O18  1  0.40400000  0.78990000  0.99540000  1.0 -0.5753764228
O  O19  1  0.60490000  0.45920000  0.52420000  1.0 -0.3860706633
O  O20  1  0.54080000  0.14570000  0.52420000  1.0 -0.3860706633
O  O21  1  0.85430000  0.39510000  0.52420000  1.0 -0.3860706633
O  O22  1  0.45920000  0.60490000  0.02420000  1.0 -0.3860706633
O  O23  1  0.14570000  0.54080000  0.02420000  1.0 -0.3860706633
O  O24  1  0.39510000  0.85430000  0.02420000  1.0 -0.3860706633
O  O25  1  0.46910000  0.70350000  0.96070000  1.0 -0.4191206789
O  O26  1  0.29650000  0.76560000  0.96070000  1.0 -0.4191206789
O  O27  1  0.23440000  0.53090000  0.96070000  1.0 -0.4191206789
O  O28  1  0.70350000  0.46910000  0.46070000  1.0 -0.4191206789
O  O29  1  0.76560000  0.29650000  0.46070000  1.0 -0.4191206789
O  O30  1  0.53090000  0.23440000  0.46070000  1.0 -0.4191206789
O  O31  1  0.53620000  0.68950000  0.95150000  1.0 -0.4713560885
O  O32  1  0.31050000  0.84670000  0.95150000  1.0 -0.4713560885
O  O33  1  0.15330000  0.46380000  0.95150000  1.0 -0.4713560885
O  O34  1  0.68950000  0.53620000  0.45150000  1.0 -0.4713560885
O  O35  1  0.84670000  0.31050000  0.45150000  1.0 -0.4713560885
O  O36  1  0.46380000  0.15330000  0.45150000  1.0 -0.4713560885
O  O37  1  0.61770000  0.47010000  0.36630000  1.0 -0.5018059314
O  O38  1  0.52990000  0.14760000  0.36630000  1.0 -0.5018059314
O  O39  1  0.85240000  0.38230000  0.36630000  1.0 -0.5018059314
O  O40  1  0.47010000  0.61770000  0.86630000  1.0 -0.5018059314
O  O41  1  0.14760000  0.52990000  0.86630000  1.0 -0.5018059314
O  O42  1  0.38230000  0.85240000  0.86630000  1.0 -0.5018059314
O  O43  1  0.60580000  0.39080000  0.39210000  1.0 -0.543392181
O  O44  1  0.60920000  0.21500000  0.39210000  1.0 -0.543392181
O  O45  1  0.78500000  0.39420000  0.39210000  1.0 -0.543392181
O  O46  1  0.39080000  0.60580000  0.89210000  1.0 -0.543392181
O  O47  1  0.21500000  0.60920000  0.89210000  1.0 -0.543392181
O  O48  1  0.39420000  0.78500000  0.89210000  1.0 -0.543392181
O  O49  1  0.57050000  0.19850000  0.94780000  1.0 -0.4191206789
O  O50  1  0.80150000  0.37200000  0.94780000  1.0 -0.4191206789
O  O51  1  0.62800000  0.42950000  0.94780000  1.0 -0.4191206789
O  O52  1  0.19850000  0.57050000  0.44780000  1.0 -0.4251342015
O  O53  1  0.37200000  0.80150000  0.44780000  1.0 -0.4251342015
O  O54  1  0.42950000  0.62800000  0.44780000  1.0 -0.4251342015
O  O55  1  0.48730000  0.13310000  0.94950000  1.0 -0.4493097908
O  O56  1  0.86690000  0.35420000  0.94950000  1.0 -0.4493097908
O  O57  1  0.64580000  0.51270000  0.94950000  1.0 -0.4493097908
O  O58  1  0.13310000  0.48730000  0.44950000  1.0 -0.4493097908
O  O59  1  0.35420000  0.86690000  0.44950000  1.0 -0.4493097908
O  O60  1  0.51270000  0.64580000  0.44950000  1.0 -0.4493097908
O  O61  1  0.54330000  0.28110000  0.89490000  1.0 -0.5680725429
O  O62  1  0.71890000  0.26220000  0.89490000  1.0 -0.5680725429
O  O63  1  0.73780000  0.45670000  0.89490000  1.0 -0.5680725429
O  O64  1  0.28110000  0.54330000  0.39490000  1.0 -0.5680725429
O  O65  1  0.26220000  0.71890000  0.39490000  1.0 -0.5680725429
O  O66  1  0.45670000  0.73780000  0.39490000  1.0 -0.5680725429
O  O67  1  0.47510000  0.19980000  0.86530000  1.0 -0.5183460833
O  O68  1  0.80020000  0.27530000  0.86530000  1.0 -0.5183460833
O  O69  1  0.72470000  0.52490000  0.86530000  1.0 -0.5183460833
O  O70  1  0.19980000  0.47510000  0.36530000  1.0 -0.5183460833
O  O71  1  0.27530000  0.80020000  0.36530000  1.0 -0.5183460833
O  O72  1  0.52490000  0.72470000  0.36530000  1.0 -0.5183460833
O  O73  1  0.75830000  0.91050000  0.00650000  1.0 -0.5115886764
O  O74  1  0.08950000  0.84780000  0.00650000  1.0 -0.5115886764
O  O75  1  0.15220000  0.24170000  0.00650000  1.0 -0.5183460833
O  O76  1  0.91050000  0.75830000  0.50650000  1.0 -0.5115886764
O  O77  1  0.84780000  0.08950000  0.50650000  1.0 -0.5115886764
O  O78  1  0.24170000  0.15220000  0.50650000  1.0 -0.5183460833
O  O79  1  0.72740000  0.82030000  0.00360000  1.0 -0.4775365736
O  O80  1  0.17970000  0.90710000  0.00360000  1.0 -0.4775365736
O  O81  1  0.09290000  0.27260000  0.00360000  1.0 -0.4775365736
O  O82  1  0.82030000  0.72740000  0.50360000  1.0 -0.4775365736
O  O83  1  0.90710000  0.17970000  0.50360000  1.0 -0.4775365736
O  O84  1  0.27260000  0.09290000  0.50360000  1.0 -0.4775365736
O  O85  1  0.48350000  0.20370000  0.02410000  1.0 -0.4713560885
O  O86  1  0.79630000  0.27980000  0.02410000  1.0 -0.4713560885
O  O87  1  0.72020000  0.51650000  0.02410000  1.0 -0.4713560885
O  O88  1  0.20370000  0.48350000  0.52410000  1.0 -0.4713560885
O  O89  1  0.27980000  0.79630000  0.52410000  1.0 -0.4713560885
O  O90  1  0.51650000  0.72020000  0.52410000  1.0 -0.4713560885
O  O91  1  0.54340000  0.28040000  0.99490000  1.0 -0.5319492316
O  O92  1  0.71960000  0.26300000  0.99490000  1.0 -0.5319492316
O  O93  1  0.73700000  0.45660000  0.99490000  1.0 -0.5319492316
O  O94  1  0.28040000  0.54340000  0.49490000  1.0 -0.5319492316
O  O95  1  0.26300000  0.71960000  0.49490000  1.0 -0.5319492316
O  O96  1  0.45660000  0.73700000  0.49490000  1.0 -0.5319492316
O  O97  1  0.87950000  0.94510000  0.05690000  1.0 -0.5483964926
O  O98  1  0.05490000  0.93440000  0.05690000  1.0 -0.5483964926
O  O99  1  0.06560000  0.12050000  0.05690000  1.0 -0.5483964926
O  O100  1  0.94510000  0.87950000  0.55690000  1.0 -0.5483964926
O  O101  1  0.93440000  0.05490000  0.55690000  1.0 -0.5483964926
O  O102  1  0.12050000  0.06560000  0.55690000  1.0 -0.5483964926
O  O103  1  0.81400000  0.86560000  0.08570000  1.0 -0.5018059314
O  O104  1  0.13440000  0.94840000  0.08570000  1.0 -0.5018059314
O  O105  1  0.05160000  0.18600000  0.08570000  1.0 -0.5018059314
O  O106  1  0.86560000  0.81400000  0.58570000  1.0 -0.5018059314
O  O107  1  0.94840000  0.13440000  0.58570000  1.0 -0.5018059314
O  O108  1  0.18600000  0.05160000  0.58570000  1.0 -0.5018059314
O  O109  1  0.93030000  0.05230000  0.45410000  1.0 -0.4876026756
O  O110  1  0.94770000  0.87800000  0.45410000  1.0 -0.4876026756
O  O111  1  0.12200000  0.06970000  0.45410000  1.0 -0.4876026756
O  O112  1  0.05230000  0.93030000  0.95410000  1.0 -0.4876026756
O  O113  1  0.87800000  0.94770000  0.95410000  1.0 -0.4876026756
O  O114  1  0.06970000  0.12200000  0.95410000  1.0 -0.4876026756
O  O115  1  0.93470000  0.12880000  0.41960000  1.0 -0.5319492316
O  O116  1  0.87120000  0.80590000  0.41960000  1.0 -0.5319492316
O  O117  1  0.19410000  0.06530000  0.41960000  1.0 -0.5319492316
O  O118  1  0.12880000  0.93470000  0.91960000  1.0 -0.5319492316
O  O119  1  0.80590000  0.87120000  0.91960000  1.0 -0.5319492316
O  O120  1  0.06530000  0.19410000  0.91960000  1.0 -0.5319492316
O  O121  1  0.39530000  0.15390000  0.94720000  1.0 -0.5018059314
O  O122  1  0.84610000  0.24140000  0.94720000  1.0 -0.5018059314
O  O123  1  0.75860000  0.60470000  0.94720000  1.0 -0.5018059314
O  O124  1  0.15390000  0.39530000  0.44720000  1.0 -0.5018059314
O  O125  1  0.24140000  0.84610000  0.44720000  1.0 -0.5115886764
O  O126  1  0.60470000  0.75860000  0.44720000  1.0 -0.5018059314
O  O127  1  0.42410000  0.24570000  0.94570000  1.0 -0.5483964926
O  O128  1  0.75430000  0.17840000  0.94570000  1.0 -0.5483964926
O  O129  1  0.82160000  0.57590000  0.94570000  1.0 -0.5483964926
O  O130  1  0.24570000  0.42410000  0.44570000  1.0 -0.5483964926
O  O131  1  0.17840000  0.75430000  0.44570000  1.0 -0.5483964926
O  O132  1  0.57590000  0.82160000  0.44570000  1.0 -0.5483964926
O  O133  1  0.13740000  0.04140000  0.99820000  1.0 -0.4876026756
O  O134  1  0.95860000  0.09600000  0.99820000  1.0 -0.4876026756
O  O135  1  0.90400000  0.86260000  0.99820000  1.0 -0.4876026756
O  O136  1  0.04140000  0.13740000  0.49820000  1.0 -0.4876026756
O  O137  1  0.09600000  0.95860000  0.49820000  1.0 -0.4876026756
O  O138  1  0.86260000  0.90400000  0.49820000  1.0 -0.4876026756
O  O139  1  0.20100000  0.02190000  0.99840000  1.0 -0.4493097908
O  O140  1  0.97810000  0.17910000  0.99840000  1.0 -0.4493097908
O  O141  1  0.82090000  0.79900000  0.99840000  1.0 -0.4493097908
O  O142  1  0.02190000  0.20100000  0.49840000  1.0 -0.4493097908
O  O143  1  0.17910000  0.97810000  0.49840000  1.0 -0.4493097908
O  O144  1  0.79900000  0.82090000  0.49840000  1.0 -0.4493097908
