# DDEC6 charges by PACMAN v1.1 (https://github.com/mtap-research/PACMAN-charge/)
data_ALONEV_ion_pacman
_symmetry_space_group_name_H-M   'P 1'
_cell_length_a   25.58710000
_cell_length_b   25.58710000
_cell_length_c   25.58710000
_cell_angle_alpha   106.59400000
_cell_angle_beta   106.59400000
_cell_angle_gamma   115.39200000
_symmetry_Int_Tables_number   1
_chemical_formula_structural   MnNb6H50C32N11(Cl6O)2
_chemical_formula_sum   'Mn8 Nb48 H400 C256 N88 Cl96 O16'
_cell_volume   12791.38614254
_cell_formula_units_Z   8
loop_
 _symmetry_equiv_pos_site_id
 _symmetry_equiv_pos_as_xyz
  1  'x, y, z'
loop_
 _atom_site_type_symbol
 _atom_site_label
 _atom_site_symmetry_multiplicity
 _atom_site_fract_x
 _atom_site_fract_y
 _atom_site_fract_z
 _atom_site_occupancy
 _atom_site_charge
Mn  Mn1  1  0.37568000  0.87568000  0.50000000  1.0 0.8923873469
Mn  Mn2  1  0.12568000  0.12568000  0.00000000  1.0 0.8923873469
Mn  Mn3  1  0.87432000  0.87432000  0.00000000  1.0 0.8958283826
Mn  Mn4  1  0.12432000  0.62432000  0.50000000  1.0 0.8923873469
Mn  Mn5  1  0.37540000  0.37540000  0.00000000  1.0 0.7082614913
Mn  Mn6  1  0.62540000  0.12540000  0.50000000  1.0 0.7082614913
Mn  Mn7  1  0.87460000  0.37460000  0.50000000  1.0 0.7082614913
Mn  Mn8  1  0.62460000  0.62460000  0.00000000  1.0 0.7082614913
Nb  Nb1  1  0.47200000  0.67156000  0.28064000  1.0 0.537798123
Nb  Nb2  1  0.39092000  0.19136000  0.71936000  1.0 0.537798123
Nb  Nb3  1  0.44136000  0.22200000  0.30044000  1.0 0.537798123
Nb  Nb4  1  0.92156000  0.14092000  0.69956000  1.0 0.537798123
Nb  Nb5  1  0.77800000  0.07844000  0.21936000  1.0 0.537798123
Nb  Nb6  1  0.85908000  0.55864000  0.78064000  1.0 0.537798123
Nb  Nb7  1  0.80864000  0.52800000  0.19956000  1.0 0.5313949073
Nb  Nb8  1  0.32844000  0.60908000  0.80044000  1.0 0.537798123
Nb  Nb9  1  0.36543000  0.56442000  0.28125000  1.0 0.5313949073
Nb  Nb10  1  0.28317000  0.08418000  0.71875000  1.0 0.5313949073
Nb  Nb11  1  0.33418000  0.11543000  0.30101000  1.0 0.5313949073
Nb  Nb12  1  0.81442000  0.03317000  0.69899000  1.0 0.5313949073
Nb  Nb13  1  0.88457000  0.18558000  0.21875000  1.0 0.5313949073
Nb  Nb14  1  0.96683000  0.66582000  0.78125000  1.0 0.5313949073
Nb  Nb15  1  0.91582000  0.63457000  0.19899000  1.0 0.5313949073
Nb  Nb16  1  0.43558000  0.71683000  0.80101000  1.0 0.5313949073
Nb  Nb17  1  0.35820000  0.56029000  0.16347000  1.0 0.5007558728
Nb  Nb18  1  0.39682000  0.19473000  0.83653000  1.0 0.5097948807
Nb  Nb19  1  0.44473000  0.10820000  0.29791000  1.0 0.5097948807
Nb  Nb20  1  0.81029000  0.14682000  0.70209000  1.0 0.5097948807
Nb  Nb21  1  0.89180000  0.18971000  0.33653000  1.0 0.5097948807
Nb  Nb22  1  0.85318000  0.55527000  0.66347000  1.0 0.5097948807
Nb  Nb23  1  0.80527000  0.64180000  0.20209000  1.0 0.5097948807
Nb  Nb24  1  0.43971000  0.60318000  0.79791000  1.0 0.5097948807
Nb  Nb25  1  0.37788000  0.69004000  0.20616000  1.0 0.5007558728
Nb  Nb26  1  0.48388000  0.17172000  0.79384000  1.0 0.5007558728
Nb  Nb27  1  0.42172000  0.12788000  0.18784000  1.0 0.5007558728
Nb  Nb28  1  0.94004000  0.23388000  0.81216000  1.0 0.5007558728
Nb  Nb29  1  0.87212000  0.05996000  0.29384000  1.0 0.5007558728
Nb  Nb30  1  0.76612000  0.57828000  0.70616000  1.0 0.5007558728
Nb  Nb31  1  0.82828000  0.62212000  0.31216000  1.0 0.5007558728
Nb  Nb32  1  0.30996000  0.51612000  0.68784000  1.0 0.5007558728
Nb  Nb33  1  0.27109000  0.58271000  0.20640000  1.0 0.5007558728
Nb  Nb34  1  0.37631000  0.06469000  0.79360000  1.0 0.5007558728
Nb  Nb35  1  0.31469000  0.02109000  0.18838000  1.0 0.5007558728
Nb  Nb36  1  0.83271000  0.12631000  0.81162000  1.0 0.5007558728
Nb  Nb37  1  0.97891000  0.16729000  0.29360000  1.0 0.5007558728
Nb  Nb38  1  0.87369000  0.68531000  0.70640000  1.0 0.5097948807
Nb  Nb39  1  0.93531000  0.72891000  0.31162000  1.0 0.5007558728
Nb  Nb40  1  0.41729000  0.62369000  0.68838000  1.0 0.5097948807
Nb  Nb41  1  0.38497000  0.69387000  0.32376000  1.0 0.5313949073
Nb  Nb42  1  0.37011000  0.06121000  0.67624000  1.0 0.5313949073
Nb  Nb43  1  0.31121000  0.13497000  0.19110000  1.0 0.5313949073
Nb  Nb44  1  0.94387000  0.12011000  0.80890000  1.0 0.5313949073
Nb  Nb45  1  0.86503000  0.05613000  0.17624000  1.0 0.5313949073
Nb  Nb46  1  0.87989000  0.68879000  0.82376000  1.0 0.5313949073
Nb  Nb47  1  0.93879000  0.61503000  0.30890000  1.0 0.537798123
Nb  Nb48  1  0.30613000  0.62989000  0.69110000  1.0 0.537798123
H  H1  1  0.16840000  0.72200000  0.37760000  1.0 0.1681429253
H  H2  1  0.34440000  0.79080000  0.62240000  1.0 0.1681429253
H  H3  1  0.04080000  0.91840000  0.94640000  1.0 0.1681429253
H  H4  1  0.97200000  0.09440000  0.05360000  1.0 0.1681429253
H  H5  1  0.08160000  0.02800000  0.12240000  1.0 0.1681429253
H  H6  1  0.90560000  0.95920000  0.87760000  1.0 0.1681429253
H  H7  1  0.20920000  0.83160000  0.55360000  1.0 0.1681429253
H  H8  1  0.27800000  0.65560000  0.44640000  1.0 0.1681429253
H  H9  1  0.15190000  0.76110000  0.34400000  1.0 0.160038171
H  H10  1  0.41710000  0.80790000  0.65600000  1.0 0.160038171
H  H11  1  0.05790000  0.90190000  0.89080000  1.0 0.1681429253
H  H12  1  0.01110000  0.16710000  0.10920000  1.0 0.160038171
H  H13  1  0.09810000  0.98890000  0.15600000  1.0 0.160038171
H  H14  1  0.83290000  0.94210000  0.84400000  1.0 0.160038171
H  H15  1  0.19210000  0.84810000  0.60920000  1.0 0.160038171
H  H16  1  0.23890000  0.58290000  0.39080000  1.0 0.160038171
H  H17  1  0.17130000  0.71280000  0.31410000  1.0 0.1771035805
H  H18  1  0.39870000  0.85720000  0.68590000  1.0 0.1771035805
H  H19  1  0.10720000  0.92130000  0.95850000  1.0 0.1771035805
H  H20  1  0.96280000  0.14870000  0.04150000  1.0 0.1771035805
H  H21  1  0.07870000  0.03720000  0.18590000  1.0 0.1771035805
H  H22  1  0.85130000  0.89280000  0.81410000  1.0 0.1771035805
H  H23  1  0.14280000  0.82870000  0.54150000  1.0 0.1771035805
H  H24  1  0.28720000  0.60130000  0.45850000  1.0 0.1771035805
H  H25  1  0.24790000  0.82810000  0.32320000  1.0 0.1771035805
H  H26  1  0.50490000  0.92470000  0.67680000  1.0 0.1771035805
H  H27  1  0.17470000  0.99790000  0.91980000  1.0 0.1771035805
H  H28  1  0.07810000  0.25490000  0.08020000  1.0 0.1771035805
H  H29  1  0.00210000  0.92190000  0.17680000  1.0 0.1771035805
H  H30  1  0.74510000  0.82530000  0.82320000  1.0 0.1771035805
H  H31  1  0.07530000  0.75210000  0.58020000  1.0 0.1771035805
H  H32  1  0.17190000  0.49510000  0.41980000  1.0 0.1771035805
H  H33  1  0.32450000  0.90100000  0.31030000  1.0 0.1681429253
H  H34  1  0.59070000  0.01420000  0.68970000  1.0 0.1681429253
H  H35  1  0.26420000  0.07450000  0.92350000  1.0 0.1681429253
H  H36  1  0.15100000  0.34070000  0.07650000  1.0 0.1681429253
H  H37  1  0.92550000  0.84900000  0.18970000  1.0 0.1681429253
H  H38  1  0.65930000  0.73580000  0.81030000  1.0 0.1681429253
H  H39  1  0.98580000  0.67550000  0.57650000  1.0 0.1681429253
H  H40  1  0.09900000  0.40930000  0.42350000  1.0 0.1681429253
H  H41  1  0.37880000  0.96860000  0.37260000  1.0 0.1681429253
H  H42  1  0.59600000  0.00620000  0.62740000  1.0 0.1681429253
H  H43  1  0.25620000  0.12880000  0.91020000  1.0 0.1681429253
H  H44  1  0.21860000  0.34600000  0.08980000  1.0 0.1681429253
H  H45  1  0.87120000  0.78140000  0.12740000  1.0 0.1681429253
H  H46  1  0.65400000  0.74380000  0.87260000  1.0 0.1681429253
H  H47  1  0.99380000  0.62120000  0.58980000  1.0 0.1681429253
H  H48  1  0.03140000  0.40400000  0.41020000  1.0 0.1681429253
H  H49  1  0.39690000  0.91800000  0.34530000  1.0 0.1681429253
H  H50  1  0.57270000  0.05160000  0.65470000  1.0 0.1681429253
H  H51  1  0.30160000  0.14690000  0.97890000  1.0 0.1681429253
H  H52  1  0.16800000  0.32270000  0.02110000  1.0 0.1681429253
H  H53  1  0.85310000  0.83200000  0.15470000  1.0 0.1681429253
H  H54  1  0.67730000  0.69840000  0.84530000  1.0 0.1681429253
H  H55  1  0.94840000  0.60310000  0.52110000  1.0 0.1681429253
H  H56  1  0.08200000  0.42730000  0.47890000  1.0 0.1681429253
H  H57  1  0.33640000  0.30790000  0.13250000  1.0 0.160038171
H  H58  1  0.17540000  0.20390000  0.86750000  1.0 0.160038171
H  H59  1  0.45390000  0.08640000  0.52850000  1.0 0.160038171
H  H60  1  0.55790000  0.92540000  0.47150000  1.0 0.160038171
H  H61  1  0.91360000  0.44210000  0.36750000  1.0 0.160038171
H  H62  1  0.07460000  0.54610000  0.63250000  1.0 0.160038171
H  H63  1  0.79610000  0.66360000  0.97150000  1.0 0.160038171
H  H64  1  0.69210000  0.82460000  0.02850000  1.0 0.160038171
H  H65  1  0.41140000  0.34380000  0.18180000  1.0 0.160038171
H  H66  1  0.16200000  0.22960000  0.81820000  1.0 0.160038171
H  H67  1  0.47960000  0.16140000  0.56760000  1.0 0.160038171
H  H68  1  0.59380000  0.91200000  0.43240000  1.0 0.160038171
H  H69  1  0.83860000  0.40620000  0.31820000  1.0 0.160038171
H  H70  1  0.08800000  0.52040000  0.68180000  1.0 0.160038171
H  H71  1  0.77040000  0.58860000  0.93240000  1.0 0.160038171
H  H72  1  0.65620000  0.83800000  0.06760000  1.0 0.160038171
H  H73  1  0.37420000  0.38020000  0.18820000  1.0 0.1681429253
H  H74  1  0.19200000  0.18600000  0.81180000  1.0 0.1681429253
H  H75  1  0.43600000  0.12420000  0.49400000  1.0 0.1681429253
H  H76  1  0.63020000  0.94200000  0.50600000  1.0 0.1681429253
H  H77  1  0.87580000  0.36980000  0.31180000  1.0 0.1681429253
H  H78  1  0.05800000  0.56400000  0.68820000  1.0 0.1681429253
H  H79  1  0.81400000  0.62580000  0.00600000  1.0 0.1681429253
H  H80  1  0.61980000  0.80800000  0.99400000  1.0 0.1681429253
H  H81  1  0.48180000  0.46250000  0.19230000  1.0 0.160038171
H  H82  1  0.27020000  0.28950000  0.80770000  1.0 0.160038171
H  H83  1  0.53950000  0.23180000  0.51930000  1.0 0.160038171
H  H84  1  0.71250000  0.02020000  0.48070000  1.0 0.160038171
H  H85  1  0.76820000  0.28750000  0.30770000  1.0 0.160038171
H  H86  1  0.97980000  0.46050000  0.69230000  1.0 0.160038171
H  H87  1  0.71050000  0.51820000  0.98070000  1.0 0.160038171
H  H88  1  0.53750000  0.72980000  0.01930000  1.0 0.160038171
H  H89  1  0.57520000  0.54230000  0.20110000  1.0 0.160038171
H  H90  1  0.34120000  0.37410000  0.79890000  1.0 0.160038171
H  H91  1  0.62410000  0.32520000  0.53290000  1.0 0.160038171
H  H92  1  0.79230000  0.09120000  0.46710000  1.0 0.160038171
H  H93  1  0.67480000  0.20770000  0.29890000  1.0 0.160038171
H  H94  1  0.90880000  0.37590000  0.70110000  1.0 0.160038171
H  H95  1  0.62590000  0.42480000  0.96710000  1.0 0.160038171
H  H96  1  0.45770000  0.65880000  0.03290000  1.0 0.160038171
H  H97  1  0.59000000  0.52090000  0.14470000  1.0 0.160038171
H  H98  1  0.37620000  0.44530000  0.85530000  1.0 0.160038171
H  H99  1  0.69530000  0.34000000  0.56910000  1.0 0.160038171
H  H100  1  0.77090000  0.12620000  0.43090000  1.0 0.160038171
H  H101  1  0.66000000  0.22910000  0.35530000  1.0 0.160038171
H  H102  1  0.87380000  0.30470000  0.64470000  1.0 0.160038171
H  H103  1  0.55470000  0.41000000  0.93090000  1.0 0.160038171
H  H104  1  0.47910000  0.62380000  0.06910000  1.0 0.160038171
H  H105  1  0.56140000  0.56570000  0.14990000  1.0 0.160038171
H  H106  1  0.41580000  0.41150000  0.85010000  1.0 0.160038171
H  H107  1  0.66150000  0.31140000  0.49570000  1.0 0.160038171
H  H108  1  0.81570000  0.16580000  0.50430000  1.0 0.160038171
H  H109  1  0.68860000  0.18430000  0.35010000  1.0 0.160038171
H  H110  1  0.83420000  0.33850000  0.64990000  1.0 0.160038171
H  H111  1  0.58850000  0.43860000  0.00430000  1.0 0.160038171
H  H112  1  0.43430000  0.58420000  0.99570000  1.0 0.160038171
H  H113  1  0.53410000  0.98540000  0.21070000  1.0 0.1401301769
H  H114  1  0.51130000  0.00140000  0.26190000  1.0 0.1401301769
H  H115  1  0.47470000  0.92730000  0.21020000  1.0 0.148134624
H  H116  1  0.49540000  0.89570000  0.29110000  1.0 0.148134624
H  H117  1  0.53340000  0.96990000  0.34330000  1.0 0.160038171
H  H118  1  0.56890000  0.93150000  0.34360000  1.0 0.1401301769
H  H119  1  0.64510000  0.04220000  0.29190000  1.0 0.148134624
H  H120  1  0.65960000  0.02030000  0.34410000  1.0 0.148134624
H  H121  1  0.62280000  0.05750000  0.34370000  1.0 0.160038171
H  H122  1  0.58860000  0.92850000  0.21290000  1.0 0.1401301769
H  H123  1  0.53020000  0.87100000  0.21400000  1.0 0.148134624
H  H124  1  0.60400000  0.90880000  0.26680000  1.0 0.1401301769
H  H125  1  0.77470000  0.32340000  0.78930000  1.0 0.1401301769
H  H126  1  0.73950000  0.24940000  0.73810000  1.0 0.1401301769
H  H127  1  0.71710000  0.26450000  0.78980000  1.0 0.148134624
H  H128  1  0.60460000  0.20430000  0.70890000  1.0 0.148134624
H  H129  1  0.62660000  0.19010000  0.65670000  1.0 0.160038171
H  H130  1  0.58790000  0.22530000  0.65640000  1.0 0.1401301769
H  H131  1  0.75030000  0.35320000  0.70810000  1.0 0.148134624
H  H132  1  0.67620000  0.31550000  0.65590000  1.0 0.148134624
H  H133  1  0.71380000  0.27910000  0.65630000  1.0 0.160038171
H  H134  1  0.71560000  0.37570000  0.78710000  1.0 0.1401301769
H  H135  1  0.65700000  0.31620000  0.78600000  1.0 0.148134624
H  H136  1  0.64200000  0.33720000  0.73320000  1.0 0.1401301769
H  H137  1  0.23540000  0.52470000  0.95130000  1.0 0.1401301769
H  H138  1  0.25140000  0.48950000  0.99010000  1.0 0.1401301769
H  H139  1  0.17730000  0.46710000  0.95260000  1.0 0.148134624
H  H140  1  0.14570000  0.35460000  0.90030000  1.0 0.148134624
H  H141  1  0.21990000  0.37660000  0.93650000  1.0 0.160038171
H  H142  1  0.18150000  0.33790000  0.86260000  1.0 0.1401301769
H  H143  1  0.29220000  0.50030000  0.89710000  1.0 0.148134624
H  H144  1  0.27030000  0.42620000  0.86070000  1.0 0.148134624
H  H145  1  0.30750000  0.46380000  0.93470000  1.0 0.160038171
H  H146  1  0.17850000  0.46560000  0.83990000  1.0 0.1401301769
H  H147  1  0.12100000  0.40700000  0.84080000  1.0 0.148134624
H  H148  1  0.15880000  0.39200000  0.80480000  1.0 0.1401301769
H  H149  1  0.57340000  0.28410000  0.04870000  1.0 0.1401301769
H  H150  1  0.49940000  0.26130000  0.00990000  1.0 0.148134624
H  H151  1  0.51450000  0.22470000  0.04740000  1.0 0.148134624
H  H152  1  0.45430000  0.24540000  0.09970000  1.0 0.148134624
H  H153  1  0.44010000  0.28340000  0.06350000  1.0 0.160038171
H  H154  1  0.47530000  0.31890000  0.13740000  1.0 0.1401301769
H  H155  1  0.60320000  0.39510000  0.10290000  1.0 0.148134624
H  H156  1  0.56550000  0.40960000  0.13930000  1.0 0.148134624
H  H157  1  0.52910000  0.37280000  0.06530000  1.0 0.160038171
H  H158  1  0.62570000  0.33860000  0.16010000  1.0 0.1401301769
H  H159  1  0.56620000  0.28020000  0.15920000  1.0 0.148134624
H  H160  1  0.58720000  0.35400000  0.19520000  1.0 0.1401301769
H  H161  1  0.71590000  0.76460000  0.28930000  1.0 0.1401301769
H  H162  1  0.73870000  0.74860000  0.23810000  1.0 0.148134624
H  H163  1  0.77530000  0.82270000  0.28980000  1.0 0.148134624
H  H164  1  0.75460000  0.85430000  0.20890000  1.0 0.148134624
H  H165  1  0.71660000  0.78010000  0.15670000  1.0 0.160038171
H  H166  1  0.68110000  0.81850000  0.15640000  1.0 0.1401301769
H  H167  1  0.60490000  0.70780000  0.20810000  1.0 0.148134624
H  H168  1  0.59040000  0.72970000  0.15590000  1.0 0.148134624
H  H169  1  0.62720000  0.69250000  0.15630000  1.0 0.160038171
H  H170  1  0.66140000  0.82150000  0.28710000  1.0 0.1401301769
H  H171  1  0.71980000  0.87900000  0.28600000  1.0 0.148134624
H  H172  1  0.64600000  0.84120000  0.23320000  1.0 0.1401301769
H  H173  1  0.47530000  0.42660000  0.71070000  1.0 0.1401301769
H  H174  1  0.51050000  0.50060000  0.76190000  1.0 0.1401301769
H  H175  1  0.53290000  0.48550000  0.71020000  1.0 0.148134624
H  H176  1  0.64540000  0.54570000  0.79110000  1.0 0.148134624
H  H177  1  0.62340000  0.55990000  0.84330000  1.0 0.160038171
H  H178  1  0.66210000  0.52470000  0.84360000  1.0 0.1401301769
H  H179  1  0.49970000  0.39680000  0.79190000  1.0 0.148134624
H  H180  1  0.57380000  0.43450000  0.84410000  1.0 0.148134624
H  H181  1  0.53620000  0.47090000  0.84370000  1.0 0.160038171
H  H182  1  0.53440000  0.37430000  0.71290000  1.0 0.1401301769
H  H183  1  0.59300000  0.43380000  0.71400000  1.0 0.148134624
H  H184  1  0.60800000  0.41280000  0.76680000  1.0 0.1401301769
H  H185  1  0.01460000  0.22530000  0.54870000  1.0 0.1401301769
H  H186  1  0.99860000  0.26050000  0.50990000  1.0 0.1401301769
H  H187  1  0.07270000  0.28290000  0.54740000  1.0 0.148134624
H  H188  1  0.10430000  0.39540000  0.59970000  1.0 0.148134624
H  H189  1  0.03010000  0.37340000  0.56350000  1.0 0.160038171
H  H190  1  0.06850000  0.41210000  0.63740000  1.0 0.1401301769
H  H191  1  0.95780000  0.24970000  0.60290000  1.0 0.148134624
H  H192  1  0.97970000  0.32380000  0.63930000  1.0 0.148134624
H  H193  1  0.94250000  0.28620000  0.56530000  1.0 0.160038171
H  H194  1  0.07150000  0.28440000  0.66010000  1.0 0.1401301769
H  H195  1  0.12900000  0.34300000  0.65920000  1.0 0.148134624
H  H196  1  0.09120000  0.35800000  0.69520000  1.0 0.1401301769
H  H197  1  0.67660000  0.46590000  0.45130000  1.0 0.1401301769
H  H198  1  0.75060000  0.48870000  0.49010000  1.0 0.148134624
H  H199  1  0.73550000  0.52530000  0.45260000  1.0 0.148134624
H  H200  1  0.79570000  0.50460000  0.40030000  1.0 0.148134624
H  H201  1  0.80990000  0.46660000  0.43650000  1.0 0.160038171
H  H202  1  0.77470000  0.43110000  0.36260000  1.0 0.1401301769
H  H203  1  0.64680000  0.35490000  0.39710000  1.0 0.148134624
H  H204  1  0.68450000  0.34040000  0.36070000  1.0 0.148134624
H  H205  1  0.72090000  0.37720000  0.43470000  1.0 0.160038171
H  H206  1  0.62430000  0.41140000  0.33990000  1.0 0.1401301769
H  H207  1  0.68380000  0.46980000  0.34080000  1.0 0.148134624
H  H208  1  0.66280000  0.39600000  0.30480000  1.0 0.1401301769
H  H209  1  0.44460000  0.89360000  0.91900000  1.0 0.1401301769
H  H210  1  0.43330000  0.95130000  0.94080000  1.0 0.1401301769
H  H211  1  0.39190000  0.88510000  0.94340000  1.0 0.1326492927
H  H212  1  0.49600000  0.86840000  0.99540000  1.0 0.1401301769
H  H213  1  0.44320000  0.86160000  0.01920000  1.0 0.1326492927
H  H214  1  0.51980000  0.91060000  0.06700000  1.0 0.1401301769
H  H215  1  0.50630000  0.00010000  0.10080000  1.0 0.1401301769
H  H216  1  0.42940000  0.94990000  0.05410000  1.0 0.1401301769
H  H217  1  0.47070000  0.01590000  0.05120000  1.0 0.148134624
H  H218  1  0.56200000  0.96810000  0.99110000  1.0 0.1401301769
H  H219  1  0.58680000  0.00960000  0.06320000  1.0 0.1401301769
H  H220  1  0.55380000  0.02790000  0.01430000  1.0 0.1401301769
H  H221  1  0.97460000  0.52560000  0.08100000  1.0 0.1401301769
H  H222  1  0.01050000  0.49250000  0.05920000  1.0 0.1401301769
H  H223  1  0.94170000  0.44850000  0.05660000  1.0 0.1326492927
H  H224  1  0.87300000  0.50060000  0.00460000  1.0 0.1401301769
H  H225  1  0.84240000  0.42400000  0.98080000  1.0 0.1326492927
H  H226  1  0.84360000  0.45280000  0.93300000  1.0 0.1401301769
H  H227  1  0.89930000  0.40550000  0.89920000  1.0 0.1401301769
H  H228  1  0.89580000  0.37530000  0.94590000  1.0 0.1401301769
H  H229  1  0.96470000  0.41950000  0.94880000  1.0 0.148134624
H  H230  1  0.97700000  0.57090000  0.00890000  1.0 0.1401301769
H  H231  1  0.94640000  0.52360000  0.93680000  1.0 0.1401301769
H  H232  1  0.01360000  0.53950000  0.98570000  1.0 0.1401301769
H  H233  1  0.14360000  0.72460000  0.94900000  1.0 0.1401301769
H  H234  1  0.20130000  0.76050000  0.01800000  1.0 0.1401301769
H  H235  1  0.13510000  0.69170000  0.99320000  1.0 0.1326492927
H  H236  1  0.11840000  0.62300000  0.87240000  1.0 0.1401301769
H  H237  1  0.11160000  0.59240000  0.91840000  1.0 0.1326492927
H  H238  1  0.16060000  0.59360000  0.89080000  1.0 0.1401301769
H  H239  1  0.25010000  0.64930000  0.99380000  1.0 0.1401301769
H  H240  1  0.19990000  0.64580000  0.02050000  1.0 0.1401301769
H  H241  1  0.26590000  0.71470000  0.04520000  1.0 0.148134624
H  H242  1  0.21810000  0.72700000  0.90610000  1.0 0.1401301769
H  H243  1  0.25960000  0.69640000  0.92280000  1.0 0.1401301769
H  H244  1  0.27790000  0.76360000  0.97410000  1.0 0.1401301769
H  H245  1  0.77560000  0.19460000  0.05100000  1.0 0.1401301769
H  H246  1  0.74250000  0.18330000  0.98200000  1.0 0.148134624
H  H247  1  0.69850000  0.14190000  0.00680000  1.0 0.1326492927
H  H248  1  0.75060000  0.24600000  0.12760000  1.0 0.1401301769
H  H249  1  0.67400000  0.19320000  0.08160000  1.0 0.1326492927
H  H250  1  0.70280000  0.26980000  0.10920000  1.0 0.1401301769
H  H251  1  0.65550000  0.25630000  0.00620000  1.0 0.1401301769
H  H252  1  0.62530000  0.17940000  0.97950000  1.0 0.1401301769
H  H253  1  0.66950000  0.22070000  0.95480000  1.0 0.148134624
H  H254  1  0.82090000  0.31200000  0.09390000  1.0 0.1401301769
H  H255  1  0.77360000  0.33680000  0.07720000  1.0 0.1401301769
H  H256  1  0.78950000  0.30380000  0.02590000  1.0 0.1401301769
H  H257  1  0.80540000  0.85640000  0.58100000  1.0 0.1401301769
H  H258  1  0.81670000  0.79870000  0.55920000  1.0 0.1401301769
H  H259  1  0.85810000  0.86490000  0.55660000  1.0 0.1326492927
H  H260  1  0.75400000  0.88160000  0.50460000  1.0 0.1401301769
H  H261  1  0.80680000  0.88840000  0.48080000  1.0 0.1326492927
H  H262  1  0.73020000  0.83940000  0.43300000  1.0 0.1401301769
H  H263  1  0.74370000  0.74990000  0.39920000  1.0 0.1401301769
H  H264  1  0.82060000  0.80010000  0.44590000  1.0 0.1401301769
H  H265  1  0.77930000  0.73410000  0.44880000  1.0 0.148134624
H  H266  1  0.68800000  0.78190000  0.50890000  1.0 0.1401301769
H  H267  1  0.66320000  0.74040000  0.43680000  1.0 0.1401301769
H  H268  1  0.69620000  0.72210000  0.48570000  1.0 0.1401301769
H  H269  1  0.27540000  0.22440000  0.41900000  1.0 0.1401301769
H  H270  1  0.23950000  0.25750000  0.44080000  1.0 0.1401301769
H  H271  1  0.30830000  0.30150000  0.44340000  1.0 0.1326492927
H  H272  1  0.37700000  0.24940000  0.49540000  1.0 0.1401301769
H  H273  1  0.40760000  0.32600000  0.51920000  1.0 0.1326492927
H  H274  1  0.40640000  0.29720000  0.56700000  1.0 0.1401301769
H  H275  1  0.35070000  0.34450000  0.60080000  1.0 0.1401301769
H  H276  1  0.35420000  0.37470000  0.55410000  1.0 0.1401301769
H  H277  1  0.28530000  0.33050000  0.55120000  1.0 0.148134624
H  H278  1  0.27300000  0.17910000  0.49110000  1.0 0.1401301769
H  H279  1  0.30360000  0.22640000  0.56320000  1.0 0.1401301769
H  H280  1  0.23640000  0.21050000  0.51430000  1.0 0.1401301769
H  H281  1  0.10640000  0.02540000  0.55100000  1.0 0.1401301769
H  H282  1  0.04870000  0.98950000  0.48200000  1.0 0.1401301769
H  H283  1  0.11490000  0.05830000  0.50680000  1.0 0.1326492927
H  H284  1  0.13160000  0.12700000  0.62760000  1.0 0.1401301769
H  H285  1  0.13840000  0.15760000  0.58160000  1.0 0.1326492927
H  H286  1  0.08940000  0.15640000  0.60920000  1.0 0.1401301769
H  H287  1  0.99990000  0.10070000  0.50620000  1.0 0.1401301769
H  H288  1  0.05010000  0.10420000  0.47950000  1.0 0.1401301769
H  H289  1  0.98410000  0.03530000  0.45480000  1.0 0.148134624
H  H290  1  0.03190000  0.02300000  0.59390000  1.0 0.1401301769
H  H291  1  0.99040000  0.05360000  0.57720000  1.0 0.1401301769
H  H292  1  0.97210000  0.98640000  0.52590000  1.0 0.1401301769
H  H293  1  0.47440000  0.55540000  0.44900000  1.0 0.1401301769
H  H294  1  0.50750000  0.56670000  0.51800000  1.0 0.1401301769
H  H295  1  0.55150000  0.60810000  0.49320000  1.0 0.1326492927
H  H296  1  0.49940000  0.50400000  0.37240000  1.0 0.1401301769
H  H297  1  0.57600000  0.55680000  0.41840000  1.0 0.1326492927
H  H298  1  0.54720000  0.48020000  0.39080000  1.0 0.1401301769
H  H299  1  0.59450000  0.49370000  0.49380000  1.0 0.1401301769
H  H300  1  0.62470000  0.57060000  0.52050000  1.0 0.1401301769
H  H301  1  0.58050000  0.52930000  0.54520000  1.0 0.148134624
H  H302  1  0.42910000  0.43800000  0.40610000  1.0 0.1401301769
H  H303  1  0.47640000  0.41320000  0.42280000  1.0 0.1401301769
H  H304  1  0.46050000  0.44620000  0.47410000  1.0 0.1401301769
H  H305  1  0.95650000  0.40120000  0.16850000  1.0 0.1401301769
H  H306  1  0.01460000  0.45940000  0.16780000  1.0 0.1401301769
H  H307  1  0.97160000  0.47350000  0.19710000  1.0 0.1401301769
H  H308  1  0.09750000  0.43470000  0.28440000  1.0 0.1401301769
H  H309  1  0.09020000  0.43540000  0.22040000  1.0 0.148134624
H  H310  1  0.03170000  0.37790000  0.22140000  1.0 0.148134624
H  H311  1  0.03030000  0.45730000  0.32840000  1.0 0.1401301769
H  H312  1  0.96540000  0.40090000  0.26450000  1.0 0.148134624
H  H313  1  0.98220000  0.47390000  0.29270000  1.0 0.148134624
H  H314  1  0.12220000  0.54610000  0.32750000  1.0 0.1401301769
H  H315  1  0.07170000  0.56080000  0.29230000  1.0 0.148134624
H  H316  1  0.11430000  0.54570000  0.26300000  1.0 0.148134624
H  H317  1  0.23270000  0.78800000  0.83150000  1.0 0.1401301769
H  H318  1  0.29160000  0.84680000  0.83220000  1.0 0.1401301769
H  H319  1  0.27640000  0.77450000  0.80290000  1.0 0.1401301769
H  H320  1  0.15030000  0.81310000  0.71560000  1.0 0.1401301769
H  H321  1  0.21500000  0.86980000  0.77960000  1.0 0.148134624
H  H322  1  0.15650000  0.81030000  0.77860000  1.0 0.148134624
H  H323  1  0.12890000  0.70190000  0.67160000  1.0 0.1401301769
H  H324  1  0.13640000  0.70090000  0.73550000  1.0 0.148134624
H  H325  1  0.18120000  0.68950000  0.70730000  1.0 0.148134624
H  H326  1  0.21860000  0.79470000  0.67250000  1.0 0.1401301769
H  H327  1  0.26850000  0.77940000  0.70770000  1.0 0.148134624
H  H328  1  0.28270000  0.85130000  0.73700000  1.0 0.148134624
H  H329  1  0.65120000  0.98270000  0.94470000  1.0 0.1401301769
H  H330  1  0.70940000  0.04160000  0.94480000  1.0 0.1401301769
H  H331  1  0.72350000  0.02640000  0.00190000  1.0 0.1401301769
H  H332  1  0.68470000  0.90030000  0.83720000  1.0 0.1401301769
H  H333  1  0.68540000  0.96500000  0.84520000  1.0 0.148134624
H  H334  1  0.62790000  0.90650000  0.84620000  1.0 0.148134624
H  H335  1  0.70730000  0.87890000  0.92700000  1.0 0.1401301769
H  H336  1  0.65090000  0.88640000  0.93550000  1.0 0.148134624
H  H337  1  0.72390000  0.93120000  0.99170000  1.0 0.148134624
H  H338  1  0.79610000  0.96860000  0.92390000  1.0 0.1401301769
H  H339  1  0.81080000  0.01850000  0.98910000  1.0 0.148134624
H  H340  1  0.79570000  0.03270000  0.93140000  1.0 0.148134624
H  H341  1  0.03800000  0.70650000  0.05530000  1.0 0.1401301769
H  H342  1  0.09680000  0.76460000  0.05520000  1.0 0.1401301769
H  H343  1  0.02450000  0.72160000  0.99810000  1.0 0.1401301769
H  H344  1  0.06310000  0.84750000  0.16280000  1.0 0.1401301769
H  H345  1  0.11980000  0.84020000  0.15480000  1.0 0.148134624
H  H346  1  0.06030000  0.78170000  0.15380000  1.0 0.148134624
H  H347  1  0.95190000  0.78030000  0.07300000  1.0 0.1401301769
H  H348  1  0.95090000  0.71540000  0.06450000  1.0 0.148134624
H  H349  1  0.93950000  0.73220000  0.00830000  1.0 0.148134624
H  H350  1  0.04470000  0.87220000  0.07610000  1.0 0.1401301769
H  H351  1  0.02940000  0.82170000  0.01090000  1.0 0.148134624
H  H352  1  0.10130000  0.86430000  0.06860000  1.0 0.148134624
H  H353  1  0.29350000  0.34880000  0.33150000  1.0 0.1401301769
H  H354  1  0.23540000  0.29060000  0.33220000  1.0 0.1401301769
H  H355  1  0.27840000  0.27650000  0.30290000  1.0 0.1401301769
H  H356  1  0.15250000  0.31530000  0.21560000  1.0 0.1401301769
H  H357  1  0.15980000  0.31460000  0.27960000  1.0 0.148134624
H  H358  1  0.21830000  0.37210000  0.27860000  1.0 0.148134624
H  H359  1  0.21970000  0.29270000  0.17160000  1.0 0.1401301769
H  H360  1  0.28460000  0.34910000  0.23550000  1.0 0.148134624
H  H361  1  0.26780000  0.27610000  0.20730000  1.0 0.148134624
H  H362  1  0.12780000  0.20390000  0.17250000  1.0 0.1401301769
H  H363  1  0.17830000  0.18920000  0.20770000  1.0 0.148134624
H  H364  1  0.13570000  0.20430000  0.23700000  1.0 0.148134624
H  H365  1  0.01730000  0.96200000  0.66850000  1.0 0.1401301769
H  H366  1  0.95840000  0.90320000  0.66780000  1.0 0.1401301769
H  H367  1  0.97360000  0.97550000  0.69710000  1.0 0.1401301769
H  H368  1  0.09970000  0.93690000  0.78440000  1.0 0.1401301769
H  H369  1  0.03500000  0.88020000  0.72040000  1.0 0.148134624
H  H370  1  0.09350000  0.93970000  0.72140000  1.0 0.148134624
H  H371  1  0.12110000  0.04810000  0.82840000  1.0 0.1401301769
H  H372  1  0.11360000  0.04910000  0.76450000  1.0 0.148134624
H  H373  1  0.06880000  0.06050000  0.79270000  1.0 0.148134624
H  H374  1  0.03140000  0.95530000  0.82750000  1.0 0.1401301769
H  H375  1  0.98150000  0.97060000  0.79230000  1.0 0.148134624
H  H376  1  0.96730000  0.89870000  0.76300000  1.0 0.148134624
H  H377  1  0.59880000  0.76730000  0.55530000  1.0 0.1401301769
H  H378  1  0.54060000  0.70840000  0.55520000  1.0 0.1401301769
H  H379  1  0.52650000  0.72360000  0.49810000  1.0 0.1401301769
H  H380  1  0.56530000  0.84970000  0.66280000  1.0 0.1401301769
H  H381  1  0.56460000  0.78500000  0.65480000  1.0 0.148134624
H  H382  1  0.62210000  0.84350000  0.65380000  1.0 0.148134624
H  H383  1  0.54270000  0.87110000  0.57300000  1.0 0.1401301769
H  H384  1  0.59910000  0.86360000  0.56450000  1.0 0.148134624
H  H385  1  0.52610000  0.81880000  0.50830000  1.0 0.148134624
H  H386  1  0.45390000  0.78140000  0.57610000  1.0 0.1401301769
H  H387  1  0.43920000  0.73150000  0.51090000  1.0 0.148134624
H  H388  1  0.45430000  0.71730000  0.56860000  1.0 0.148134624
H  H389  1  0.21200000  0.04350000  0.44470000  1.0 0.1401301769
H  H390  1  0.15320000  0.98540000  0.44480000  1.0 0.1401301769
H  H391  1  0.22550000  0.02840000  0.50190000  1.0 0.1401301769
H  H392  1  0.18690000  0.90250000  0.33720000  1.0 0.1401301769
H  H393  1  0.13020000  0.90980000  0.34520000  1.0 0.148134624
H  H394  1  0.18970000  0.96830000  0.34620000  1.0 0.148134624
H  H395  1  0.29810000  0.96970000  0.42700000  1.0 0.1401301769
H  H396  1  0.29910000  0.03460000  0.43550000  1.0 0.148134624
H  H397  1  0.31050000  0.01780000  0.49170000  1.0 0.148134624
H  H398  1  0.20530000  0.87780000  0.42390000  1.0 0.1401301769
H  H399  1  0.22060000  0.92830000  0.48910000  1.0 0.148134624
H  H400  1  0.14870000  0.88570000  0.43140000  1.0 0.148134624
C  C1  1  0.58184000  0.71801000  0.31835000  1.0 -0.0614635343
C  C2  1  0.39966000  0.26349000  0.68165000  1.0 -0.0614635343
C  C3  1  0.51349000  0.33184000  0.36383000  1.0 -0.0614635343
C  C4  1  0.96801000  0.14966000  0.63617000  1.0 -0.0614635343
C  C5  1  0.66816000  0.03199000  0.18165000  1.0 -0.0614635343
C  C6  1  0.85034000  0.48651000  0.81835000  1.0 -0.0614635343
C  C7  1  0.73651000  0.41816000  0.13617000  1.0 -0.0614635343
C  C8  1  0.28199000  0.60034000  0.86383000  1.0 -0.0614635343
C  C9  1  0.36017000  0.49498000  0.32157000  1.0 -0.0516343648
C  C10  1  0.17341000  0.03860000  0.67843000  1.0 -0.0516343648
C  C11  1  0.28860000  0.11017000  0.36519000  1.0 -0.0516343648
C  C12  1  0.74498000  0.92341000  0.63481000  1.0 -0.0516343648
C  C13  1  0.88983000  0.25502000  0.17843000  1.0 -0.0516343648
C  C14  1  0.07659000  0.71140000  0.82157000  1.0 -0.0516343648
C  C15  1  0.96140000  0.63983000  0.13481000  1.0 -0.0516343648
C  C16  1  0.50502000  0.82659000  0.86519000  1.0 -0.0516343648
C  C17  1  0.34614000  0.48546000  0.07754000  1.0 -0.0276221914
C  C18  1  0.40792000  0.26860000  0.92246000  1.0 -0.0276221914
C  C19  1  0.51860000  0.09614000  0.36068000  1.0 -0.0276221914
C  C20  1  0.73546000  0.15792000  0.63932000  1.0 -0.0276221914
C  C21  1  0.90386000  0.26454000  0.42246000  1.0 -0.0276221914
C  C22  1  0.84208000  0.48140000  0.57754000  1.0 -0.0276221914
C  C23  1  0.73140000  0.65386000  0.13932000  1.0 -0.0276221914
C  C24  1  0.51454000  0.59208000  0.86068000  1.0 -0.0276221914
C  C25  1  0.38491000  0.76136000  0.16731000  1.0 -0.0221092728
C  C26  1  0.59405000  0.21760000  0.83269000  1.0 -0.0221092728
C  C27  1  0.46760000  0.13491000  0.12355000  1.0 -0.0221092728
C  C28  1  0.01136000  0.34405000  0.87645000  1.0 -0.0221092728
C  C29  1  0.86509000  0.98864000  0.33269000  1.0 -0.0221092728
C  C30  1  0.65595000  0.53240000  0.66731000  1.0 -0.0221092728
C  C31  1  0.78240000  0.61509000  0.37645000  1.0 -0.0221092728
C  C32  1  0.23864000  0.40595000  0.62355000  1.0 -0.0221092728
C  C33  1  0.16122000  0.53558000  0.16560000  1.0 -0.0127590373
C  C34  1  0.36998000  0.99562000  0.83440000  1.0 -0.0127590373
C  C35  1  0.24562000  0.91122000  0.12564000  1.0 -0.0127590373
C  C36  1  0.78558000  0.11998000  0.87436000  1.0 -0.0127590373
C  C37  1  0.08878000  0.21442000  0.33440000  1.0 -0.0127590373
C  C38  1  0.88002000  0.75438000  0.66560000  1.0 -0.0127590373
C  C39  1  0.00438000  0.83878000  0.37436000  1.0 -0.0127590373
C  C40  1  0.46442000  0.63002000  0.62564000  1.0 -0.0127590373
C  C41  1  0.39728000  0.76738000  0.41044000  1.0 -0.0276221914
C  C42  1  0.35694000  0.98684000  0.58956000  1.0 -0.0276221914
C  C43  1  0.23684000  0.14728000  0.12990000  1.0 -0.0221092728
C  C44  1  0.01738000  0.10694000  0.87010000  1.0 -0.0276221914
C  C45  1  0.85272000  0.98262000  0.08956000  1.0 -0.0276221914
C  C46  1  0.89306000  0.76316000  0.91044000  1.0 -0.0276221914
C  C47  1  0.01316000  0.60272000  0.37010000  1.0 -0.0276221914
C  C48  1  0.23262000  0.64306000  0.62990000  1.0 -0.0276221914
C  C49  1  0.24992000  0.79959000  0.38857000  1.0 0.3601208362
C  C50  1  0.41102000  0.86135000  0.61143000  1.0 0.3601208362
C  C51  1  0.11135000  0.99992000  0.95033000  1.0 0.3601208362
C  C52  1  0.04959000  0.16102000  0.04967000  1.0 0.3601208362
C  C53  1  0.00008000  0.95041000  0.11143000  1.0 0.3601208362
C  C54  1  0.83898000  0.88865000  0.88857000  1.0 0.3601208362
C  C55  1  0.13865000  0.75008000  0.54967000  1.0 0.3601208362
C  C56  1  0.20041000  0.58898000  0.45033000  1.0 0.3601208362
C  C57  1  0.17928000  0.74408000  0.35300000  1.0 -0.5456081913
C  C58  1  0.39108000  0.82628000  0.64700000  1.0 -0.5409013167
C  C59  1  0.07628000  0.92928000  0.93520000  1.0 -0.5409013167
C  C60  1  0.99408000  0.14108000  0.06480000  1.0 -0.5456081913
C  C61  1  0.07072000  0.00592000  0.14700000  1.0 -0.5409013167
C  C62  1  0.85892000  0.92372000  0.85300000  1.0 -0.5409013167
C  C63  1  0.17372000  0.82072000  0.56480000  1.0 -0.5456081913
C  C64  1  0.25592000  0.60892000  0.43520000  1.0 -0.5456081913
C  C65  1  0.27691000  0.83804000  0.36269000  1.0 -0.4634138779
C  C66  1  0.47535000  0.91422000  0.63731000  1.0 -0.4634138779
C  C67  1  0.16422000  0.02691000  0.93887000  1.0 -0.4634138779
C  C68  1  0.08804000  0.22535000  0.06113000  1.0 -0.4634138779
C  C69  1  0.97309000  0.91196000  0.13731000  1.0 -0.4634138779
C  C70  1  0.77465000  0.83578000  0.86269000  1.0 -0.4634138779
C  C71  1  0.08578000  0.72309000  0.56113000  1.0 -0.4652828411
C  C72  1  0.16196000  0.52465000  0.43887000  1.0 -0.4634138779
C  C73  1  0.34158000  0.88934000  0.38832000  1.0 0.398541288
C  C74  1  0.50102000  0.95326000  0.61168000  1.0 0.398541288
C  C75  1  0.20326000  0.09158000  0.95224000  1.0 0.398541288
C  C76  1  0.13934000  0.25102000  0.04776000  1.0 0.398541288
C  C77  1  0.90842000  0.86066000  0.11168000  1.0 0.398541288
C  C78  1  0.74898000  0.79674000  0.88832000  1.0 0.398541288
C  C79  1  0.04674000  0.65842000  0.54776000  1.0 0.398541288
C  C80  1  0.11066000  0.49898000  0.45224000  1.0 0.398541288
C  C81  1  0.36224000  0.92214000  0.35090000  1.0 -0.5409013167
C  C82  1  0.57124000  0.01134000  0.64910000  1.0 -0.5409013167
C  C83  1  0.26134000  0.11224000  0.94010000  1.0 -0.5409013167
C  C84  1  0.17214000  0.32124000  0.05990000  1.0 -0.5409013167
C  C85  1  0.88776000  0.82786000  0.14910000  1.0 -0.5409013167
C  C86  1  0.67876000  0.73866000  0.85090000  1.0 -0.5409013167
C  C87  1  0.98866000  0.63776000  0.55990000  1.0 -0.5409013167
C  C88  1  0.07786000  0.42876000  0.44010000  1.0 -0.5409013167
C  C89  1  0.37879000  0.35025000  0.15898000  1.0 -0.5226213992
C  C90  1  0.19127000  0.21981000  0.84102000  1.0 -0.5226213992
C  C91  1  0.46981000  0.12879000  0.52854000  1.0 -0.5226213992
C  C92  1  0.60025000  0.94127000  0.47146000  1.0 -0.5226213992
C  C93  1  0.87121000  0.39975000  0.34102000  1.0 -0.5226213992
C  C94  1  0.05873000  0.53019000  0.65898000  1.0 -0.5226213992
C  C95  1  0.78019000  0.62121000  0.97146000  1.0 -0.5226213992
C  C96  1  0.64975000  0.80873000  0.02854000  1.0 -0.5226213992
C  C97  1  0.40060000  0.37900000  0.11950000  1.0 0.3740798398
C  C98  1  0.25950000  0.28110000  0.88050000  1.0 0.3740798398
C  C99  1  0.53110000  0.15060000  0.52160000  1.0 0.3740798398
C  C100  1  0.62900000  0.00950000  0.47840000  1.0 0.3740798398
C  C101  1  0.84940000  0.37100000  0.38050000  1.0 0.3740798398
C  C102  1  0.99050000  0.46890000  0.61950000  1.0 0.3740798398
C  C103  1  0.71890000  0.59940000  0.97840000  1.0 0.3740798398
C  C104  1  0.62100000  0.74050000  0.02160000  1.0 0.3740798398
C  C105  1  0.46052000  0.43948000  0.14836000  1.0 -0.3770533339
C  C106  1  0.29112000  0.31216000  0.85164000  1.0 -0.3770533339
C  C107  1  0.56216000  0.21052000  0.52104000  1.0 -0.3770533339
C  C108  1  0.68948000  0.04112000  0.47896000  1.0 -0.3770533339
C  C109  1  0.78948000  0.31052000  0.35164000  1.0 -0.3770533339
C  C110  1  0.95888000  0.43784000  0.64836000  1.0 -0.3770533339
C  C111  1  0.68784000  0.53948000  0.97896000  1.0 -0.3770533339
C  C112  1  0.56052000  0.70888000  0.02104000  1.0 -0.3770533339
C  C113  1  0.49179000  0.46909000  0.11940000  1.0 0.3601208362
C  C114  1  0.34969000  0.37239000  0.88060000  1.0 0.3601208362
C  C115  1  0.62239000  0.24179000  0.52270000  1.0 0.3601208362
C  C116  1  0.71909000  0.09969000  0.47730000  1.0 0.3601208362
C  C117  1  0.75821000  0.28091000  0.38060000  1.0 0.3601208362
C  C118  1  0.90031000  0.37761000  0.61940000  1.0 0.3601208362
C  C119  1  0.62761000  0.50821000  0.97730000  1.0 0.3601208362
C  C120  1  0.53091000  0.65031000  0.02270000  1.0 0.3601208362
C  C121  1  0.56059000  0.52977000  0.15704000  1.0 -0.5001811073
C  C122  1  0.37273000  0.40355000  0.84296000  1.0 -0.5001811073
C  C123  1  0.65355000  0.31059000  0.53082000  1.0 -0.5001811073
C  C124  1  0.77977000  0.12273000  0.46918000  1.0 -0.5001811073
C  C125  1  0.68941000  0.22023000  0.34296000  1.0 -0.5001811073
C  C126  1  0.87727000  0.34645000  0.65704000  1.0 -0.5001811073
C  C127  1  0.59645000  0.43941000  0.96918000  1.0 -0.5001811073
C  C128  1  0.47023000  0.62727000  0.03082000  1.0 -0.5001811073
C  C129  1  0.30040000  0.27740000  0.02700000  1.0 0.077076552
C  C130  1  0.25040000  0.27340000  0.97300000  1.0 0.077076552
C  C131  1  0.52340000  0.05040000  0.52300000  1.0 0.077076552
C  C132  1  0.52740000  0.00040000  0.47700000  1.0 0.077076552
C  C133  1  0.94960000  0.47260000  0.47300000  1.0 0.077076552
C  C134  1  0.99960000  0.47660000  0.52700000  1.0 0.077076552
C  C135  1  0.72660000  0.69960000  0.97700000  1.0 0.077076552
C  C136  1  0.72260000  0.74960000  0.02300000  1.0 0.077076552
C  C137  1  0.25180000  0.77040000  0.47240000  1.0 0.0867011412
C  C138  1  0.29800000  0.77940000  0.52760000  1.0 0.0867011412
C  C139  1  0.02940000  0.00180000  0.98140000  1.0 0.0867011412
C  C140  1  0.02040000  0.04800000  0.01860000  1.0 0.0867011412
C  C141  1  0.99820000  0.97960000  0.02760000  1.0 0.0867011412
C  C142  1  0.95200000  0.97060000  0.97240000  1.0 0.0867011412
C  C143  1  0.22060000  0.74820000  0.51860000  1.0 0.0867011412
C  C144  1  0.22960000  0.70200000  0.48140000  1.0 0.0867011412
C  C145  1  0.45900000  0.95830000  0.46470000  1.0 0.0601740904
C  C146  1  0.49360000  0.99430000  0.53530000  1.0 0.0601740904
C  C147  1  0.24430000  0.20900000  0.00070000  1.0 0.0601740904
C  C148  1  0.20830000  0.24360000  0.99930000  1.0 0.0601740904
C  C149  1  0.79100000  0.79170000  0.03530000  1.0 0.0601740904
C  C150  1  0.75640000  0.75570000  0.96470000  1.0 0.0601740904
C  C151  1  0.00570000  0.54100000  0.49930000  1.0 0.0601740904
C  C152  1  0.04170000  0.50640000  0.50070000  1.0 0.0601740904
C  C153  1  0.72800000  0.20110000  0.47830000  1.0 0.1036890983
C  C154  1  0.72280000  0.24970000  0.52170000  1.0 0.1036890983
C  C155  1  0.49970000  0.47800000  0.02690000  1.0 0.1036890983
C  C156  1  0.45110000  0.47280000  0.97310000  1.0 0.1036890983
C  C157  1  0.52200000  0.54890000  0.02170000  1.0 0.1036890983
C  C158  1  0.52720000  0.50030000  0.97830000  1.0 0.1036890983
C  C159  1  0.75030000  0.27200000  0.47310000  1.0 0.1036890983
C  C160  1  0.79890000  0.27720000  0.52690000  1.0 0.1036890983
C  C161  1  0.51706000  0.96963000  0.23665000  1.0 -0.3596979046
C  C162  1  0.53818000  0.93760000  0.31730000  1.0 -0.3698137734
C  C163  1  0.62834000  0.02588000  0.31770000  1.0 -0.3698137734
C  C164  1  0.57236000  0.91342000  0.23958000  1.0 -0.3596979046
C  C165  1  0.73298000  0.28041000  0.76335000  1.0 -0.3532081265
C  C166  1  0.62030000  0.22088000  0.68270000  1.0 -0.3698137734
C  C167  1  0.70818000  0.31064000  0.68230000  1.0 -0.3698137734
C  C168  1  0.67384000  0.33278000  0.76042000  1.0 -0.3596979046
C  C169  1  0.21963000  0.48298000  0.95257000  1.0 -0.3596979046
C  C170  1  0.18760000  0.37030000  0.89942000  1.0 -0.3698137734
C  C171  1  0.27588000  0.45818000  0.89754000  1.0 -0.3698137734
C  C172  1  0.16342000  0.42384000  0.84106000  1.0 -0.3596979046
C  C173  1  0.53041000  0.26706000  0.04743000  1.0 -0.3596979046
C  C174  1  0.47088000  0.28818000  0.10058000  1.0 -0.3698137734
C  C175  1  0.56064000  0.37834000  0.10246000  1.0 -0.3698137734
C  C176  1  0.58278000  0.32236000  0.15894000  1.0 -0.3596979046
C  C177  1  0.73294000  0.78037000  0.26335000  1.0 -0.3596979046
C  C178  1  0.71182000  0.81240000  0.18270000  1.0 -0.3698137734
C  C179  1  0.62166000  0.72412000  0.18230000  1.0 -0.3698137734
C  C180  1  0.67764000  0.83658000  0.26042000  1.0 -0.3596979046
C  C181  1  0.51702000  0.46959000  0.73665000  1.0 -0.3596979046
C  C182  1  0.62970000  0.52912000  0.81730000  1.0 -0.3698137734
C  C183  1  0.54182000  0.43936000  0.81770000  1.0 -0.3698137734
C  C184  1  0.57616000  0.41722000  0.73958000  1.0 -0.3596979046
C  C185  1  0.03037000  0.26702000  0.54743000  1.0 -0.3532081265
C  C186  1  0.06240000  0.37970000  0.60058000  1.0 -0.3698137734
C  C187  1  0.97412000  0.29182000  0.60246000  1.0 -0.3698137734
C  C188  1  0.08658000  0.32616000  0.65894000  1.0 -0.3596979046
C  C189  1  0.71959000  0.48294000  0.45257000  1.0 -0.3596979046
C  C190  1  0.77912000  0.46182000  0.39942000  1.0 -0.3698137734
C  C191  1  0.68936000  0.37166000  0.39754000  1.0 -0.3698137734
C  C192  1  0.66722000  0.42764000  0.34106000  1.0 -0.3596979046
C  C193  1  0.43466000  0.91640000  0.94846000  1.0 -0.3698137734
C  C194  1  0.48641000  0.89200000  0.02461000  1.0 -0.3596979046
C  C195  1  0.47195000  0.98097000  0.05878000  1.0 -0.3698137734
C  C196  1  0.55312000  0.99186000  0.02112000  1.0 -0.3770533339
C  C197  1  0.96794000  0.48620000  0.05154000  1.0 -0.3698137734
C  C198  1  0.86739000  0.46180000  0.97539000  1.0 -0.3596979046
C  C199  1  0.92219000  0.41317000  0.94122000  1.0 -0.3698137734
C  C200  1  0.97074000  0.53200000  0.97888000  1.0 -0.3770533339
C  C201  1  0.16640000  0.71794000  0.98174000  1.0 -0.3698137734
C  C202  1  0.14200000  0.61739000  0.90559000  1.0 -0.3596979046
C  C203  1  0.23097000  0.67219000  0.00902000  1.0 -0.3698137734
C  C204  1  0.24186000  0.72074000  0.93874000  1.0 -0.3770533339
C  C205  1  0.73620000  0.18466000  0.01826000  1.0 -0.3698137734
C  C206  1  0.71180000  0.23641000  0.09441000  1.0 -0.3596979046
C  C207  1  0.66317000  0.22195000  0.99098000  1.0 -0.3698137734
C  C208  1  0.78200000  0.30312000  0.06126000  1.0 -0.3770533339
C  C209  1  0.81534000  0.83360000  0.55154000  1.0 -0.3698137734
C  C210  1  0.76359000  0.85800000  0.47539000  1.0 -0.3596979046
C  C211  1  0.77805000  0.76903000  0.44122000  1.0 -0.3698137734
C  C212  1  0.69688000  0.75814000  0.47888000  1.0 -0.3770533339
C  C213  1  0.28206000  0.26380000  0.44846000  1.0 -0.3698137734
C  C214  1  0.38261000  0.28820000  0.52461000  1.0 -0.3596979046
C  C215  1  0.32781000  0.33683000  0.55878000  1.0 -0.3698137734
C  C216  1  0.27926000  0.21800000  0.52112000  1.0 -0.3770533339
C  C217  1  0.08360000  0.03206000  0.51826000  1.0 -0.3698137734
C  C218  1  0.10800000  0.13261000  0.59441000  1.0 -0.3596979046
C  C219  1  0.01903000  0.07781000  0.49098000  1.0 -0.3698137734
C  C220  1  0.00814000  0.02926000  0.56126000  1.0 -0.3770533339
C  C221  1  0.51380000  0.56534000  0.48174000  1.0 -0.3698137734
C  C222  1  0.53820000  0.51359000  0.40559000  1.0 -0.3596979046
C  C223  1  0.58683000  0.52805000  0.50902000  1.0 -0.3698137734
C  C224  1  0.46800000  0.44688000  0.43874000  1.0 -0.3770533339
C  C225  1  0.99115000  0.44810000  0.19125000  1.0 -0.3698137734
C  C226  1  0.06677000  0.42463000  0.24406000  1.0 -0.3596979046
C  C227  1  0.00090000  0.44759000  0.28769000  1.0 -0.3698137734
C  C228  1  0.09117000  0.53525000  0.28688000  1.0 -0.3698137734
C  C229  1  0.25685000  0.79990000  0.80875000  1.0 -0.3698137734
C  C230  1  0.18057000  0.82271000  0.75594000  1.0 -0.3596979046
C  C231  1  0.15990000  0.71321000  0.71231000  1.0 -0.3698137734
C  C232  1  0.24837000  0.80429000  0.71312000  1.0 -0.3698137734
C  C233  1  0.69810000  0.00685000  0.95695000  1.0 -0.3698137734
C  C234  1  0.67463000  0.93057000  0.85786000  1.0 -0.3596979046
C  C235  1  0.69759000  0.90990000  0.94669000  1.0 -0.3698137734
C  C236  1  0.78525000  0.99837000  0.94408000  1.0 -0.3698137734
C  C237  1  0.04990000  0.74115000  0.04305000  1.0 -0.3698137734
C  C238  1  0.07271000  0.81677000  0.14214000  1.0 -0.3596979046
C  C239  1  0.96321000  0.75090000  0.05331000  1.0 -0.3698137734
C  C240  1  0.05429000  0.84117000  0.05592000  1.0 -0.3698137734
C  C241  1  0.25885000  0.30190000  0.30875000  1.0 -0.3698137734
C  C242  1  0.18323000  0.32537000  0.25594000  1.0 -0.3596979046
C  C243  1  0.24910000  0.30241000  0.21231000  1.0 -0.3698137734
C  C244  1  0.15883000  0.21475000  0.21312000  1.0 -0.3698137734
C  C245  1  0.99315000  0.95010000  0.69125000  1.0 -0.3698137734
C  C246  1  0.06943000  0.92729000  0.74406000  1.0 -0.3596979046
C  C247  1  0.09010000  0.03679000  0.78769000  1.0 -0.3698137734
C  C248  1  0.00163000  0.94571000  0.78688000  1.0 -0.3698137734
C  C249  1  0.55190000  0.74315000  0.54305000  1.0 -0.3698137734
C  C250  1  0.57537000  0.81943000  0.64214000  1.0 -0.3596979046
C  C251  1  0.55241000  0.84010000  0.55331000  1.0 -0.3698137734
C  C252  1  0.46475000  0.75163000  0.55592000  1.0 -0.3698137734
C  C253  1  0.20010000  0.00885000  0.45695000  1.0 -0.3698137734
C  C254  1  0.17729000  0.93323000  0.35786000  1.0 -0.3596979046
C  C255  1  0.28679000  0.99910000  0.44669000  1.0 -0.3698137734
C  C256  1  0.19571000  0.90883000  0.44408000  1.0 -0.3698137734
N  N1  1  0.63590000  0.73777000  0.33311000  1.0 -0.3532081265
N  N2  1  0.40466000  0.30279000  0.66689000  1.0 -0.3532081265
N  N3  1  0.55279000  0.38590000  0.39813000  1.0 -0.3532081265
N  N4  1  0.98777000  0.15466000  0.60187000  1.0 -0.3532081265
N  N5  1  0.61410000  0.01223000  0.16689000  1.0 -0.3532081265
N  N6  1  0.84534000  0.44721000  0.83311000  1.0 -0.3532081265
N  N7  1  0.69721000  0.36410000  0.10187000  1.0 -0.3532081265
N  N8  1  0.26223000  0.59534000  0.89813000  1.0 -0.3532081265
N  N9  1  0.35790000  0.45910000  0.34028000  1.0 -0.3596979046
N  N10  1  0.11882000  0.01762000  0.65972000  1.0 -0.3596979046
N  N11  1  0.26762000  0.10790000  0.39880000  1.0 -0.3596979046
N  N12  1  0.70910000  0.86882000  0.60120000  1.0 -0.3596979046
N  N13  1  0.89210000  0.29090000  0.15972000  1.0 -0.3596979046
N  N14  1  0.13118000  0.73238000  0.84028000  1.0 -0.3596979046
N  N15  1  0.98238000  0.64210000  0.10120000  1.0 -0.3596979046
N  N16  1  0.54090000  0.88118000  0.89880000  1.0 -0.3596979046
N  N17  1  0.34369000  0.44696000  0.03825000  1.0 -0.3596979046
N  N18  1  0.40871000  0.30544000  0.96175000  1.0 -0.3596979046
N  N19  1  0.55544000  0.09369000  0.39673000  1.0 -0.3596979046
N  N20  1  0.69696000  0.15871000  0.60327000  1.0 -0.3596979046
N  N21  1  0.90631000  0.30304000  0.46175000  1.0 -0.3596979046
N  N22  1  0.84129000  0.44456000  0.53825000  1.0 -0.3596979046
N  N23  1  0.69456000  0.65631000  0.10327000  1.0 -0.3596979046
N  N24  1  0.55304000  0.59129000  0.89673000  1.0 -0.3596979046
N  N25  1  0.38852000  0.79937000  0.15115000  1.0 -0.3596979046
N  N26  1  0.64822000  0.23737000  0.84885000  1.0 -0.3596979046
N  N27  1  0.48737000  0.13852000  0.08915000  1.0 -0.3596979046
N  N28  1  0.04937000  0.39822000  0.91085000  1.0 -0.3596979046
N  N29  1  0.86148000  0.95063000  0.34885000  1.0 -0.3596979046
N  N30  1  0.60178000  0.51263000  0.65115000  1.0 -0.3596979046
N  N31  1  0.76263000  0.61148000  0.41085000  1.0 -0.3596979046
N  N32  1  0.20063000  0.35178000  0.58915000  1.0 -0.3596979046
N  N33  1  0.10658000  0.51487000  0.14713000  1.0 -0.3532081265
N  N34  1  0.36774000  0.95945000  0.85287000  1.0 -0.3532081265
N  N35  1  0.20945000  0.85658000  0.09171000  1.0 -0.3532081265
N  N36  1  0.76487000  0.11774000  0.90829000  1.0 -0.3532081265
N  N37  1  0.14342000  0.23513000  0.35287000  1.0 -0.3532081265
N  N38  1  0.88226000  0.79055000  0.64713000  1.0 -0.3532081265
N  N39  1  0.04055000  0.89342000  0.40829000  1.0 -0.3532081265
N  N40  1  0.48513000  0.63226000  0.59171000  1.0 -0.3532081265
N  N41  1  0.40021000  0.80403000  0.45124000  1.0 -0.4042383031
N  N42  1  0.35279000  0.94897000  0.54876000  1.0 -0.405227168
N  N43  1  0.19897000  0.15021000  0.09618000  1.0 -0.4042383031
N  N44  1  0.05403000  0.10279000  0.90382000  1.0 -0.4042383031
N  N45  1  0.84979000  0.94597000  0.04876000  1.0 -0.4042383031
N  N46  1  0.89721000  0.80103000  0.95124000  1.0 -0.405227168
N  N47  1  0.05103000  0.59979000  0.40382000  1.0 -0.4042383031
N  N48  1  0.19597000  0.64721000  0.59618000  1.0 -0.405227168
N  N49  1  0.46526000  0.44608000  0.05960000  1.0 -0.3213882842
N  N50  1  0.38648000  0.40566000  0.94040000  1.0 -0.3213882842
N  N51  1  0.65566000  0.21526000  0.51918000  1.0 -0.3213882842
N  N52  1  0.69608000  0.13648000  0.48082000  1.0 -0.3213882842
N  N53  1  0.78474000  0.30392000  0.44040000  1.0 -0.3213882842
N  N54  1  0.86352000  0.34434000  0.55960000  1.0 -0.3213882842
N  N55  1  0.59434000  0.53474000  0.98082000  1.0 -0.3213882842
N  N56  1  0.55392000  0.61352000  0.01918000  1.0 -0.3213882842
N  N57  1  0.36404000  0.34607000  0.06019000  1.0 -0.2979511306
N  N58  1  0.28588000  0.30385000  0.93981000  1.0 -0.2979511306
N  N59  1  0.55385000  0.11404000  0.51797000  1.0 -0.2979511306
N  N60  1  0.59607000  0.03588000  0.48203000  1.0 -0.2979511306
N  N61  1  0.88596000  0.40393000  0.43981000  1.0 -0.2979511306
N  N62  1  0.96412000  0.44615000  0.56019000  1.0 -0.2979511306
N  N63  1  0.69615000  0.63596000  0.98203000  1.0 -0.2979511306
N  N64  1  0.65393000  0.71412000  0.01797000  1.0 -0.2979511306
N  N65  1  0.56387000  0.96161000  0.27740000  1.0 0.3218929782
N  N66  1  0.68421000  0.28647000  0.72260000  1.0 0.3218929782
N  N67  1  0.21161000  0.43421000  0.89774000  1.0 0.3218929782
N  N68  1  0.53647000  0.31387000  0.10226000  1.0 0.3218929782
N  N69  1  0.68613000  0.78839000  0.22260000  1.0 0.3218929782
N  N70  1  0.56579000  0.46353000  0.77740000  1.0 0.3218929782
N  N71  1  0.03839000  0.31579000  0.60226000  1.0 0.3218929782
N  N72  1  0.71353000  0.43613000  0.39774000  1.0 0.3218929782
N  N73  1  0.48653000  0.94554000  0.01297000  1.0 0.3345214664
N  N74  1  0.93257000  0.47356000  0.98703000  1.0 0.3345214664
N  N75  1  0.19554000  0.68257000  0.95901000  1.0 0.3345214664
N  N76  1  0.72356000  0.23653000  0.04099000  1.0 0.3345214664
N  N77  1  0.76347000  0.80446000  0.48703000  1.0 0.3345214664
N  N78  1  0.31743000  0.27644000  0.51297000  1.0 0.3345214664
N  N79  1  0.05446000  0.06743000  0.54099000  1.0 0.3345214664
N  N80  1  0.52644000  0.51347000  0.45901000  1.0 0.3345214664
N  N81  1  0.03828000  0.46377000  0.25317000  1.0 0.3218929782
N  N82  1  0.21060000  0.78511000  0.74683000  1.0 0.3218929782
N  N83  1  0.71377000  0.96060000  0.92549000  1.0 0.3218929782
N  N84  1  0.03511000  0.78828000  0.07451000  1.0 0.3218929782
N  N85  1  0.21172000  0.28623000  0.24683000  1.0 0.3218929782
N  N86  1  0.03940000  0.96489000  0.75317000  1.0 0.3218929782
N  N87  1  0.53623000  0.78940000  0.57451000  1.0 0.3218929782
N  N88  1  0.21489000  0.96172000  0.42549000  1.0 0.3218929782
Cl  Cl1  1  0.47391000  0.60128000  0.19319000  1.0 -0.2719939318
Cl  Cl2  1  0.40809000  0.28072000  0.80681000  1.0 -0.2719939318
Cl  Cl3  1  0.53072000  0.22391000  0.37263000  1.0 -0.2719939318
Cl  Cl4  1  0.85128000  0.15809000  0.62737000  1.0 -0.2719939318
Cl  Cl5  1  0.77609000  0.14872000  0.30681000  1.0 -0.2719939318
Cl  Cl6  1  0.84191000  0.46928000  0.69319000  1.0 -0.2719939318
Cl  Cl7  1  0.71928000  0.52609000  0.12737000  1.0 -0.2719939318
Cl  Cl8  1  0.39872000  0.59191000  0.87263000  1.0 -0.2719939318
Cl  Cl9  1  0.49723000  0.75337000  0.24290000  1.0 -0.2800161903
Cl  Cl10  1  0.51047000  0.25433000  0.75710000  1.0 -0.2800161903
Cl  Cl11  1  0.50433000  0.24723000  0.24386000  1.0 -0.2800161903
Cl  Cl12  1  0.00337000  0.26047000  0.75614000  1.0 -0.2800161903
Cl  Cl13  1  0.75277000  0.99663000  0.25710000  1.0 -0.2800161903
Cl  Cl14  1  0.73953000  0.49567000  0.74290000  1.0 -0.2800161903
Cl  Cl15  1  0.74567000  0.50277000  0.25614000  1.0 -0.2800161903
Cl  Cl16  1  0.24663000  0.48953000  0.74386000  1.0 -0.2800161903
Cl  Cl17  1  0.48305000  0.60622000  0.33239000  1.0 -0.2921211225
Cl  Cl18  1  0.27383000  0.15066000  0.66761000  1.0 -0.2921211225
Cl  Cl19  1  0.40066000  0.23305000  0.37683000  1.0 -0.2921211225
Cl  Cl20  1  0.85622000  0.02383000  0.62317000  1.0 -0.2921211225
Cl  Cl21  1  0.76695000  0.14378000  0.16761000  1.0 -0.2921211225
Cl  Cl22  1  0.97617000  0.59934000  0.83239000  1.0 -0.2921211225
Cl  Cl23  1  0.84934000  0.51695000  0.12317000  1.0 -0.2921211225
Cl  Cl24  1  0.39378000  0.72617000  0.87683000  1.0 -0.2921211225
Cl  Cl25  1  0.50593000  0.75786000  0.38131000  1.0 -0.2800161903
Cl  Cl26  1  0.37655000  0.12462000  0.61869000  1.0 -0.2800161903
Cl  Cl27  1  0.37462000  0.25593000  0.24807000  1.0 -0.2800161903
Cl  Cl28  1  0.00786000  0.12655000  0.75193000  1.0 -0.2800161903
Cl  Cl29  1  0.74407000  0.99214000  0.11869000  1.0 -0.2921211225
Cl  Cl30  1  0.87345000  0.62538000  0.88131000  1.0 -0.2800161903
Cl  Cl31  1  0.87538000  0.49407000  0.25193000  1.0 -0.2800161903
Cl  Cl32  1  0.24214000  0.62345000  0.74807000  1.0 -0.2921211225
Cl  Cl33  1  0.34852000  0.47530000  0.19432000  1.0 -0.2800161903
Cl  Cl34  1  0.28098000  0.15420000  0.80568000  1.0 -0.2800161903
Cl  Cl35  1  0.40420000  0.09852000  0.37322000  1.0 -0.2800161903
Cl  Cl36  1  0.72530000  0.03098000  0.62678000  1.0 -0.2800161903
Cl  Cl37  1  0.90148000  0.27470000  0.30568000  1.0 -0.2800161903
Cl  Cl38  1  0.96902000  0.59580000  0.69432000  1.0 -0.2800161903
Cl  Cl39  1  0.84580000  0.65148000  0.12678000  1.0 -0.2800161903
Cl  Cl40  1  0.52470000  0.71902000  0.87322000  1.0 -0.2800161903
Cl  Cl41  1  0.24609000  0.50102000  0.24415000  1.0 -0.2921211225
Cl  Cl42  1  0.25687000  0.00194000  0.75585000  1.0 -0.2921211225
Cl  Cl43  1  0.25194000  0.99609000  0.24507000  1.0 -0.2921211225
Cl  Cl44  1  0.75102000  0.00687000  0.75493000  1.0 -0.2921211225
Cl  Cl45  1  0.00391000  0.24898000  0.25585000  1.0 -0.2921211225
Cl  Cl46  1  0.99313000  0.74806000  0.74415000  1.0 -0.2921211225
Cl  Cl47  1  0.99806000  0.75391000  0.25493000  1.0 -0.2921211225
Cl  Cl48  1  0.49898000  0.74313000  0.74507000  1.0 -0.2921211225
Cl  Cl49  1  0.38027000  0.63142000  0.38217000  1.0 -0.2800161903
Cl  Cl50  1  0.24925000  0.99810000  0.61783000  1.0 -0.2800161903
Cl  Cl51  1  0.24810000  0.13027000  0.24885000  1.0 -0.2800161903
Cl  Cl52  1  0.88142000  0.99925000  0.75115000  1.0 -0.2800161903
Cl  Cl53  1  0.86973000  0.11858000  0.11783000  1.0 -0.2800161903
Cl  Cl54  1  0.00075000  0.75190000  0.88217000  1.0 -0.2800161903
Cl  Cl55  1  0.00190000  0.61973000  0.25115000  1.0 -0.2800161903
Cl  Cl56  1  0.36858000  0.75075000  0.74885000  1.0 -0.2800161903
Cl  Cl57  1  0.36290000  0.62277000  0.10507000  1.0 -0.2800161903
Cl  Cl58  1  0.51770000  0.25783000  0.89493000  1.0 -0.2800161903
Cl  Cl59  1  0.50783000  0.11290000  0.24013000  1.0 -0.2800161903
Cl  Cl60  1  0.87277000  0.26770000  0.75987000  1.0 -0.2800161903
Cl  Cl61  1  0.88710000  0.12723000  0.39493000  1.0 -0.2800161903
Cl  Cl62  1  0.73230000  0.49217000  0.60507000  1.0 -0.2800161903
Cl  Cl63  1  0.74217000  0.63710000  0.25987000  1.0 -0.2800161903
Cl  Cl64  1  0.37723000  0.48230000  0.74013000  1.0 -0.2800161903
Cl  Cl65  1  0.23758000  0.49663000  0.10573000  1.0 -0.2719939318
Cl  Cl66  1  0.39090000  0.13185000  0.89427000  1.0 -0.2719939318
Cl  Cl67  1  0.38185000  0.98758000  0.24095000  1.0 -0.2719939318
Cl  Cl68  1  0.74663000  0.14090000  0.75905000  1.0 -0.2719939318
Cl  Cl69  1  0.01242000  0.25337000  0.39427000  1.0 -0.2719939318
Cl  Cl70  1  0.85910000  0.61815000  0.60573000  1.0 -0.2719939318
Cl  Cl71  1  0.86815000  0.76242000  0.25905000  1.0 -0.2719939318
Cl  Cl72  1  0.50337000  0.60910000  0.74095000  1.0 -0.2719939318
Cl  Cl73  1  0.26078000  0.64848000  0.15510000  1.0 -0.2800161903
Cl  Cl74  1  0.49338000  0.10568000  0.84490000  1.0 -0.2800161903
Cl  Cl75  1  0.35568000  0.01078000  0.11230000  1.0 -0.2800161903
Cl  Cl76  1  0.89848000  0.24338000  0.88770000  1.0 -0.2800161903
Cl  Cl77  1  0.98922000  0.10152000  0.34490000  1.0 -0.2800161903
Cl  Cl78  1  0.75662000  0.64432000  0.65510000  1.0 -0.2800161903
Cl  Cl79  1  0.89432000  0.73922000  0.38770000  1.0 -0.2800161903
Cl  Cl80  1  0.35152000  0.50662000  0.61230000  1.0 -0.2800161903
Cl  Cl81  1  0.39448000  0.77944000  0.29354000  1.0 -0.2719939318
Cl  Cl82  1  0.48590000  0.10094000  0.70646000  1.0 -0.2719939318
Cl  Cl83  1  0.35094000  0.14448000  0.11504000  1.0 -0.2719939318
Cl  Cl84  1  0.02944000  0.23590000  0.88496000  1.0 -0.2719939318
Cl  Cl85  1  0.85552000  0.97056000  0.20646000  1.0 -0.2719939318
Cl  Cl86  1  0.76410000  0.64906000  0.79354000  1.0 -0.2719939318
Cl  Cl87  1  0.89906000  0.60552000  0.38496000  1.0 -0.2800161903
Cl  Cl88  1  0.22056000  0.51410000  0.61504000  1.0 -0.2719939318
Cl  Cl89  1  0.26881000  0.65311000  0.29364000  1.0 -0.2800161903
Cl  Cl90  1  0.35947000  0.97517000  0.70636000  1.0 -0.2800161903
Cl  Cl91  1  0.22517000  0.01881000  0.11570000  1.0 -0.2800161903
Cl  Cl92  1  0.90311000  0.10947000  0.88430000  1.0 -0.2800161903
Cl  Cl93  1  0.98119000  0.09689000  0.20636000  1.0 -0.2800161903
Cl  Cl94  1  0.89053000  0.77483000  0.79364000  1.0 -0.2800161903
Cl  Cl95  1  0.02483000  0.73119000  0.38430000  1.0 -0.2800161903
Cl  Cl96  1  0.34689000  0.64053000  0.61570000  1.0 -0.2800161903
O  O1  1  0.28342000  0.80941000  0.44327000  1.0 -0.2384540685
O  O2  1  0.36614000  0.84015000  0.55673000  1.0 -0.2384540685
O  O3  1  0.09015000  0.03342000  0.97401000  1.0 -0.2384540685
O  O4  1  0.05941000  0.11614000  0.02599000  1.0 -0.2384540685
O  O5  1  0.96658000  0.94059000  0.05673000  1.0 -0.2384540685
O  O6  1  0.88386000  0.90985000  0.94327000  1.0 -0.2384540685
O  O7  1  0.15985000  0.71658000  0.52599000  1.0 -0.2384540685
O  O8  1  0.19059000  0.63386000  0.47401000  1.0 -0.2384540685
O  O9  1  0.38512000  0.91080000  0.44294000  1.0 -0.2338099782
O  O10  1  0.46786000  0.94218000  0.55706000  1.0 -0.2338099782
O  O11  1  0.19218000  0.13512000  0.97432000  1.0 -0.2338099782
O  O12  1  0.16080000  0.21786000  0.02568000  1.0 -0.2338099782
O  O13  1  0.86488000  0.83920000  0.05706000  1.0 -0.2338099782
O  O14  1  0.78214000  0.80782000  0.94294000  1.0 -0.2338099782
O  O15  1  0.05782000  0.61488000  0.52568000  1.0 -0.2338099782
O  O16  1  0.08920000  0.53214000  0.47432000  1.0 -0.2338099782
