# DDEC6 charges by PACMAN v1.1 (https://github.com/mtap-research/PACMAN-charge/)
data_ALUKOI_FSR_pacman
_symmetry_space_group_name_H-M   'P 1'
_cell_length_a   16.10860000
_cell_length_b   16.10860000
_cell_length_c   27.96320000
_cell_angle_alpha   79.97990000
_cell_angle_beta   100.02000000
_cell_angle_gamma   116.98100000
_symmetry_Int_Tables_number   1
_chemical_formula_structural   SmH24C25S2N3O8
_chemical_formula_sum   'Sm4 H96 C100 S8 N12 O32'
_cell_volume   6330.21821043
_cell_formula_units_Z   4
loop_
 _symmetry_equiv_pos_site_id
 _symmetry_equiv_pos_as_xyz
  1  'x, y, z'
loop_
 _atom_site_type_symbol
 _atom_site_label
 _atom_site_symmetry_multiplicity
 _atom_site_fract_x
 _atom_site_fract_y
 _atom_site_fract_z
 _atom_site_occupancy
 _atom_site_charge
Sm  Sm1  1  0.06657000  0.46875000  0.95390000  1.0 2.0910819813
Sm  Sm2  1  0.46875000  0.06657000  0.54610000  1.0 2.0910819813
Sm  Sm3  1  0.93343000  0.53125000  0.04610000  1.0 2.0910819813
Sm  Sm4  1  0.53125000  0.93343000  0.45390000  1.0 2.0910819813
H  H1  1  0.06500000  0.36680000  0.79720000  1.0 0.1277630827
H  H2  1  0.36680000  0.06500000  0.70280000  1.0 0.1277630827
H  H3  1  0.93500000  0.63320000  0.20280000  1.0 0.1277630827
H  H4  1  0.63320000  0.93500000  0.29720000  1.0 0.1277630827
H  H5  1  0.10620000  0.29240000  0.74630000  1.0 0.1277630827
H  H6  1  0.29240000  0.10620000  0.75370000  1.0 0.1277630827
H  H7  1  0.89380000  0.70760000  0.25370000  1.0 0.1277630827
H  H8  1  0.70760000  0.89380000  0.24630000  1.0 0.1277630827
H  H9  1  0.19500000  0.15940000  0.86630000  1.0 0.1277630827
H  H10  1  0.15940000  0.19500000  0.63370000  1.0 0.1214662711
H  H11  1  0.80500000  0.84060000  0.13370000  1.0 0.1277630827
H  H12  1  0.84060000  0.80500000  0.36630000  1.0 0.1214662711
H  H13  1  0.16010000  0.24010000  0.91450000  1.0 0.1277630827
H  H14  1  0.24010000  0.16010000  0.58550000  1.0 0.1277630827
H  H15  1  0.83990000  0.75990000  0.08550000  1.0 0.1277630827
H  H16  1  0.75990000  0.83990000  0.41450000  1.0 0.1277630827
H  H17  1  0.82710000  0.67430000  0.91000000  1.0 0.1277630827
H  H18  1  0.67430000  0.82710000  0.59000000  1.0 0.1277630827
H  H19  1  0.17290000  0.32570000  0.09000000  1.0 0.1277630827
H  H20  1  0.32570000  0.17290000  0.41000000  1.0 0.1277630827
H  H21  1  0.76760000  0.73880000  0.84170000  1.0 0.1277630827
H  H22  1  0.73880000  0.76760000  0.65830000  1.0 0.1277630827
H  H23  1  0.23240000  0.26120000  0.15830000  1.0 0.1277630827
H  H24  1  0.26120000  0.23240000  0.34170000  1.0 0.1277630827
H  H25  1  0.86500000  0.63240000  0.75760000  1.0 0.1277630827
H  H26  1  0.63240000  0.86500000  0.74240000  1.0 0.1277630827
H  H27  1  0.13500000  0.36760000  0.24240000  1.0 0.1277630827
H  H28  1  0.36760000  0.13500000  0.25760000  1.0 0.1277630827
H  H29  1  0.93370000  0.57090000  0.82930000  1.0 0.1402822479
H  H30  1  0.57090000  0.93370000  0.67070000  1.0 0.1402822479
H  H31  1  0.06630000  0.42910000  0.17070000  1.0 0.1402822479
H  H32  1  0.42910000  0.06630000  0.32930000  1.0 0.1402822479
H  H33  1  0.78910000  0.17670000  0.94390000  1.0 0.1402822479
H  H34  1  0.17670000  0.78910000  0.55610000  1.0 0.1402822479
H  H35  1  0.21090000  0.82330000  0.05610000  1.0 0.1402822479
H  H36  1  0.82330000  0.21090000  0.44390000  1.0 0.1402822479
H  H37  1  0.64650000  0.05030000  0.95720000  1.0 0.1214662711
H  H38  1  0.05030000  0.64650000  0.54280000  1.0 0.1214662711
H  H39  1  0.35350000  0.94970000  0.04280000  1.0 0.1214662711
H  H40  1  0.94970000  0.35350000  0.45720000  1.0 0.1214662711
H  H41  1  0.58800000  0.19360000  0.03890000  1.0 0.1277630827
H  H42  1  0.19360000  0.58800000  0.46110000  1.0 0.1277630827
H  H43  1  0.41200000  0.80640000  0.96110000  1.0 0.1277630827
H  H44  1  0.80640000  0.41200000  0.53890000  1.0 0.1277630827
H  H45  1  0.73220000  0.31800000  0.03110000  1.0 0.1277630827
H  H46  1  0.31800000  0.73220000  0.46890000  1.0 0.1277630827
H  H47  1  0.26780000  0.68200000  0.96890000  1.0 0.1277630827
H  H48  1  0.68200000  0.26780000  0.53110000  1.0 0.1277630827
H  H49  1  0.34740000  0.69480000  0.89100000  1.0 0.1402822479
H  H50  1  0.69480000  0.34740000  0.60900000  1.0 0.1402822479
H  H51  1  0.65260000  0.30520000  0.10900000  1.0 0.1495417093
H  H52  1  0.30520000  0.65260000  0.39100000  1.0 0.1402822479
H  H53  1  0.32980000  0.73060000  0.83620000  1.0 0.1495417093
H  H54  1  0.73060000  0.32980000  0.66380000  1.0 0.1495417093
H  H55  1  0.67020000  0.26940000  0.16380000  1.0 0.1495417093
H  H56  1  0.26940000  0.67020000  0.33620000  1.0 0.1495417093
H  H57  1  0.28370000  0.74730000  0.87630000  1.0 0.1568890184
H  H58  1  0.74730000  0.28370000  0.62370000  1.0 0.1568890184
H  H59  1  0.71630000  0.25270000  0.12370000  1.0 0.1568890184
H  H60  1  0.25270000  0.71630000  0.37630000  1.0 0.1568890184
H  H61  1  0.16280000  0.67260000  0.78620000  1.0 0.1495417093
H  H62  1  0.67260000  0.16280000  0.71380000  1.0 0.1495417093
H  H63  1  0.83720000  0.32740000  0.21380000  1.0 0.1495417093
H  H64  1  0.32740000  0.83720000  0.28620000  1.0 0.1495417093
H  H65  1  0.13570000  0.56870000  0.77890000  1.0 0.1495417093
H  H66  1  0.56870000  0.13570000  0.72110000  1.0 0.1495417093
H  H67  1  0.86430000  0.43130000  0.22110000  1.0 0.1495417093
H  H68  1  0.43130000  0.86430000  0.27890000  1.0 0.1495417093
H  H69  1  0.07240000  0.59100000  0.80630000  1.0 0.1568890184
H  H70  1  0.59100000  0.07240000  0.69370000  1.0 0.1568890184
H  H71  1  0.92760000  0.40900000  0.19370000  1.0 0.1568890184
H  H72  1  0.40900000  0.92760000  0.30630000  1.0 0.1568890184
H  H73  1  0.41410000  0.50990000  0.95690000  1.0 0.1568890184
H  H74  1  0.50990000  0.41410000  0.54310000  1.0 0.1568890184
H  H75  1  0.58590000  0.49010000  0.04310000  1.0 0.1495417093
H  H76  1  0.49010000  0.58590000  0.45690000  1.0 0.1568890184
H  H77  1  0.35780000  0.40080000  0.95740000  1.0 0.1568890184
H  H78  1  0.40080000  0.35780000  0.54260000  1.0 0.1568890184
H  H79  1  0.64220000  0.59920000  0.04260000  1.0 0.1568890184
H  H80  1  0.59920000  0.64220000  0.45740000  1.0 0.1568890184
H  H81  1  0.32310000  0.46690000  0.92070000  1.0 0.1707216111
H  H82  1  0.46690000  0.32310000  0.57930000  1.0 0.1707216111
H  H83  1  0.67690000  0.53310000  0.07930000  1.0 0.1707216111
H  H84  1  0.53310000  0.67690000  0.42070000  1.0 0.1707216111
H  H85  1  0.34460000  0.52440000  0.07170000  1.0 0.1707216111
H  H86  1  0.52440000  0.34460000  0.42830000  1.0 0.1707216111
H  H87  1  0.65540000  0.47560000  0.92830000  1.0 0.1707216111
H  H88  1  0.47560000  0.65540000  0.57170000  1.0 0.1707216111
H  H89  1  0.42590000  0.53610000  0.04350000  1.0 0.1568890184
H  H90  1  0.53610000  0.42590000  0.45650000  1.0 0.1568890184
H  H91  1  0.57410000  0.46390000  0.95650000  1.0 0.1495417093
H  H92  1  0.46390000  0.57410000  0.54350000  1.0 0.1568890184
H  H93  1  0.37620000  0.60220000  0.02760000  1.0 0.1707216111
H  H94  1  0.60220000  0.37620000  0.47240000  1.0 0.1707216111
H  H95  1  0.62380000  0.39780000  0.97240000  1.0 0.1707216111
H  H96  1  0.39780000  0.62380000  0.52760000  1.0 0.1707216111
C  C1  1  0.07709000  0.35471000  0.89029000  1.0 0.5513513133
C  C2  1  0.35471000  0.07709000  0.60971000  1.0 0.5513513133
C  C3  1  0.92291000  0.64529000  0.10971000  1.0 0.5513513133
C  C4  1  0.64529000  0.92291000  0.39029000  1.0 0.5513513133
C  C5  1  0.09220000  0.29460000  0.86115000  1.0 -0.0191731376
C  C6  1  0.29460000  0.09220000  0.63885000  1.0 -0.0191731376
C  C7  1  0.90780000  0.70540000  0.13885000  1.0 -0.0191731376
C  C8  1  0.70540000  0.90780000  0.36115000  1.0 -0.0191731376
C  C9  1  0.08653000  0.32207000  0.81035000  1.0 -0.0795255164
C  C10  1  0.32207000  0.08653000  0.68965000  1.0 -0.0795255164
C  C11  1  0.91347000  0.67793000  0.18965000  1.0 -0.0795255164
C  C12  1  0.67793000  0.91347000  0.31035000  1.0 -0.0795255164
C  C13  1  0.11453000  0.28007000  0.78009000  1.0 -0.1595582183
C  C14  1  0.28007000  0.11453000  0.71991000  1.0 -0.1595582183
C  C15  1  0.88547000  0.71993000  0.21991000  1.0 -0.1595582183
C  C16  1  0.71993000  0.88547000  0.28009000  1.0 -0.1595582183
C  C17  1  0.15420000  0.22040000  0.80088000  1.0 0.1988693036
C  C18  1  0.22040000  0.15420000  0.69912000  1.0 0.1988693036
C  C19  1  0.84580000  0.77960000  0.19912000  1.0 0.1988693036
C  C20  1  0.77960000  0.84580000  0.30088000  1.0 0.1988693036
C  C21  1  0.16898000  0.20042000  0.85253000  1.0 -0.1547848985
C  C22  1  0.20042000  0.16898000  0.64747000  1.0 -0.1595582183
C  C23  1  0.83102000  0.79958000  0.14747000  1.0 -0.1547848985
C  C24  1  0.79958000  0.83102000  0.35253000  1.0 -0.1595582183
C  C25  1  0.14301000  0.24419000  0.88092000  1.0 -0.0725427203
C  C26  1  0.24419000  0.14301000  0.61908000  1.0 -0.0725427203
C  C27  1  0.85699000  0.75581000  0.11908000  1.0 -0.0725427203
C  C28  1  0.75581000  0.85699000  0.38092000  1.0 -0.0725427203
C  C29  1  0.92393000  0.57887000  0.92302000  1.0 0.6553024694
C  C30  1  0.57887000  0.92393000  0.57698000  1.0 0.6553024694
C  C31  1  0.07607000  0.42113000  0.07698000  1.0 0.6553024694
C  C32  1  0.42113000  0.07607000  0.42302000  1.0 0.6553024694
C  C33  1  0.88707000  0.61853000  0.87731000  1.0 -0.0421695469
C  C34  1  0.61853000  0.88707000  0.62269000  1.0 -0.0421695469
C  C35  1  0.11293000  0.38147000  0.12269000  1.0 -0.0421695469
C  C36  1  0.38147000  0.11293000  0.37731000  1.0 -0.0421695469
C  C37  1  0.83678000  0.66702000  0.87943000  1.0 -0.0795255164
C  C38  1  0.66702000  0.83678000  0.62057000  1.0 -0.0795255164
C  C39  1  0.16322000  0.33298000  0.12057000  1.0 -0.0795255164
C  C40  1  0.33298000  0.16322000  0.37943000  1.0 -0.0795255164
C  C41  1  0.80021000  0.70519000  0.83887000  1.0 -0.1355919559
C  C42  1  0.70519000  0.80021000  0.66113000  1.0 -0.1355919559
C  C43  1  0.19979000  0.29481000  0.16113000  1.0 -0.1355919559
C  C44  1  0.29481000  0.19979000  0.33887000  1.0 -0.1355919559
C  C45  1  0.81227000  0.69293000  0.79507000  1.0 0.1903856962
C  C46  1  0.69293000  0.81227000  0.70493000  1.0 0.1903856962
C  C47  1  0.18773000  0.30707000  0.20493000  1.0 0.1903856962
C  C48  1  0.30707000  0.18773000  0.29507000  1.0 0.1903856962
C  C49  1  0.85979000  0.64161000  0.78860000  1.0 -0.1595582183
C  C50  1  0.64161000  0.85979000  0.71140000  1.0 -0.1595582183
C  C51  1  0.14021000  0.35839000  0.21140000  1.0 -0.1595582183
C  C52  1  0.35839000  0.14021000  0.28860000  1.0 -0.1595582183
C  C53  1  0.90010000  0.60390000  0.83163000  1.0 -0.0725427203
C  C54  1  0.60390000  0.90010000  0.66837000  1.0 -0.0725427203
C  C55  1  0.09990000  0.39610000  0.16837000  1.0 -0.0725427203
C  C56  1  0.39610000  0.09990000  0.33163000  1.0 -0.0725427203
C  C57  1  0.87017000  0.33463000  0.98101000  1.0 0.6083650633
C  C58  1  0.33463000  0.87017000  0.51899000  1.0 0.6083650633
C  C59  1  0.12983000  0.66537000  0.01899000  1.0 0.6083650633
C  C60  1  0.66537000  0.12983000  0.48101000  1.0 0.6083650633
C  C61  1  0.77674000  0.25926000  0.98747000  1.0 -0.030650737
C  C62  1  0.25926000  0.77674000  0.51253000  1.0 -0.030650737
C  C63  1  0.22326000  0.74074000  0.01253000  1.0 -0.030650737
C  C64  1  0.74074000  0.22326000  0.48747000  1.0 -0.030650737
C  C65  1  0.75007000  0.17933000  0.96397000  1.0 -0.0725427203
C  C66  1  0.17933000  0.75007000  0.53603000  1.0 -0.0725427203
C  C67  1  0.24993000  0.82067000  0.03603000  1.0 -0.0795255164
C  C68  1  0.82067000  0.24993000  0.46397000  1.0 -0.0795255164
C  C69  1  0.66460000  0.10480000  0.97140000  1.0 -0.1355919559
C  C70  1  0.10480000  0.66460000  0.52860000  1.0 -0.1355919559
C  C71  1  0.33540000  0.89520000  0.02860000  1.0 -0.1355919559
C  C72  1  0.89520000  0.33540000  0.47140000  1.0 -0.1337930367
C  C73  1  0.60215000  0.11045000  0.00140000  1.0 0.207363487
C  C74  1  0.11045000  0.60215000  0.49860000  1.0 0.207363487
C  C75  1  0.39785000  0.88955000  0.99860000  1.0 0.207363487
C  C76  1  0.88955000  0.39785000  0.50140000  1.0 0.207363487
C  C77  1  0.62904000  0.18916000  0.02100000  1.0 -0.1595582183
C  C78  1  0.18916000  0.62904000  0.47900000  1.0 -0.1595582183
C  C79  1  0.37096000  0.81084000  0.97900000  1.0 -0.1595582183
C  C80  1  0.81084000  0.37096000  0.52100000  1.0 -0.1595582183
C  C81  1  0.71497000  0.26463000  0.01605000  1.0 -0.0725427203
C  C82  1  0.26463000  0.71497000  0.48395000  1.0 -0.0725427203
C  C83  1  0.28503000  0.73537000  0.98395000  1.0 -0.0725427203
C  C84  1  0.73537000  0.28503000  0.51605000  1.0 -0.0795255164
C  C85  1  0.30232000  0.70468000  0.86632000  1.0 -0.5364726141
C  C86  1  0.70468000  0.30232000  0.63368000  1.0 -0.5364726141
C  C87  1  0.69768000  0.29532000  0.13368000  1.0 -0.5364726141
C  C88  1  0.29532000  0.69768000  0.36632000  1.0 -0.5364726141
C  C89  1  0.13559000  0.60861000  0.80063000  1.0 -0.5113305852
C  C90  1  0.60861000  0.13559000  0.69937000  1.0 -0.5113305852
C  C91  1  0.86441000  0.39139000  0.19937000  1.0 -0.5113305852
C  C92  1  0.39139000  0.86441000  0.30063000  1.0 -0.5113305852
C  C93  1  0.35268000  0.45892000  0.95293000  1.0 -0.5593319192
C  C94  1  0.45892000  0.35268000  0.54707000  1.0 -0.5593319192
C  C95  1  0.64732000  0.54108000  0.04707000  1.0 -0.5593319192
C  C96  1  0.54108000  0.64732000  0.45293000  1.0 -0.5593319192
C  C97  1  0.36725000  0.53975000  0.04030000  1.0 -0.5593319192
C  C98  1  0.53975000  0.36725000  0.45970000  1.0 -0.5593319192
C  C99  1  0.63275000  0.46025000  0.95970000  1.0 -0.5593319192
C  C100  1  0.46025000  0.63275000  0.54030000  1.0 -0.5593319192
S  S1  1  0.20351000  0.59705000  0.85807000  1.0 0.6284586832
S  S2  1  0.59705000  0.20351000  0.64193000  1.0 0.6284586832
S  S3  1  0.79649000  0.40295000  0.14193000  1.0 0.6381790682
S  S4  1  0.40295000  0.79649000  0.35807000  1.0 0.6284586832
S  S5  1  0.28171000  0.45695000  0.99856000  1.0 0.7081022605
S  S6  1  0.45695000  0.28171000  0.50144000  1.0 0.7081022605
S  S7  1  0.71829000  0.54305000  0.00144000  1.0 0.7081022605
S  S8  1  0.54305000  0.71829000  0.49856000  1.0 0.7081022605
N  N1  1  0.19101000  0.17999000  0.77480000  1.0 -0.1790386655
N  N2  1  0.17999000  0.19101000  0.72520000  1.0 -0.1790386655
N  N3  1  0.80899000  0.82001000  0.22520000  1.0 -0.1790386655
N  N4  1  0.82001000  0.80899000  0.27480000  1.0 -0.1790386655
N  N5  1  0.77435000  0.72405000  0.75091000  1.0 -0.193695806
N  N6  1  0.72405000  0.77435000  0.74909000  1.0 -0.1968423928
N  N7  1  0.22565000  0.27595000  0.24909000  1.0 -0.193695806
N  N8  1  0.27595000  0.22565000  0.25091000  1.0 -0.1968423928
N  N9  1  0.51538000  0.04422000  0.00498000  1.0 -0.193695806
N  N10  1  0.04422000  0.51538000  0.49502000  1.0 -0.1968423928
N  N11  1  0.48462000  0.95578000  0.99502000  1.0 -0.193695806
N  N12  1  0.95578000  0.48462000  0.50498000  1.0 -0.193695806
O  O1  1  0.04213000  0.40953000  0.87399000  1.0 -0.5798701898
O  O2  1  0.40953000  0.04213000  0.62601000  1.0 -0.5798701898
O  O3  1  0.95787000  0.59047000  0.12601000  1.0 -0.5798701898
O  O4  1  0.59047000  0.95787000  0.37399000  1.0 -0.5798701898
O  O5  1  0.10354000  0.34342000  0.93686000  1.0 -0.6520283252
O  O6  1  0.34342000  0.10354000  0.56314000  1.0 -0.6520283252
O  O7  1  0.89646000  0.65658000  0.06314000  1.0 -0.6520283252
O  O8  1  0.65658000  0.89646000  0.43686000  1.0 -0.6520283252
O  O9  1  0.91496000  0.59186000  0.96502000  1.0 -0.6772243932
O  O10  1  0.59186000  0.91496000  0.53498000  1.0 -0.6772243932
O  O11  1  0.08504000  0.40814000  0.03498000  1.0 -0.6772243932
O  O12  1  0.40814000  0.08504000  0.46502000  1.0 -0.6772243932
O  O13  1  0.96401000  0.53095000  0.91393000  1.0 -0.6639284745
O  O14  1  0.53095000  0.96401000  0.58607000  1.0 -0.6653479889
O  O15  1  0.03599000  0.46905000  0.08607000  1.0 -0.6653479889
O  O16  1  0.46905000  0.03599000  0.41393000  1.0 -0.6639284745
O  O17  1  0.89603000  0.40301000  0.00286000  1.0 -0.6520283252
O  O18  1  0.40301000  0.89603000  0.49714000  1.0 -0.6520283252
O  O19  1  0.10397000  0.59699000  0.99714000  1.0 -0.6520283252
O  O20  1  0.59699000  0.10397000  0.50286000  1.0 -0.6520283252
O  O21  1  0.92066000  0.32442000  0.95381000  1.0 -0.6028543517
O  O22  1  0.32442000  0.92066000  0.54619000  1.0 -0.6028543517
O  O23  1  0.07934000  0.67558000  0.04619000  1.0 -0.6028543517
O  O24  1  0.67558000  0.07934000  0.45381000  1.0 -0.6028543517
O  O25  1  0.14970000  0.59610000  0.89744000  1.0 -0.621747087
O  O26  1  0.59610000  0.14970000  0.60256000  1.0 -0.621747087
O  O27  1  0.85030000  0.40390000  0.10256000  1.0 -0.621747087
O  O28  1  0.40390000  0.85030000  0.39744000  1.0 -0.621747087
O  O29  1  0.23202000  0.51290000  0.97361000  1.0 -0.6359379843
O  O30  1  0.51290000  0.23202000  0.52639000  1.0 -0.6359379843
O  O31  1  0.76798000  0.48710000  0.02639000  1.0 -0.6359379843
O  O32  1  0.48710000  0.76798000  0.47361000  1.0 -0.6359379843
