# DDEC6 charges by PACMAN v1.1 (https://github.com/mtap-research/PACMAN-charge/)
data_ALULAV_ASR_pacman
_symmetry_space_group_name_H-M   'P 1'
_cell_length_a   16.06360000
_cell_length_b   16.06360000
_cell_length_c   27.91500000
_cell_angle_alpha   79.89020000
_cell_angle_beta   100.11000000
_cell_angle_gamma   116.82400000
_symmetry_Int_Tables_number   1
_chemical_formula_structural   GdH12C21(NO2)3
_chemical_formula_sum   'Gd4 H48 C84 N12 O24'
_cell_volume   6290.11993189
_cell_formula_units_Z   4
loop_
 _symmetry_equiv_pos_site_id
 _symmetry_equiv_pos_as_xyz
  1  'x, y, z'
loop_
 _atom_site_type_symbol
 _atom_site_label
 _atom_site_symmetry_multiplicity
 _atom_site_fract_x
 _atom_site_fract_y
 _atom_site_fract_z
 _atom_site_occupancy
 _atom_site_charge
Gd  Gd1  1  0.06657000  0.46873000  0.95389000  1.0 2.0160615491
Gd  Gd2  1  0.46873000  0.06657000  0.54611000  1.0 2.0160615491
Gd  Gd3  1  0.93343000  0.53127000  0.04611000  1.0 2.0160615491
Gd  Gd4  1  0.53127000  0.93343000  0.45389000  1.0 2.0160615491
H  H1  1  0.06490000  0.36630000  0.79650000  1.0 0.1208735174
H  H2  1  0.36630000  0.06490000  0.70350000  1.0 0.1208735174
H  H3  1  0.93510000  0.63370000  0.20350000  1.0 0.1208735174
H  H4  1  0.63370000  0.93510000  0.29650000  1.0 0.1208735174
H  H5  1  0.10650000  0.29230000  0.74650000  1.0 0.1208735174
H  H6  1  0.29230000  0.10650000  0.75350000  1.0 0.1208735174
H  H7  1  0.89350000  0.70770000  0.25350000  1.0 0.1208735174
H  H8  1  0.70770000  0.89350000  0.24650000  1.0 0.1208735174
H  H9  1  0.19480000  0.15880000  0.86650000  1.0 0.128202241
H  H10  1  0.15880000  0.19480000  0.63350000  1.0 0.128202241
H  H11  1  0.80520000  0.84120000  0.13350000  1.0 0.128202241
H  H12  1  0.84120000  0.80520000  0.36650000  1.0 0.128202241
H  H13  1  0.15990000  0.23970000  0.91450000  1.0 0.1208735174
H  H14  1  0.23970000  0.15990000  0.58550000  1.0 0.1208735174
H  H15  1  0.84010000  0.76030000  0.08550000  1.0 0.1208735174
H  H16  1  0.76030000  0.84010000  0.41450000  1.0 0.1208735174
H  H17  1  0.17240000  0.32480000  0.08990000  1.0 0.128202241
H  H18  1  0.32480000  0.17240000  0.41010000  1.0 0.128202241
H  H19  1  0.82760000  0.67520000  0.91010000  1.0 0.128202241
H  H20  1  0.67520000  0.82760000  0.58990000  1.0 0.128202241
H  H21  1  0.23340000  0.26140000  0.15860000  1.0 0.1208735174
H  H22  1  0.26140000  0.23340000  0.34140000  1.0 0.1208735174
H  H23  1  0.76660000  0.73860000  0.84140000  1.0 0.1208735174
H  H24  1  0.73860000  0.76660000  0.65860000  1.0 0.1208735174
H  H25  1  0.13400000  0.36720000  0.24250000  1.0 0.128202241
H  H26  1  0.36720000  0.13400000  0.25750000  1.0 0.128202241
H  H27  1  0.86600000  0.63280000  0.75750000  1.0 0.128202241
H  H28  1  0.63280000  0.86600000  0.74250000  1.0 0.128202241
H  H29  1  0.06780000  0.43080000  0.17060000  1.0 0.1394822644
H  H30  1  0.43080000  0.06780000  0.32940000  1.0 0.1394822644
H  H31  1  0.93220000  0.56920000  0.82940000  1.0 0.1394822644
H  H32  1  0.56920000  0.93220000  0.67060000  1.0 0.1394822644
H  H33  1  0.21080000  0.82380000  0.05570000  1.0 0.1394822644
H  H34  1  0.82380000  0.21080000  0.44430000  1.0 0.1394822644
H  H35  1  0.78920000  0.17620000  0.94430000  1.0 0.1394822644
H  H36  1  0.17620000  0.78920000  0.55570000  1.0 0.1394822644
H  H37  1  0.35380000  0.94960000  0.04290000  1.0 0.1208735174
H  H38  1  0.94960000  0.35380000  0.45710000  1.0 0.1208735174
H  H39  1  0.64620000  0.05040000  0.95710000  1.0 0.1208735174
H  H40  1  0.05040000  0.64620000  0.54290000  1.0 0.1208735174
H  H41  1  0.41190000  0.80670000  0.96070000  1.0 0.128202241
H  H42  1  0.80670000  0.41190000  0.53930000  1.0 0.128202241
H  H43  1  0.58810000  0.19330000  0.03930000  1.0 0.128202241
H  H44  1  0.19330000  0.58810000  0.46070000  1.0 0.128202241
H  H45  1  0.26750000  0.68190000  0.96870000  1.0 0.1208735174
H  H46  1  0.68190000  0.26750000  0.53130000  1.0 0.1208735174
H  H47  1  0.73250000  0.31810000  0.03130000  1.0 0.1208735174
H  H48  1  0.31810000  0.73250000  0.46870000  1.0 0.1208735174
C  C1  1  0.07650000  0.35510000  0.89011000  1.0 0.5612958717
C  C2  1  0.35510000  0.07650000  0.60989000  1.0 0.5612958717
C  C3  1  0.92350000  0.64490000  0.10989000  1.0 0.5612958717
C  C4  1  0.64490000  0.92350000  0.39011000  1.0 0.5612958717
C  C5  1  0.09280000  0.29580000  0.86117000  1.0 -0.0398951797
C  C6  1  0.29580000  0.09280000  0.63883000  1.0 -0.0398951797
C  C7  1  0.90720000  0.70420000  0.13883000  1.0 -0.0398951797
C  C8  1  0.70420000  0.90720000  0.36117000  1.0 -0.0398951797
C  C9  1  0.08700000  0.32180000  0.81010000  1.0 -0.0717458149
C  C10  1  0.32180000  0.08700000  0.68990000  1.0 -0.0717458149
C  C11  1  0.91300000  0.67820000  0.18990000  1.0 -0.0717458149
C  C12  1  0.67820000  0.91300000  0.31010000  1.0 -0.0717458149
C  C13  1  0.11470000  0.27990000  0.78036000  1.0 -0.1515822692
C  C14  1  0.27990000  0.11470000  0.71964000  1.0 -0.1515822692
C  C15  1  0.88530000  0.72010000  0.21964000  1.0 -0.1515822692
C  C16  1  0.72010000  0.88530000  0.28036000  1.0 -0.1515822692
C  C17  1  0.15450000  0.21990000  0.80120000  1.0 0.1868215194
C  C18  1  0.21990000  0.15450000  0.69880000  1.0 0.1868215194
C  C19  1  0.84550000  0.78010000  0.19880000  1.0 0.1868215194
C  C20  1  0.78010000  0.84550000  0.30120000  1.0 0.1868215194
C  C21  1  0.16900000  0.20000000  0.85257000  1.0 -0.1515822692
C  C22  1  0.20000000  0.16900000  0.64743000  1.0 -0.1515822692
C  C23  1  0.83100000  0.80000000  0.14743000  1.0 -0.1515822692
C  C24  1  0.80000000  0.83100000  0.35257000  1.0 -0.1515822692
C  C25  1  0.14310000  0.24430000  0.88089000  1.0 -0.059652741
C  C26  1  0.24430000  0.14310000  0.61911000  1.0 -0.059652741
C  C27  1  0.85690000  0.75570000  0.11911000  1.0 -0.059652741
C  C28  1  0.75570000  0.85690000  0.38089000  1.0 -0.059652741
C  C29  1  0.07590000  0.42130000  0.07695000  1.0 0.6441848921
C  C30  1  0.42130000  0.07590000  0.42305000  1.0 0.6441848921
C  C31  1  0.92410000  0.57870000  0.92305000  1.0 0.6441848921
C  C32  1  0.57870000  0.92410000  0.57695000  1.0 0.6441848921
C  C33  1  0.11300000  0.38200000  0.12284000  1.0 -0.059652741
C  C34  1  0.38200000  0.11300000  0.37716000  1.0 -0.059652741
C  C35  1  0.88700000  0.61800000  0.87716000  1.0 -0.059652741
C  C36  1  0.61800000  0.88700000  0.62284000  1.0 -0.059652741
C  C37  1  0.16320000  0.33260000  0.12051000  1.0 -0.0717458149
C  C38  1  0.33260000  0.16320000  0.37949000  1.0 -0.0717458149
C  C39  1  0.83680000  0.66740000  0.87949000  1.0 -0.0717458149
C  C40  1  0.66740000  0.83680000  0.62051000  1.0 -0.0717458149
C  C41  1  0.20020000  0.29480000  0.16120000  1.0 -0.1362547828
C  C42  1  0.29480000  0.20020000  0.33880000  1.0 -0.1362547828
C  C43  1  0.79980000  0.70520000  0.83880000  1.0 -0.1362547828
C  C44  1  0.70520000  0.79980000  0.66120000  1.0 -0.1362547828
C  C45  1  0.18730000  0.30710000  0.20460000  1.0 0.1868215194
C  C46  1  0.30710000  0.18730000  0.29540000  1.0 0.1868215194
C  C47  1  0.81270000  0.69290000  0.79540000  1.0 0.1868215194
C  C48  1  0.69290000  0.81270000  0.70460000  1.0 0.1868215194
C  C49  1  0.13970000  0.35850000  0.21140000  1.0 -0.1569245436
C  C50  1  0.35850000  0.13970000  0.28860000  1.0 -0.1569245436
C  C51  1  0.86030000  0.64150000  0.78860000  1.0 -0.1569245436
C  C52  1  0.64150000  0.86030000  0.71140000  1.0 -0.1569245436
C  C53  1  0.10070000  0.39670000  0.16835000  1.0 -0.0717458149
C  C54  1  0.39670000  0.10070000  0.33165000  1.0 -0.0717458149
C  C55  1  0.89930000  0.60330000  0.83165000  1.0 -0.0717458149
C  C56  1  0.60330000  0.89930000  0.66835000  1.0 -0.0717458149
C  C57  1  0.12970000  0.66470000  0.01904000  1.0 0.6073569703
C  C58  1  0.66470000  0.12970000  0.48096000  1.0 0.6073569703
C  C59  1  0.87030000  0.33530000  0.98096000  1.0 0.6073569703
C  C60  1  0.33530000  0.87030000  0.51904000  1.0 0.6073569703
C  C61  1  0.22306000  0.74054000  0.01249000  1.0 -0.0515800109
C  C62  1  0.74054000  0.22306000  0.48751000  1.0 -0.0515800109
C  C63  1  0.77694000  0.25946000  0.98751000  1.0 -0.0515800109
C  C64  1  0.25946000  0.77694000  0.51249000  1.0 -0.0515800109
C  C65  1  0.24990000  0.82090000  0.03582000  1.0 -0.0717458149
C  C66  1  0.82090000  0.24990000  0.46418000  1.0 -0.0717458149
C  C67  1  0.75010000  0.17910000  0.96418000  1.0 -0.0717458149
C  C68  1  0.17910000  0.75010000  0.53582000  1.0 -0.0717458149
C  C69  1  0.33570000  0.89510000  0.02850000  1.0 -0.1336138549
C  C70  1  0.89510000  0.33570000  0.47150000  1.0 -0.1336138549
C  C71  1  0.66430000  0.10490000  0.97150000  1.0 -0.1336138549
C  C72  1  0.10490000  0.66430000  0.52850000  1.0 -0.1362547828
C  C73  1  0.39773000  0.88967000  0.99899000  1.0 0.2075667875
C  C74  1  0.88967000  0.39773000  0.50101000  1.0 0.2075667875
C  C75  1  0.60227000  0.11033000  0.00101000  1.0 0.2075667875
C  C76  1  0.11033000  0.60227000  0.49899000  1.0 0.2075667875
C  C77  1  0.37080000  0.81080000  0.97884000  1.0 -0.1515822692
C  C78  1  0.81080000  0.37080000  0.52116000  1.0 -0.1515822692
C  C79  1  0.62920000  0.18920000  0.02116000  1.0 -0.1569245436
C  C80  1  0.18920000  0.62920000  0.47884000  1.0 -0.1569245436
C  C81  1  0.28474000  0.73526000  0.98386000  1.0 -0.0717458149
C  C82  1  0.73526000  0.28474000  0.51614000  1.0 -0.0717458149
C  C83  1  0.71526000  0.26474000  0.01614000  1.0 -0.0717458149
C  C84  1  0.26474000  0.71526000  0.48386000  1.0 -0.0717458149
N  N1  1  0.19076000  0.17984000  0.77478000  1.0 -0.196256171
N  N2  1  0.17984000  0.19076000  0.72522000  1.0 -0.196256171
N  N3  1  0.80924000  0.82016000  0.22522000  1.0 -0.1935670329
N  N4  1  0.82016000  0.80924000  0.27478000  1.0 -0.1935670329
N  N5  1  0.22594000  0.27626000  0.24905000  1.0 -0.2216448439
N  N6  1  0.27626000  0.22594000  0.25095000  1.0 -0.226537182
N  N7  1  0.77406000  0.72374000  0.75095000  1.0 -0.2216448439
N  N8  1  0.72374000  0.77406000  0.74905000  1.0 -0.2216448439
N  N9  1  0.48427000  0.95573000  0.99485000  1.0 -0.226537182
N  N10  1  0.95573000  0.48427000  0.50515000  1.0 -0.2216448439
N  N11  1  0.51573000  0.04427000  0.00515000  1.0 -0.226537182
N  N12  1  0.04427000  0.51573000  0.49485000  1.0 -0.226537182
O  O1  1  0.04185000  0.40957000  0.87394000  1.0 -0.6013375027
O  O2  1  0.40957000  0.04185000  0.62606000  1.0 -0.6013375027
O  O3  1  0.95815000  0.59043000  0.12606000  1.0 -0.6013375027
O  O4  1  0.59043000  0.95815000  0.37394000  1.0 -0.6013375027
O  O5  1  0.10355000  0.34345000  0.93651000  1.0 -0.6540522529
O  O6  1  0.34345000  0.10355000  0.56349000  1.0 -0.6540522529
O  O7  1  0.89645000  0.65655000  0.06349000  1.0 -0.6540522529
O  O8  1  0.65655000  0.89645000  0.43651000  1.0 -0.6540522529
O  O9  1  0.08463000  0.40767000  0.03506000  1.0 -0.6605856719
O  O10  1  0.40767000  0.08463000  0.46494000  1.0 -0.6605856719
O  O11  1  0.91537000  0.59233000  0.96494000  1.0 -0.6605856719
O  O12  1  0.59233000  0.91537000  0.53506000  1.0 -0.6605856719
O  O13  1  0.03631000  0.46909000  0.08599000  1.0 -0.6605856719
O  O14  1  0.46909000  0.03631000  0.41401000  1.0 -0.6605856719
O  O15  1  0.96369000  0.53091000  0.91401000  1.0 -0.6605856719
O  O16  1  0.53091000  0.96369000  0.58599000  1.0 -0.6605856719
O  O17  1  0.10372000  0.59708000  0.99711000  1.0 -0.6605856719
O  O18  1  0.59708000  0.10372000  0.50289000  1.0 -0.6605856719
O  O19  1  0.89628000  0.40292000  0.00289000  1.0 -0.6605856719
O  O20  1  0.40292000  0.89628000  0.49711000  1.0 -0.6605856719
O  O21  1  0.07940000  0.67528000  0.04616000  1.0 -0.5925022019
O  O22  1  0.67528000  0.07940000  0.45384000  1.0 -0.5925022019
O  O23  1  0.92060000  0.32472000  0.95384000  1.0 -0.5925022019
O  O24  1  0.32472000  0.92060000  0.54616000  1.0 -0.5925022019
