# DDEC6 charges by PACMAN v1.1 (https://github.com/mtap-research/PACMAN-charge/)
data_AMODUC_FSR_pacman
_symmetry_space_group_name_H-M   'P 1'
_cell_length_a   16.22950000
_cell_length_b   16.22950000
_cell_length_c   28.03460000
_cell_angle_alpha   80.12190000
_cell_angle_beta   99.87810000
_cell_angle_gamma   117.06800000
_symmetry_Int_Tables_number   1
_chemical_formula_structural   TbH32C35(SO4)2
_chemical_formula_sum   'Tb4 H128 C140 S8 O32'
_cell_volume   6441.03589473
_cell_formula_units_Z   4
loop_
 _symmetry_equiv_pos_site_id
 _symmetry_equiv_pos_as_xyz
  1  'x, y, z'
loop_
 _atom_site_type_symbol
 _atom_site_label
 _atom_site_symmetry_multiplicity
 _atom_site_fract_x
 _atom_site_fract_y
 _atom_site_fract_z
 _atom_site_occupancy
 _atom_site_charge
Tb  Tb1  1  0.97098000  0.56874000  0.04444000  1.0 2.0123370344
Tb  Tb2  1  0.56874000  0.97098000  0.45556000  1.0 2.0123370344
Tb  Tb3  1  0.02902000  0.43126000  0.95556000  1.0 2.0123370344
Tb  Tb4  1  0.43126000  0.02902000  0.54444000  1.0 2.0123370344
H  H1  1  0.87600000  0.54080000  0.20570000  1.0 0.0904003175
H  H2  1  0.54080000  0.87600000  0.29430000  1.0 0.0904003175
H  H3  1  0.12400000  0.45920000  0.79430000  1.0 0.0904003175
H  H4  1  0.45920000  0.12400000  0.70570000  1.0 0.0904003175
H  H5  1  0.81400000  0.57320000  0.26370000  1.0 0.0779408131
H  H6  1  0.57320000  0.81400000  0.23630000  1.0 0.0779408131
H  H7  1  0.18600000  0.42680000  0.73630000  1.0 0.0779408131
H  H8  1  0.42680000  0.18600000  0.76370000  1.0 0.0779408131
H  H9  1  0.66840000  0.67060000  0.15680000  1.0 0.0779408131
H  H10  1  0.67060000  0.66840000  0.34320000  1.0 0.0779408131
H  H11  1  0.33160000  0.32940000  0.84320000  1.0 0.0779408131
H  H12  1  0.32940000  0.33160000  0.65680000  1.0 0.0779408131
H  H13  1  0.73940000  0.64240000  0.09980000  1.0 0.0904003175
H  H14  1  0.64240000  0.73940000  0.40020000  1.0 0.0904003175
H  H15  1  0.26060000  0.35760000  0.90020000  1.0 0.0904003175
H  H16  1  0.35760000  0.26060000  0.59980000  1.0 0.0904003175
H  H17  1  0.71700000  0.63380000  0.28650000  1.0 0.0904003175
H  H18  1  0.63380000  0.71700000  0.21350000  1.0 0.0904003175
H  H19  1  0.28300000  0.36620000  0.71350000  1.0 0.0904003175
H  H20  1  0.36620000  0.28300000  0.78650000  1.0 0.0904003175
H  H21  1  0.82490000  0.24210000  0.97350000  1.0 0.1213934215
H  H22  1  0.24210000  0.82490000  0.52650000  1.0 0.1213934215
H  H23  1  0.17510000  0.75790000  0.02650000  1.0 0.1213934215
H  H24  1  0.75790000  0.17510000  0.47350000  1.0 0.1213934215
H  H25  1  0.70520000  0.08960000  0.97130000  1.0 0.1095381954
H  H26  1  0.08960000  0.70520000  0.52870000  1.0 0.1095381954
H  H27  1  0.29480000  0.91040000  0.02870000  1.0 0.1095381954
H  H28  1  0.91040000  0.29480000  0.47130000  1.0 0.1095381954
H  H29  1  0.55330000  0.15070000  0.04430000  1.0 0.1095381954
H  H30  1  0.15070000  0.55330000  0.45570000  1.0 0.1095381954
H  H31  1  0.44670000  0.84930000  0.95570000  1.0 0.1095381954
H  H32  1  0.84930000  0.44670000  0.54430000  1.0 0.1095381954
H  H33  1  0.67130000  0.29590000  0.05220000  1.0 0.1313172334
H  H34  1  0.29590000  0.67130000  0.44780000  1.0 0.1313172334
H  H35  1  0.32870000  0.70410000  0.94780000  1.0 0.1313172334
H  H36  1  0.70410000  0.32870000  0.55220000  1.0 0.1313172334
H  H37  1  0.55820000  0.97200000  0.98730000  1.0 0.1213934215
H  H38  1  0.97200000  0.55820000  0.51270000  1.0 0.1213934215
H  H39  1  0.44180000  0.02800000  0.01270000  1.0 0.1213934215
H  H40  1  0.02800000  0.44180000  0.48730000  1.0 0.1213934215
H  H41  1  0.17660000  0.33540000  0.08550000  1.0 0.1095381954
H  H42  1  0.33540000  0.17660000  0.41450000  1.0 0.1095381954
H  H43  1  0.82340000  0.66460000  0.91450000  1.0 0.1095381954
H  H44  1  0.66460000  0.82340000  0.58550000  1.0 0.1095381954
H  H45  1  0.24830000  0.28250000  0.15560000  1.0 0.1095381954
H  H46  1  0.28250000  0.24830000  0.34440000  1.0 0.1095381954
H  H47  1  0.75170000  0.71750000  0.84440000  1.0 0.1095381954
H  H48  1  0.71750000  0.75170000  0.65560000  1.0 0.1095381954
H  H49  1  0.12980000  0.36980000  0.23970000  1.0 0.1095381954
H  H50  1  0.36980000  0.12980000  0.26030000  1.0 0.1095381954
H  H51  1  0.87020000  0.63020000  0.76030000  1.0 0.1095381954
H  H52  1  0.63020000  0.87020000  0.73970000  1.0 0.1095381954
H  H53  1  0.06030000  0.42370000  0.17000000  1.0 0.1313172334
H  H54  1  0.42370000  0.06030000  0.33000000  1.0 0.1313172334
H  H55  1  0.93970000  0.57630000  0.83000000  1.0 0.1313172334
H  H56  1  0.57630000  0.93970000  0.67000000  1.0 0.1313172334
H  H57  1  0.22460000  0.29420000  0.28010000  1.0 0.1095381954
H  H58  1  0.29420000  0.22460000  0.21990000  1.0 0.1095381954
H  H59  1  0.77540000  0.70580000  0.71990000  1.0 0.1095381954
H  H60  1  0.70580000  0.77540000  0.78010000  1.0 0.1095381954
H  H61  1  0.93270000  0.81670000  0.07050000  1.0 0.1602678005
H  H62  1  0.81670000  0.93270000  0.42950000  1.0 0.1602678005
H  H63  1  0.06730000  0.18330000  0.92950000  1.0 0.1602678005
H  H64  1  0.18330000  0.06730000  0.57050000  1.0 0.1602678005
H  H65  1  0.02890000  0.89390000  0.05180000  1.0 0.1602678005
H  H66  1  0.89390000  0.02890000  0.44820000  1.0 0.1602678005
H  H67  1  0.97110000  0.10610000  0.94820000  1.0 0.1602678005
H  H68  1  0.10610000  0.97110000  0.55180000  1.0 0.1602678005
H  H69  1  0.93270000  0.89310000  0.02600000  1.0 0.1430072913
H  H70  1  0.89310000  0.93270000  0.47400000  1.0 0.1430072913
H  H71  1  0.06730000  0.10690000  0.97400000  1.0 0.1430072913
H  H72  1  0.10690000  0.06730000  0.52600000  1.0 0.1430072913
H  H73  1  0.03940000  0.92700000  0.96760000  1.0 0.1430072913
H  H74  1  0.92700000  0.03940000  0.53240000  1.0 0.1430072913
H  H75  1  0.96060000  0.07300000  0.03240000  1.0 0.1430072913
H  H76  1  0.07300000  0.96060000  0.46760000  1.0 0.1430072913
H  H77  1  0.07980000  0.85940000  0.95680000  1.0 0.1602678005
H  H78  1  0.85940000  0.07980000  0.54320000  1.0 0.1602678005
H  H79  1  0.92020000  0.14060000  0.04320000  1.0 0.1602678005
H  H80  1  0.14060000  0.92020000  0.45680000  1.0 0.1602678005
H  H81  1  0.98700000  0.85900000  0.92580000  1.0 0.1521099388
H  H82  1  0.85900000  0.98700000  0.57420000  1.0 0.1521099388
H  H83  1  0.01300000  0.14100000  0.07420000  1.0 0.1521099388
H  H84  1  0.14100000  0.01300000  0.42580000  1.0 0.1521099388
H  H85  1  0.06050000  0.59050000  0.20280000  1.0 0.1430072913
H  H86  1  0.59050000  0.06050000  0.29720000  1.0 0.1430072913
H  H87  1  0.93950000  0.40950000  0.79720000  1.0 0.1430072913
H  H88  1  0.40950000  0.93950000  0.70280000  1.0 0.1430072913
H  H89  1  0.16780000  0.63300000  0.19420000  1.0 0.1521099388
H  H90  1  0.63300000  0.16780000  0.30580000  1.0 0.1521099388
H  H91  1  0.83220000  0.36700000  0.80580000  1.0 0.1521099388
H  H92  1  0.36700000  0.83220000  0.69420000  1.0 0.1521099388
H  H93  1  0.13310000  0.68870000  0.22130000  1.0 0.1430072913
H  H94  1  0.68870000  0.13310000  0.27870000  1.0 0.1430072913
H  H95  1  0.86690000  0.31130000  0.77870000  1.0 0.1430072913
H  H96  1  0.31130000  0.86690000  0.72130000  1.0 0.1430072913
H  H97  1  0.20210000  0.84810000  0.10930000  1.0 0.1430072913
H  H98  1  0.84810000  0.20210000  0.39070000  1.0 0.1430072913
H  H99  1  0.79790000  0.15190000  0.89070000  1.0 0.1430072913
H  H100  1  0.15190000  0.79790000  0.60930000  1.0 0.1430072913
H  H101  1  0.20330000  0.84330000  0.16690000  1.0 0.1430072913
H  H102  1  0.84330000  0.20330000  0.33310000  1.0 0.1430072913
H  H103  1  0.79670000  0.15670000  0.83310000  1.0 0.1430072913
H  H104  1  0.15670000  0.79670000  0.66690000  1.0 0.1430072913
H  H105  1  0.25250000  0.79350000  0.14570000  1.0 0.1521099388
H  H106  1  0.79350000  0.25250000  0.35430000  1.0 0.1521099388
H  H107  1  0.74750000  0.20650000  0.85430000  1.0 0.1521099388
H  H108  1  0.20650000  0.74750000  0.64570000  1.0 0.1521099388
H  H109  1  0.85980000  0.55920000  0.19770000  1.0 0.0969051758
H  H110  1  0.55920000  0.85980000  0.30230000  1.0 0.0969051758
H  H111  1  0.14020000  0.44080000  0.80230000  1.0 0.0969051758
H  H112  1  0.44080000  0.14020000  0.69770000  1.0 0.0969051758
H  H113  1  0.78420000  0.59900000  0.25140000  1.0 0.0779408131
H  H114  1  0.59900000  0.78420000  0.24860000  1.0 0.0779408131
H  H115  1  0.21580000  0.40100000  0.74860000  1.0 0.0779408131
H  H116  1  0.40100000  0.21580000  0.75140000  1.0 0.0779408131
H  H117  1  0.63940000  0.66820000  0.13380000  1.0 0.0779408131
H  H118  1  0.66820000  0.63940000  0.36620000  1.0 0.0779408131
H  H119  1  0.36060000  0.33180000  0.86620000  1.0 0.0779408131
H  H120  1  0.33180000  0.36060000  0.63380000  1.0 0.0779408131
H  H121  1  0.70410000  0.62030000  0.08210000  1.0 0.0904003175
H  H122  1  0.62030000  0.70410000  0.41790000  1.0 0.0904003175
H  H123  1  0.29590000  0.37970000  0.91790000  1.0 0.0904003175
H  H124  1  0.37970000  0.29590000  0.58210000  1.0 0.0904003175
H  H125  1  0.63140000  0.70160000  0.21100000  1.0 0.0904003175
H  H126  1  0.70160000  0.63140000  0.28900000  1.0 0.0904003175
H  H127  1  0.36860000  0.29840000  0.78900000  1.0 0.0969051758
H  H128  1  0.29840000  0.36860000  0.71100000  1.0 0.0969051758
C  C1  1  0.85930000  0.57870000  0.10790000  1.0 0.4109637791
C  C2  1  0.57870000  0.85930000  0.39210000  1.0 0.4109637791
C  C3  1  0.14070000  0.42130000  0.89210000  1.0 0.4109637791
C  C4  1  0.42130000  0.14070000  0.60790000  1.0 0.4109637791
C  C5  1  0.81600000  0.59200000  0.14630000  1.0 -0.0101571975
C  C6  1  0.59200000  0.81600000  0.35370000  1.0 -0.0101571975
C  C7  1  0.18400000  0.40800000  0.85370000  1.0 -0.0101571975
C  C8  1  0.40800000  0.18400000  0.64630000  1.0 -0.0101571975
C  C9  1  0.83520000  0.56940000  0.19570000  1.0 -0.0398223961
C  C10  1  0.56940000  0.83520000  0.30430000  1.0 -0.0398223961
C  C11  1  0.16480000  0.43060000  0.80430000  1.0 -0.0398223961
C  C12  1  0.43060000  0.16480000  0.69570000  1.0 -0.0398223961
C  C13  1  0.79720000  0.58700000  0.23020000  1.0 -0.0991316628
C  C14  1  0.58700000  0.79720000  0.26980000  1.0 -0.0991316628
C  C15  1  0.20280000  0.41300000  0.76980000  1.0 -0.0991316628
C  C16  1  0.41300000  0.20280000  0.73020000  1.0 -0.0991316628
C  C17  1  0.73380000  0.62500000  0.21670000  1.0 0.0205010501
C  C18  1  0.62500000  0.73380000  0.28330000  1.0 0.0256661491
C  C19  1  0.26620000  0.37500000  0.78330000  1.0 0.0256661491
C  C20  1  0.37500000  0.26620000  0.71670000  1.0 0.0256661491
C  C21  1  0.71190000  0.64530000  0.16740000  1.0 -0.0049342307
C  C22  1  0.64530000  0.71190000  0.33260000  1.0 -0.0101571975
C  C23  1  0.28810000  0.35470000  0.83260000  1.0 -0.0101571975
C  C24  1  0.35470000  0.28810000  0.66740000  1.0 -0.0101571975
C  C25  1  0.75460000  0.62800000  0.13350000  1.0 -0.0212986699
C  C26  1  0.62800000  0.75460000  0.36650000  1.0 -0.0212986699
C  C27  1  0.24540000  0.37200000  0.86650000  1.0 -0.0212986699
C  C28  1  0.37200000  0.24540000  0.63350000  1.0 -0.0212986699
C  C29  1  0.70140000  0.65280000  0.25360000  1.0 -0.071520949
C  C30  1  0.65280000  0.70140000  0.24640000  1.0 -0.071520949
C  C31  1  0.29860000  0.34720000  0.74640000  1.0 -0.071520949
C  C32  1  0.34720000  0.29860000  0.75360000  1.0 -0.071520949
C  C33  1  0.83624000  0.38036000  0.01760000  1.0 0.6110421919
C  C34  1  0.38036000  0.83624000  0.48240000  1.0 0.6110421919
C  C35  1  0.16376000  0.61964000  0.98240000  1.0 0.6110421919
C  C36  1  0.61964000  0.16376000  0.51760000  1.0 0.6110421919
C  C37  1  0.76100000  0.28520000  0.01430000  1.0 -0.0293838794
C  C38  1  0.28520000  0.76100000  0.48570000  1.0 -0.0293838794
C  C39  1  0.23900000  0.71480000  0.98570000  1.0 -0.0293838794
C  C40  1  0.71480000  0.23900000  0.51430000  1.0 -0.0293838794
C  C41  1  0.77030000  0.22350000  0.98880000  1.0 -0.0783946647
C  C42  1  0.22350000  0.77030000  0.51120000  1.0 -0.0783946647
C  C43  1  0.22970000  0.77650000  0.01120000  1.0 -0.0783946647
C  C44  1  0.77650000  0.22970000  0.48880000  1.0 -0.0783946647
C  C45  1  0.69740000  0.13320000  0.98640000  1.0 -0.1595190337
C  C46  1  0.13320000  0.69740000  0.51360000  1.0 -0.1595190337
C  C47  1  0.30260000  0.86680000  0.01360000  1.0 -0.1595190337
C  C48  1  0.86680000  0.30260000  0.48640000  1.0 -0.1595190337
C  C49  1  0.61670000  0.10710000  0.00490000  1.0 0.0969051758
C  C50  1  0.10710000  0.61670000  0.49510000  1.0 0.0969051758
C  C51  1  0.38330000  0.89290000  0.99510000  1.0 0.0969051758
C  C52  1  0.89290000  0.38330000  0.50490000  1.0 0.0969051758
C  C53  1  0.60890000  0.16910000  0.03000000  1.0 -0.1595190337
C  C54  1  0.16910000  0.60890000  0.47000000  1.0 -0.1595190337
C  C55  1  0.39110000  0.83090000  0.97000000  1.0 -0.1595190337
C  C56  1  0.83090000  0.39110000  0.53000000  1.0 -0.1595190337
C  C57  1  0.67880000  0.25520000  0.03460000  1.0 -0.071520949
C  C58  1  0.25520000  0.67880000  0.46540000  1.0 -0.071520949
C  C59  1  0.32120000  0.74480000  0.96540000  1.0 -0.071520949
C  C60  1  0.74480000  0.32120000  0.53460000  1.0 -0.071520949
C  C61  1  0.54120000  0.01460000  0.99740000  1.0 -0.1158195681
C  C62  1  0.01460000  0.54120000  0.50260000  1.0 -0.1158195681
C  C63  1  0.45880000  0.98540000  0.00260000  1.0 -0.1158195681
C  C64  1  0.98540000  0.45880000  0.49740000  1.0 -0.1158195681
C  C65  1  0.06881000  0.42099000  0.07705000  1.0 0.6341797763
C  C66  1  0.42099000  0.06881000  0.42295000  1.0 0.6341797763
C  C67  1  0.93119000  0.57901000  0.92295000  1.0 0.6341797763
C  C68  1  0.57901000  0.93119000  0.57705000  1.0 0.6341797763
C  C69  1  0.11048000  0.38312000  0.12180000  1.0 -0.0398223961
C  C70  1  0.38312000  0.11048000  0.37820000  1.0 -0.0398223961
C  C71  1  0.88952000  0.61688000  0.87820000  1.0 -0.0398223961
C  C72  1  0.61688000  0.88952000  0.62180000  1.0 -0.0398223961
C  C73  1  0.16700000  0.34180000  0.11690000  1.0 -0.0991316628
C  C74  1  0.34180000  0.16700000  0.38310000  1.0 -0.0991316628
C  C75  1  0.83300000  0.65820000  0.88310000  1.0 -0.0991316628
C  C76  1  0.65820000  0.83300000  0.61690000  1.0 -0.0991316628
C  C77  1  0.20900000  0.31000000  0.15850000  1.0 -0.1595190337
C  C78  1  0.31000000  0.20900000  0.34150000  1.0 -0.1595190337
C  C79  1  0.79100000  0.69000000  0.84150000  1.0 -0.1595190337
C  C80  1  0.69000000  0.79100000  0.65850000  1.0 -0.1595190337
C  C81  1  0.19370000  0.31790000  0.20460000  1.0 0.1095381954
C  C82  1  0.31790000  0.19370000  0.29540000  1.0 0.1095381954
C  C83  1  0.80630000  0.68210000  0.79540000  1.0 0.1095381954
C  C84  1  0.68210000  0.80630000  0.70460000  1.0 0.1095381954
C  C85  1  0.13880000  0.36200000  0.20850000  1.0 -0.1595190337
C  C86  1  0.36200000  0.13880000  0.29150000  1.0 -0.1595190337
C  C87  1  0.86120000  0.63800000  0.79150000  1.0 -0.1595190337
C  C88  1  0.63800000  0.86120000  0.70850000  1.0 -0.1595190337
C  C89  1  0.09760000  0.39400000  0.16713000  1.0 -0.0937997034
C  C90  1  0.39400000  0.09760000  0.33287000  1.0 -0.0937997034
C  C91  1  0.90240000  0.60600000  0.83287000  1.0 -0.0937997034
C  C92  1  0.60600000  0.90240000  0.66713000  1.0 -0.0937997034
C  C93  1  0.23370000  0.28230000  0.24980000  1.0 -0.1540352202
C  C94  1  0.28230000  0.23370000  0.25020000  1.0 -0.1540352202
C  C95  1  0.76630000  0.71770000  0.75020000  1.0 -0.1540352202
C  C96  1  0.71770000  0.76630000  0.74980000  1.0 -0.1540352202
C  C97  1  0.96340000  0.85420000  0.04180000  1.0 -0.6173610335
C  C98  1  0.85420000  0.96340000  0.45820000  1.0 -0.6173610335
C  C99  1  0.03660000  0.14580000  0.95820000  1.0 -0.6173610335
C  C100  1  0.14580000  0.03660000  0.54180000  1.0 -0.6173610335
C  C101  1  0.02290000  0.86570000  0.95800000  1.0 -0.5637555516
C  C102  1  0.86570000  0.02290000  0.54200000  1.0 -0.5637555516
C  C103  1  0.97710000  0.13430000  0.04200000  1.0 -0.5637555516
C  C104  1  0.13430000  0.97710000  0.45800000  1.0 -0.5637555516
C  C105  1  0.11640000  0.64800000  0.19560000  1.0 -0.5484378881
C  C106  1  0.64800000  0.11640000  0.30440000  1.0 -0.5484378881
C  C107  1  0.88360000  0.35200000  0.80440000  1.0 -0.5484378881
C  C108  1  0.35200000  0.88360000  0.69560000  1.0 -0.5484378881
C  C109  1  0.19980000  0.80920000  0.14030000  1.0 -0.5314839056
C  C110  1  0.80920000  0.19980000  0.35970000  1.0 -0.5314839056
C  C111  1  0.80020000  0.19080000  0.85970000  1.0 -0.5314839056
C  C112  1  0.19080000  0.80020000  0.64030000  1.0 -0.5314839056
C  C113  1  0.80090000  0.60070000  0.13500000  1.0 0.0102774419
C  C114  1  0.60070000  0.80090000  0.36500000  1.0 0.0102774419
C  C115  1  0.19910000  0.39930000  0.86500000  1.0 0.0102774419
C  C116  1  0.39930000  0.19910000  0.63500000  1.0 0.0102774419
C  C117  1  0.81740000  0.58460000  0.18440000  1.0 -0.0398223961
C  C118  1  0.58460000  0.81740000  0.31560000  1.0 -0.0398223961
C  C119  1  0.18260000  0.41540000  0.81560000  1.0 -0.0398223961
C  C120  1  0.41540000  0.18260000  0.68440000  1.0 -0.0398223961
C  C121  1  0.77020000  0.60640000  0.21710000  1.0 0.0102774419
C  C122  1  0.60640000  0.77020000  0.28290000  1.0 0.0102774419
C  C123  1  0.22980000  0.39360000  0.78290000  1.0 0.0102774419
C  C124  1  0.39360000  0.22980000  0.71710000  1.0 0.0102774419
C  C125  1  0.70590000  0.63770000  0.19670000  1.0 0.0205010501
C  C126  1  0.63770000  0.70590000  0.30330000  1.0 0.0205010501
C  C127  1  0.29410000  0.36230000  0.80330000  1.0 0.0205010501
C  C128  1  0.36230000  0.29410000  0.69670000  1.0 0.0205010501
C  C129  1  0.68420000  0.64580000  0.14710000  1.0 -0.0937997034
C  C130  1  0.64580000  0.68420000  0.35290000  1.0 -0.0991316628
C  C131  1  0.31580000  0.35420000  0.85290000  1.0 -0.0991316628
C  C132  1  0.35420000  0.31580000  0.64710000  1.0 -0.0991316628
C  C133  1  0.72570000  0.62210000  0.11570000  1.0 -0.0293838794
C  C134  1  0.62210000  0.72570000  0.38430000  1.0 -0.0293838794
C  C135  1  0.27430000  0.37790000  0.88430000  1.0 -0.0293838794
C  C136  1  0.37790000  0.27430000  0.61570000  1.0 -0.0293838794
C  C137  1  0.66690000  0.67090000  0.22830000  1.0 -0.071520949
C  C138  1  0.67090000  0.66690000  0.27170000  1.0 -0.071520949
C  C139  1  0.33310000  0.32910000  0.77170000  1.0 -0.071520949
C  C140  1  0.32910000  0.33310000  0.72830000  1.0 -0.071520949
S  S1  1  0.95637000  0.77977000  0.00033000  1.0 0.7016450667
S  S2  1  0.77977000  0.95637000  0.49967000  1.0 0.7016450667
S  S3  1  0.04363000  0.22023000  0.99967000  1.0 0.7016450667
S  S4  1  0.22023000  0.04363000  0.50033000  1.0 0.7016450667
S  S5  1  0.09403000  0.70549000  0.13898000  1.0 0.4623255709
S  S6  1  0.70549000  0.09403000  0.36102000  1.0 0.4623255709
S  S7  1  0.90597000  0.29451000  0.86102000  1.0 0.4623255709
S  S8  1  0.29451000  0.90597000  0.63898000  1.0 0.4623255709
O  O1  1  0.91293000  0.54087000  0.12359000  1.0 -0.5314839056
O  O2  1  0.54087000  0.91293000  0.37641000  1.0 -0.5314839056
O  O3  1  0.08707000  0.45913000  0.87641000  1.0 -0.5314839056
O  O4  1  0.45913000  0.08707000  0.62359000  1.0 -0.5314839056
O  O5  1  0.84911000  0.60629000  0.06369000  1.0 -0.522560606
O  O6  1  0.60629000  0.84911000  0.43631000  1.0 -0.522560606
O  O7  1  0.15089000  0.39371000  0.93631000  1.0 -0.522560606
O  O8  1  0.39371000  0.15089000  0.56369000  1.0 -0.522560606
O  O9  1  0.82655000  0.43065000  0.04242000  1.0 -0.5742064065
O  O10  1  0.43065000  0.82655000  0.45758000  1.0 -0.5742064065
O  O11  1  0.17345000  0.56935000  0.95758000  1.0 -0.5742064065
O  O12  1  0.56935000  0.17345000  0.54242000  1.0 -0.5742064065
O  O13  1  0.90701000  0.40619000  0.99606000  1.0 -0.6869243926
O  O14  1  0.40619000  0.90701000  0.50394000  1.0 -0.6869243926
O  O15  1  0.09299000  0.59381000  0.00394000  1.0 -0.6869243926
O  O16  1  0.59381000  0.09299000  0.49606000  1.0 -0.6869243926
O  O17  1  0.01926000  0.45874000  0.08384000  1.0 -0.6508349872
O  O18  1  0.45874000  0.01926000  0.41616000  1.0 -0.6508349872
O  O19  1  0.98074000  0.54126000  0.91616000  1.0 -0.6508349872
O  O20  1  0.54126000  0.98074000  0.58384000  1.0 -0.6508349872
O  O21  1  0.08431000  0.41069000  0.03662000  1.0 -0.6578347779
O  O22  1  0.41069000  0.08431000  0.46338000  1.0 -0.6578347779
O  O23  1  0.91569000  0.58931000  0.96338000  1.0 -0.6578347779
O  O24  1  0.58931000  0.91569000  0.53662000  1.0 -0.6578347779
O  O25  1  0.01869000  0.73531000  0.02670000  1.0 -0.6508349872
O  O26  1  0.73531000  0.01869000  0.47330000  1.0 -0.6508349872
O  O27  1  0.98131000  0.26469000  0.97330000  1.0 -0.6508349872
O  O28  1  0.26469000  0.98131000  0.52670000  1.0 -0.6508349872
O  O29  1  0.10117000  0.65383000  0.10110000  1.0 -0.5811066425
O  O30  1  0.65383000  0.10117000  0.39890000  1.0 -0.5811066425
O  O31  1  0.89883000  0.34617000  0.89890000  1.0 -0.5811066425
O  O32  1  0.34617000  0.89883000  0.60110000  1.0 -0.5811066425
