# DDEC6 charges by PACMAN v1.1 (https://github.com/mtap-research/PACMAN-charge/)
data_AMOYIN_ASR_pacman
_symmetry_space_group_name_H-M   'P 1'
_cell_length_a   33.83390000
_cell_length_b   33.83390000
_cell_length_c   17.49750000
_cell_angle_alpha   90.00000000
_cell_angle_beta   90.00000000
_cell_angle_gamma   120.00000000
_symmetry_Int_Tables_number   1
_chemical_formula_structural   Co6H48C44N17O40
_chemical_formula_sum   'Co36 H288 C264 N102 O240'
_cell_volume   17346.45591083
_cell_formula_units_Z   6
loop_
 _symmetry_equiv_pos_site_id
 _symmetry_equiv_pos_as_xyz
  1  'x, y, z'
loop_
 _atom_site_type_symbol
 _atom_site_label
 _atom_site_symmetry_multiplicity
 _atom_site_fract_x
 _atom_site_fract_y
 _atom_site_fract_z
 _atom_site_occupancy
 _atom_site_charge
Co  Co1  1  0.41501000  0.20750000  0.50000000  1.0 0.9977835102
Co  Co2  1  0.79249000  0.58499000  0.50000000  1.0 0.9977835102
Co  Co3  1  0.79249000  0.20750000  0.50000000  1.0 0.9977835102
Co  Co4  1  0.58499000  0.79250000  0.50000000  1.0 0.9977835102
Co  Co5  1  0.20750000  0.41501000  0.50000000  1.0 0.9977835102
Co  Co6  1  0.20751000  0.79250000  0.50000000  1.0 0.9977835102
Co  Co7  1  0.32264000  0.16132000  0.60473000  1.0 0.7337542259
Co  Co8  1  0.83868000  0.67736000  0.60473000  1.0 0.7376561605
Co  Co9  1  0.83868000  0.16132000  0.60473000  1.0 0.7376561605
Co  Co10  1  0.67736000  0.83868000  0.60473000  1.0 0.7376561605
Co  Co11  1  0.16132000  0.32264000  0.60473000  1.0 0.7376561605
Co  Co12  1  0.16132000  0.83868000  0.60473000  1.0 0.7376561605
Co  Co13  1  0.16132000  0.83868000  0.39527000  1.0 0.7376561605
Co  Co14  1  0.16132000  0.32264000  0.39527000  1.0 0.7376561605
Co  Co15  1  0.67736000  0.83868000  0.39527000  1.0 0.7376561605
Co  Co16  1  0.83868000  0.16132000  0.39527000  1.0 0.7376561605
Co  Co17  1  0.83868000  0.67736000  0.39527000  1.0 0.7376561605
Co  Co18  1  0.32264000  0.16132000  0.39527000  1.0 0.7337542259
Co  Co19  1  0.33260000  0.06013000  0.00000000  1.0 0.776340483
Co  Co20  1  0.72753000  0.66740000  0.00000000  1.0 0.776340483
Co  Co21  1  0.93987000  0.27247000  0.00000000  1.0 0.776340483
Co  Co22  1  0.66740000  0.93987000  0.00000000  1.0 0.776340483
Co  Co23  1  0.27247000  0.33260000  0.00000000  1.0 0.776340483
Co  Co24  1  0.06013000  0.72753000  0.00000000  1.0 0.776340483
Co  Co25  1  0.27247000  0.93987000  0.00000000  1.0 0.776340483
Co  Co26  1  0.06013000  0.33260000  0.00000000  1.0 0.776340483
Co  Co27  1  0.66740000  0.72753000  0.00000000  1.0 0.776340483
Co  Co28  1  0.72753000  0.06013000  0.00000000  1.0 0.776340483
Co  Co29  1  0.93987000  0.66740000  0.00000000  1.0 0.776340483
Co  Co30  1  0.33260000  0.27247000  0.00000000  1.0 0.776340483
Co  Co31  1  0.39435000  0.00000000  0.00000000  1.0 0.8143423581
Co  Co32  1  0.60565000  0.60565000  0.00000000  1.0 0.8143423581
Co  Co33  1  0.00000000  0.39435000  0.00000000  1.0 0.8143423581
Co  Co34  1  0.60565000  0.00000000  0.00000000  1.0 0.8143423581
Co  Co35  1  0.39435000  0.39435000  0.00000000  1.0 0.8143423581
Co  Co36  1  0.00000000  0.60565000  0.00000000  1.0 0.8143423581
H  H1  1  0.37205000  0.09997000  0.77003000  1.0 0.1014212365
H  H2  1  0.48390000  0.09006000  0.82034000  1.0 0.1185978585
H  H3  1  0.47894000  0.15265000  0.62497000  1.0 0.1096270174
H  H4  1  0.48579000  0.09257000  0.00747000  1.0 0.126968818
H  H5  1  0.51798000  0.09579000  0.95513000  1.0 0.0886841644
H  H6  1  0.43469000  0.98706000  0.86101000  1.0 0.0826729895
H  H7  1  0.34263000  0.13773000  0.88470000  1.0 0.1096270174
H  H8  1  0.47538000  0.02953000  0.84458000  1.0 0.1096270174
H  H9  1  0.31998000  0.10467000  0.84999000  1.0 0.1792933409
H  H10  1  0.35905000  0.14923000  0.82572000  1.0 0.1792933409
H  H11  1  0.54986000  0.17074000  0.60792000  1.0 0.2513367045
H  H12  1  0.72792000  0.62795000  0.77003000  1.0 0.1014212365
H  H13  1  0.60616000  0.51610000  0.82034000  1.0 0.1185978585
H  H14  1  0.67371000  0.52106000  0.62497000  1.0 0.1096270174
H  H15  1  0.60678000  0.51421000  0.00747000  1.0 0.126968818
H  H16  1  0.57781000  0.48202000  0.95513000  1.0 0.0886841644
H  H17  1  0.55237000  0.56531000  0.86101000  1.0 0.0826729895
H  H18  1  0.79510000  0.65737000  0.88470000  1.0 0.1096270174
H  H19  1  0.55415000  0.52462000  0.84458000  1.0 0.1096270174
H  H20  1  0.78469000  0.68002000  0.84999000  1.0 0.1792933409
H  H21  1  0.79018000  0.64095000  0.82572000  1.0 0.1792933409
H  H22  1  0.62088000  0.45014000  0.60792000  1.0 0.2513367045
H  H23  1  0.90003000  0.27208000  0.77003000  1.0 0.1014212365
H  H24  1  0.90994000  0.39384000  0.82034000  1.0 0.1185978585
H  H25  1  0.84735000  0.32629000  0.62497000  1.0 0.1096270174
H  H26  1  0.90743000  0.39322000  0.00747000  1.0 0.126968818
H  H27  1  0.90421000  0.42219000  0.95513000  1.0 0.0886841644
H  H28  1  0.01294000  0.44763000  0.86101000  1.0 0.0826729895
H  H29  1  0.86227000  0.20490000  0.88470000  1.0 0.1096270174
H  H30  1  0.97047000  0.44585000  0.84458000  1.0 0.1096270174
H  H31  1  0.89533000  0.21531000  0.84999000  1.0 0.1792933409
H  H32  1  0.85077000  0.20982000  0.82572000  1.0 0.1792933409
H  H33  1  0.82926000  0.37912000  0.60792000  1.0 0.2513367045
H  H34  1  0.62795000  0.90003000  0.77003000  1.0 0.1014212365
H  H35  1  0.51610000  0.90994000  0.82034000  1.0 0.1185978585
H  H36  1  0.52106000  0.84735000  0.62497000  1.0 0.1096270174
H  H37  1  0.51421000  0.90743000  0.00747000  1.0 0.126968818
H  H38  1  0.48202000  0.90421000  0.95513000  1.0 0.0886841644
H  H39  1  0.56531000  0.01294000  0.86101000  1.0 0.0826729895
H  H40  1  0.65737000  0.86227000  0.88470000  1.0 0.1096270174
H  H41  1  0.52462000  0.97047000  0.84458000  1.0 0.1096270174
H  H42  1  0.68002000  0.89533000  0.84999000  1.0 0.1792933409
H  H43  1  0.64095000  0.85077000  0.82572000  1.0 0.1792933409
H  H44  1  0.45014000  0.82926000  0.60792000  1.0 0.2513367045
H  H45  1  0.27208000  0.37205000  0.77003000  1.0 0.1014212365
H  H46  1  0.39384000  0.48390000  0.82034000  1.0 0.1185978585
H  H47  1  0.32629000  0.47894000  0.62497000  1.0 0.1096270174
H  H48  1  0.39322000  0.48579000  0.00747000  1.0 0.126968818
H  H49  1  0.42219000  0.51798000  0.95513000  1.0 0.0886841644
H  H50  1  0.44763000  0.43469000  0.86101000  1.0 0.0826729895
H  H51  1  0.20490000  0.34263000  0.88470000  1.0 0.1096270174
H  H52  1  0.44585000  0.47538000  0.84458000  1.0 0.1096270174
H  H53  1  0.21531000  0.31998000  0.84999000  1.0 0.1792933409
H  H54  1  0.20982000  0.35905000  0.82572000  1.0 0.1792933409
H  H55  1  0.37912000  0.54986000  0.60792000  1.0 0.2513367045
H  H56  1  0.09997000  0.72792000  0.77003000  1.0 0.1014212365
H  H57  1  0.09006000  0.60616000  0.82034000  1.0 0.1185978585
H  H58  1  0.15265000  0.67371000  0.62497000  1.0 0.1096270174
H  H59  1  0.09257000  0.60678000  0.00747000  1.0 0.126968818
H  H60  1  0.09579000  0.57781000  0.95513000  1.0 0.0886841644
H  H61  1  0.98706000  0.55237000  0.86101000  1.0 0.0826729895
H  H62  1  0.13773000  0.79510000  0.88470000  1.0 0.1096270174
H  H63  1  0.02953000  0.55415000  0.84458000  1.0 0.1096270174
H  H64  1  0.10467000  0.78469000  0.84999000  1.0 0.1792933409
H  H65  1  0.14923000  0.79018000  0.82572000  1.0 0.1792933409
H  H66  1  0.17074000  0.62088000  0.60792000  1.0 0.2513367045
H  H67  1  0.27208000  0.90003000  0.22997000  1.0 0.1014212365
H  H68  1  0.39384000  0.90994000  0.17966000  1.0 0.1185978585
H  H69  1  0.32629000  0.84735000  0.37503000  1.0 0.1096270174
H  H70  1  0.39322000  0.90743000  0.99253000  1.0 0.126968818
H  H71  1  0.42219000  0.90421000  0.04487000  1.0 0.0886841644
H  H72  1  0.44763000  0.01294000  0.13899000  1.0 0.0826729895
H  H73  1  0.20490000  0.86227000  0.11530000  1.0 0.1096270174
H  H74  1  0.44585000  0.97047000  0.15542000  1.0 0.1096270174
H  H75  1  0.21531000  0.89533000  0.15001000  1.0 0.1792933409
H  H76  1  0.20982000  0.85077000  0.17428000  1.0 0.1792933409
H  H77  1  0.37912000  0.82926000  0.39208000  1.0 0.2513367045
H  H78  1  0.09997000  0.37205000  0.22997000  1.0 0.1014212365
H  H79  1  0.09006000  0.48390000  0.17966000  1.0 0.1185978585
H  H80  1  0.15265000  0.47894000  0.37503000  1.0 0.1096270174
H  H81  1  0.09257000  0.48579000  0.99253000  1.0 0.126968818
H  H82  1  0.09579000  0.51798000  0.04487000  1.0 0.0886841644
H  H83  1  0.98706000  0.43469000  0.13899000  1.0 0.0826729895
H  H84  1  0.13773000  0.34263000  0.11530000  1.0 0.1096270174
H  H85  1  0.02953000  0.47538000  0.15542000  1.0 0.1096270174
H  H86  1  0.10467000  0.31998000  0.15001000  1.0 0.1792933409
H  H87  1  0.14923000  0.35905000  0.17428000  1.0 0.1792933409
H  H88  1  0.17074000  0.54986000  0.39208000  1.0 0.2513367045
H  H89  1  0.62795000  0.72792000  0.22997000  1.0 0.1014212365
H  H90  1  0.51610000  0.60616000  0.17966000  1.0 0.1185978585
H  H91  1  0.52106000  0.67371000  0.37503000  1.0 0.1096270174
H  H92  1  0.51421000  0.60678000  0.99253000  1.0 0.126968818
H  H93  1  0.48202000  0.57781000  0.04487000  1.0 0.0886841644
H  H94  1  0.56531000  0.55237000  0.13899000  1.0 0.0826729895
H  H95  1  0.65737000  0.79510000  0.11530000  1.0 0.1096270174
H  H96  1  0.52462000  0.55415000  0.15542000  1.0 0.1096270174
H  H97  1  0.68002000  0.78469000  0.15001000  1.0 0.1792933409
H  H98  1  0.64095000  0.79018000  0.17428000  1.0 0.1792933409
H  H99  1  0.45014000  0.62088000  0.39208000  1.0 0.2513367045
H  H100  1  0.72792000  0.09997000  0.22997000  1.0 0.1014212365
H  H101  1  0.60616000  0.09006000  0.17966000  1.0 0.1185978585
H  H102  1  0.67371000  0.15265000  0.37503000  1.0 0.1096270174
H  H103  1  0.60678000  0.09257000  0.99253000  1.0 0.126968818
H  H104  1  0.57781000  0.09579000  0.04487000  1.0 0.0886841644
H  H105  1  0.55237000  0.98706000  0.13899000  1.0 0.0826729895
H  H106  1  0.79510000  0.13773000  0.11530000  1.0 0.1096270174
H  H107  1  0.55415000  0.02953000  0.15542000  1.0 0.1096270174
H  H108  1  0.78469000  0.10467000  0.15001000  1.0 0.1792933409
H  H109  1  0.79018000  0.14923000  0.17428000  1.0 0.1792933409
H  H110  1  0.62088000  0.17074000  0.39208000  1.0 0.2513367045
H  H111  1  0.90003000  0.62795000  0.22997000  1.0 0.1014212365
H  H112  1  0.90994000  0.51610000  0.17966000  1.0 0.1185978585
H  H113  1  0.84735000  0.52106000  0.37503000  1.0 0.1096270174
H  H114  1  0.90743000  0.51421000  0.99253000  1.0 0.126968818
H  H115  1  0.90421000  0.48202000  0.04487000  1.0 0.0886841644
H  H116  1  0.01294000  0.56531000  0.13899000  1.0 0.0826729895
H  H117  1  0.86227000  0.65737000  0.11530000  1.0 0.1096270174
H  H118  1  0.97047000  0.52462000  0.15542000  1.0 0.1096270174
H  H119  1  0.89533000  0.68002000  0.15001000  1.0 0.1792933409
H  H120  1  0.85077000  0.64095000  0.17428000  1.0 0.1792933409
H  H121  1  0.82926000  0.45014000  0.39208000  1.0 0.2513367045
H  H122  1  0.37205000  0.27208000  0.22997000  1.0 0.1014212365
H  H123  1  0.48390000  0.39384000  0.17966000  1.0 0.1185978585
H  H124  1  0.47894000  0.32629000  0.37503000  1.0 0.1096270174
H  H125  1  0.48579000  0.39322000  0.99253000  1.0 0.126968818
H  H126  1  0.51798000  0.42219000  0.04487000  1.0 0.0886841644
H  H127  1  0.43469000  0.44763000  0.13899000  1.0 0.0826729895
H  H128  1  0.34263000  0.20490000  0.11530000  1.0 0.1096270174
H  H129  1  0.47538000  0.44585000  0.15542000  1.0 0.1096270174
H  H130  1  0.31998000  0.21531000  0.15001000  1.0 0.1792933409
H  H131  1  0.35905000  0.20982000  0.17428000  1.0 0.1792933409
H  H132  1  0.54986000  0.37912000  0.39208000  1.0 0.2513367045
H  H133  1  0.62795000  0.90003000  0.22997000  1.0 0.1014212365
H  H134  1  0.51610000  0.90994000  0.17966000  1.0 0.1185978585
H  H135  1  0.52106000  0.84735000  0.37503000  1.0 0.1096270174
H  H136  1  0.51421000  0.90743000  0.99253000  1.0 0.126968818
H  H137  1  0.48202000  0.90421000  0.04487000  1.0 0.0886841644
H  H138  1  0.56531000  0.01294000  0.13899000  1.0 0.0826729895
H  H139  1  0.65737000  0.86227000  0.11530000  1.0 0.1096270174
H  H140  1  0.52462000  0.97047000  0.15542000  1.0 0.1096270174
H  H141  1  0.68002000  0.89533000  0.15001000  1.0 0.1792933409
H  H142  1  0.64095000  0.85077000  0.17428000  1.0 0.1792933409
H  H143  1  0.45014000  0.82926000  0.39208000  1.0 0.2513367045
H  H144  1  0.27208000  0.37205000  0.22997000  1.0 0.1014212365
H  H145  1  0.39384000  0.48390000  0.17966000  1.0 0.1185978585
H  H146  1  0.32629000  0.47894000  0.37503000  1.0 0.1096270174
H  H147  1  0.39322000  0.48579000  0.99253000  1.0 0.126968818
H  H148  1  0.42219000  0.51798000  0.04487000  1.0 0.0886841644
H  H149  1  0.44763000  0.43469000  0.13899000  1.0 0.0826729895
H  H150  1  0.20490000  0.34263000  0.11530000  1.0 0.1096270174
H  H151  1  0.44585000  0.47538000  0.15542000  1.0 0.1096270174
H  H152  1  0.21531000  0.31998000  0.15001000  1.0 0.1792933409
H  H153  1  0.20982000  0.35905000  0.17428000  1.0 0.1792933409
H  H154  1  0.37912000  0.54986000  0.39208000  1.0 0.2513367045
H  H155  1  0.09997000  0.72792000  0.22997000  1.0 0.1014212365
H  H156  1  0.09006000  0.60616000  0.17966000  1.0 0.1185978585
H  H157  1  0.15265000  0.67371000  0.37503000  1.0 0.1096270174
H  H158  1  0.09257000  0.60678000  0.99253000  1.0 0.126968818
H  H159  1  0.09579000  0.57781000  0.04487000  1.0 0.0886841644
H  H160  1  0.98706000  0.55237000  0.13899000  1.0 0.0826729895
H  H161  1  0.13773000  0.79510000  0.11530000  1.0 0.1096270174
H  H162  1  0.02953000  0.55415000  0.15542000  1.0 0.1096270174
H  H163  1  0.10467000  0.78469000  0.15001000  1.0 0.1792933409
H  H164  1  0.14923000  0.79018000  0.17428000  1.0 0.1792933409
H  H165  1  0.17074000  0.62088000  0.39208000  1.0 0.2513367045
H  H166  1  0.37205000  0.09997000  0.22997000  1.0 0.1014212365
H  H167  1  0.48390000  0.09006000  0.17966000  1.0 0.1185978585
H  H168  1  0.47894000  0.15265000  0.37503000  1.0 0.1096270174
H  H169  1  0.48579000  0.09257000  0.99253000  1.0 0.126968818
H  H170  1  0.51798000  0.09579000  0.04487000  1.0 0.0886841644
H  H171  1  0.43469000  0.98706000  0.13899000  1.0 0.0826729895
H  H172  1  0.34263000  0.13773000  0.11530000  1.0 0.1096270174
H  H173  1  0.47538000  0.02953000  0.15542000  1.0 0.1096270174
H  H174  1  0.31998000  0.10467000  0.15001000  1.0 0.1792933409
H  H175  1  0.35905000  0.14923000  0.17428000  1.0 0.1792933409
H  H176  1  0.54986000  0.17074000  0.39208000  1.0 0.2513367045
H  H177  1  0.72792000  0.62795000  0.22997000  1.0 0.1014212365
H  H178  1  0.60616000  0.51610000  0.17966000  1.0 0.1185978585
H  H179  1  0.67371000  0.52106000  0.37503000  1.0 0.1096270174
H  H180  1  0.60678000  0.51421000  0.99253000  1.0 0.126968818
H  H181  1  0.57781000  0.48202000  0.04487000  1.0 0.0886841644
H  H182  1  0.55237000  0.56531000  0.13899000  1.0 0.0826729895
H  H183  1  0.79510000  0.65737000  0.11530000  1.0 0.1096270174
H  H184  1  0.55415000  0.52462000  0.15542000  1.0 0.1096270174
H  H185  1  0.78469000  0.68002000  0.15001000  1.0 0.1792933409
H  H186  1  0.79018000  0.64095000  0.17428000  1.0 0.1792933409
H  H187  1  0.62088000  0.45014000  0.39208000  1.0 0.2513367045
H  H188  1  0.90003000  0.27208000  0.22997000  1.0 0.1014212365
H  H189  1  0.90994000  0.39384000  0.17966000  1.0 0.1185978585
H  H190  1  0.84735000  0.32629000  0.37503000  1.0 0.1096270174
H  H191  1  0.90743000  0.39322000  0.99253000  1.0 0.126968818
H  H192  1  0.90421000  0.42219000  0.04487000  1.0 0.0886841644
H  H193  1  0.01294000  0.44763000  0.13899000  1.0 0.0826729895
H  H194  1  0.86227000  0.20490000  0.11530000  1.0 0.1096270174
H  H195  1  0.97047000  0.44585000  0.15542000  1.0 0.1096270174
H  H196  1  0.89533000  0.21531000  0.15001000  1.0 0.1792933409
H  H197  1  0.85077000  0.20982000  0.17428000  1.0 0.1792933409
H  H198  1  0.82926000  0.37912000  0.39208000  1.0 0.2513367045
H  H199  1  0.72792000  0.09997000  0.77003000  1.0 0.1014212365
H  H200  1  0.60616000  0.09006000  0.82034000  1.0 0.1185978585
H  H201  1  0.67371000  0.15265000  0.62497000  1.0 0.1096270174
H  H202  1  0.60678000  0.09257000  0.00747000  1.0 0.126968818
H  H203  1  0.57781000  0.09579000  0.95513000  1.0 0.0886841644
H  H204  1  0.55237000  0.98706000  0.86101000  1.0 0.0826729895
H  H205  1  0.79510000  0.13773000  0.88470000  1.0 0.1096270174
H  H206  1  0.55415000  0.02953000  0.84458000  1.0 0.1096270174
H  H207  1  0.78469000  0.10467000  0.84999000  1.0 0.1792933409
H  H208  1  0.79018000  0.14923000  0.82572000  1.0 0.1792933409
H  H209  1  0.62088000  0.17074000  0.60792000  1.0 0.2513367045
H  H210  1  0.90003000  0.62795000  0.77003000  1.0 0.1014212365
H  H211  1  0.90994000  0.51610000  0.82034000  1.0 0.1185978585
H  H212  1  0.84735000  0.52106000  0.62497000  1.0 0.1096270174
H  H213  1  0.90743000  0.51421000  0.00747000  1.0 0.126968818
H  H214  1  0.90421000  0.48202000  0.95513000  1.0 0.0886841644
H  H215  1  0.01294000  0.56531000  0.86101000  1.0 0.0826729895
H  H216  1  0.86227000  0.65737000  0.88470000  1.0 0.1096270174
H  H217  1  0.97047000  0.52462000  0.84458000  1.0 0.1096270174
H  H218  1  0.89533000  0.68002000  0.84999000  1.0 0.1792933409
H  H219  1  0.85077000  0.64095000  0.82572000  1.0 0.1792933409
H  H220  1  0.82926000  0.45014000  0.60792000  1.0 0.2513367045
H  H221  1  0.37205000  0.27208000  0.77003000  1.0 0.1014212365
H  H222  1  0.48390000  0.39384000  0.82034000  1.0 0.1185978585
H  H223  1  0.47894000  0.32629000  0.62497000  1.0 0.1096270174
H  H224  1  0.48579000  0.39322000  0.00747000  1.0 0.126968818
H  H225  1  0.51798000  0.42219000  0.95513000  1.0 0.0886841644
H  H226  1  0.43469000  0.44763000  0.86101000  1.0 0.0826729895
H  H227  1  0.34263000  0.20490000  0.88470000  1.0 0.1096270174
H  H228  1  0.47538000  0.44585000  0.84458000  1.0 0.1096270174
H  H229  1  0.31998000  0.21531000  0.84999000  1.0 0.1792933409
H  H230  1  0.35905000  0.20982000  0.82572000  1.0 0.1792933409
H  H231  1  0.54986000  0.37912000  0.60792000  1.0 0.2513367045
H  H232  1  0.27208000  0.90003000  0.77003000  1.0 0.1014212365
H  H233  1  0.39384000  0.90994000  0.82034000  1.0 0.1185978585
H  H234  1  0.32629000  0.84735000  0.62497000  1.0 0.1096270174
H  H235  1  0.39322000  0.90743000  0.00747000  1.0 0.126968818
H  H236  1  0.42219000  0.90421000  0.95513000  1.0 0.0886841644
H  H237  1  0.44763000  0.01294000  0.86101000  1.0 0.0826729895
H  H238  1  0.20490000  0.86227000  0.88470000  1.0 0.1096270174
H  H239  1  0.44585000  0.97047000  0.84458000  1.0 0.1096270174
H  H240  1  0.21531000  0.89533000  0.84999000  1.0 0.1792933409
H  H241  1  0.20982000  0.85077000  0.82572000  1.0 0.1792933409
H  H242  1  0.37912000  0.82926000  0.60792000  1.0 0.2513367045
H  H243  1  0.09997000  0.37205000  0.77003000  1.0 0.1014212365
H  H244  1  0.09006000  0.48390000  0.82034000  1.0 0.1185978585
H  H245  1  0.15265000  0.47894000  0.62497000  1.0 0.1096270174
H  H246  1  0.09257000  0.48579000  0.00747000  1.0 0.126968818
H  H247  1  0.09579000  0.51798000  0.95513000  1.0 0.0886841644
H  H248  1  0.98706000  0.43469000  0.86101000  1.0 0.0826729895
H  H249  1  0.13773000  0.34263000  0.88470000  1.0 0.1096270174
H  H250  1  0.02953000  0.47538000  0.84458000  1.0 0.1096270174
H  H251  1  0.10467000  0.31998000  0.84999000  1.0 0.1792933409
H  H252  1  0.14923000  0.35905000  0.82572000  1.0 0.1792933409
H  H253  1  0.17074000  0.54986000  0.60792000  1.0 0.2513367045
H  H254  1  0.62795000  0.72792000  0.77003000  1.0 0.1014212365
H  H255  1  0.51610000  0.60616000  0.82034000  1.0 0.1185978585
H  H256  1  0.52106000  0.67371000  0.62497000  1.0 0.1096270174
H  H257  1  0.51421000  0.60678000  0.00747000  1.0 0.126968818
H  H258  1  0.48202000  0.57781000  0.95513000  1.0 0.0886841644
H  H259  1  0.56531000  0.55237000  0.86101000  1.0 0.0826729895
H  H260  1  0.65737000  0.79510000  0.88470000  1.0 0.1096270174
H  H261  1  0.52462000  0.55415000  0.84458000  1.0 0.1096270174
H  H262  1  0.68002000  0.78469000  0.84999000  1.0 0.1792933409
H  H263  1  0.64095000  0.79018000  0.82572000  1.0 0.1792933409
H  H264  1  0.45014000  0.62088000  0.60792000  1.0 0.2513367045
H  H265  1  0.50540000  0.06705000  0.00000000  1.0 0.0826729895
H  H266  1  0.56165000  0.49460000  0.00000000  1.0 0.0826729895
H  H267  1  0.93295000  0.43835000  0.00000000  1.0 0.0826729895
H  H268  1  0.49460000  0.93295000  0.00000000  1.0 0.0826729895
H  H269  1  0.43835000  0.50540000  0.00000000  1.0 0.0826729895
H  H270  1  0.06705000  0.56165000  0.00000000  1.0 0.0826729895
H  H271  1  0.43835000  0.93295000  0.00000000  1.0 0.0826729895
H  H272  1  0.06705000  0.50540000  0.00000000  1.0 0.0826729895
H  H273  1  0.49460000  0.56165000  0.00000000  1.0 0.0826729895
H  H274  1  0.56165000  0.06705000  0.00000000  1.0 0.0826729895
H  H275  1  0.93295000  0.49460000  0.00000000  1.0 0.0826729895
H  H276  1  0.50540000  0.43835000  0.00000000  1.0 0.0826729895
H  H277  1  0.46985000  0.00000000  0.88997000  1.0 0.0826729895
H  H278  1  0.53015000  0.53015000  0.88997000  1.0 0.0826729895
H  H279  1  0.00000000  0.46985000  0.88997000  1.0 0.0826729895
H  H280  1  0.53015000  0.00000000  0.88997000  1.0 0.0826729895
H  H281  1  0.46985000  0.46985000  0.88997000  1.0 0.0826729895
H  H282  1  0.00000000  0.53015000  0.88997000  1.0 0.0826729895
H  H283  1  0.46985000  0.00000000  0.11003000  1.0 0.0826729895
H  H284  1  0.00000000  0.46985000  0.11003000  1.0 0.0826729895
H  H285  1  0.53015000  0.53015000  0.11003000  1.0 0.0826729895
H  H286  1  0.53015000  0.00000000  0.11003000  1.0 0.0826729895
H  H287  1  0.00000000  0.53015000  0.11003000  1.0 0.0826729895
H  H288  1  0.46985000  0.46985000  0.11003000  1.0 0.0826729895
C  C1  1  0.42340000  0.12970000  0.69140000  1.0 -0.0026243771
C  C2  1  0.40200000  0.10620000  0.75790000  1.0 -0.1506901544
C  C3  1  0.42480000  0.09180000  0.80630000  1.0 -0.0122968499
C  C4  1  0.46840000  0.10010000  0.78740000  1.0 -0.1394425864
C  C5  1  0.48910000  0.12320000  0.71950000  1.0 0.0038619317
C  C6  1  0.46550000  0.13750000  0.67160000  1.0 -0.1588058386
C  C7  1  0.39890000  0.14550000  0.63770000  1.0 0.5838236817
C  C8  1  0.40220000  0.06800000  0.87980000  1.0 0.4613957737
C  C9  1  0.53480000  0.13220000  0.70080000  1.0 0.2665315441
C  C10  1  0.33950000  0.14970000  0.93210000  1.0 0.0602435547
C  C11  1  0.70630000  0.57660000  0.69140000  1.0 -0.0026243771
C  C12  1  0.70420000  0.59800000  0.75790000  1.0 -0.1506901544
C  C13  1  0.66700000  0.57520000  0.80630000  1.0 -0.0122968499
C  C14  1  0.63170000  0.53160000  0.78740000  1.0 -0.1394425864
C  C15  1  0.63410000  0.51090000  0.71950000  1.0 0.0038619317
C  C16  1  0.67200000  0.53450000  0.67160000  1.0 -0.1588058386
C  C17  1  0.74660000  0.60110000  0.63770000  1.0 0.5838236817
C  C18  1  0.66580000  0.59780000  0.87980000  1.0 0.4613957737
C  C19  1  0.59740000  0.46520000  0.70080000  1.0 0.2665315441
C  C20  1  0.81020000  0.66050000  0.93210000  1.0 0.0602435547
C  C21  1  0.87030000  0.29370000  0.69140000  1.0 -0.0026243771
C  C22  1  0.89380000  0.29580000  0.75790000  1.0 -0.1506901544
C  C23  1  0.90820000  0.33300000  0.80630000  1.0 -0.0122968499
C  C24  1  0.89990000  0.36830000  0.78740000  1.0 -0.1394425864
C  C25  1  0.87680000  0.36590000  0.71950000  1.0 0.0038619317
C  C26  1  0.86250000  0.32800000  0.67160000  1.0 -0.1588058386
C  C27  1  0.85450000  0.25340000  0.63770000  1.0 0.5838236817
C  C28  1  0.93200000  0.33420000  0.87980000  1.0 0.4613957737
C  C29  1  0.86780000  0.40260000  0.70080000  1.0 0.2665315441
C  C30  1  0.85030000  0.18980000  0.93210000  1.0 0.0602435547
C  C31  1  0.57660000  0.87030000  0.69140000  1.0 -0.0026243771
C  C32  1  0.59800000  0.89380000  0.75790000  1.0 -0.1506901544
C  C33  1  0.57520000  0.90820000  0.80630000  1.0 -0.0122968499
C  C34  1  0.53160000  0.89990000  0.78740000  1.0 -0.1394425864
C  C35  1  0.51090000  0.87680000  0.71950000  1.0 0.0038619317
C  C36  1  0.53450000  0.86250000  0.67160000  1.0 -0.1588058386
C  C37  1  0.60110000  0.85450000  0.63770000  1.0 0.5838236817
C  C38  1  0.59780000  0.93200000  0.87980000  1.0 0.4613957737
C  C39  1  0.46520000  0.86780000  0.70080000  1.0 0.2665315441
C  C40  1  0.66050000  0.85030000  0.93210000  1.0 0.0602435547
C  C41  1  0.29370000  0.42340000  0.69140000  1.0 -0.0026243771
C  C42  1  0.29580000  0.40200000  0.75790000  1.0 -0.1506901544
C  C43  1  0.33300000  0.42480000  0.80630000  1.0 -0.0122968499
C  C44  1  0.36830000  0.46840000  0.78740000  1.0 -0.1394425864
C  C45  1  0.36590000  0.48910000  0.71950000  1.0 0.0038619317
C  C46  1  0.32800000  0.46550000  0.67160000  1.0 -0.1588058386
C  C47  1  0.25340000  0.39890000  0.63770000  1.0 0.5838236817
C  C48  1  0.33420000  0.40220000  0.87980000  1.0 0.4613957737
C  C49  1  0.40260000  0.53480000  0.70080000  1.0 0.2665315441
C  C50  1  0.18980000  0.33950000  0.93210000  1.0 0.0602435547
C  C51  1  0.12970000  0.70630000  0.69140000  1.0 -0.0026243771
C  C52  1  0.10620000  0.70420000  0.75790000  1.0 -0.1506901544
C  C53  1  0.09180000  0.66700000  0.80630000  1.0 -0.0122968499
C  C54  1  0.10010000  0.63170000  0.78740000  1.0 -0.1394425864
C  C55  1  0.12320000  0.63410000  0.71950000  1.0 0.0038619317
C  C56  1  0.13750000  0.67200000  0.67160000  1.0 -0.1588058386
C  C57  1  0.14550000  0.74660000  0.63770000  1.0 0.5838236817
C  C58  1  0.06800000  0.66580000  0.87980000  1.0 0.4613957737
C  C59  1  0.13220000  0.59740000  0.70080000  1.0 0.2665315441
C  C60  1  0.14970000  0.81020000  0.93210000  1.0 0.0602435547
C  C61  1  0.29370000  0.87030000  0.30860000  1.0 -0.0026243771
C  C62  1  0.29580000  0.89380000  0.24210000  1.0 -0.1506901544
C  C63  1  0.33300000  0.90820000  0.19370000  1.0 -0.0122968499
C  C64  1  0.36830000  0.89990000  0.21260000  1.0 -0.1394425864
C  C65  1  0.36590000  0.87680000  0.28050000  1.0 0.0038619317
C  C66  1  0.32800000  0.86250000  0.32840000  1.0 -0.1588058386
C  C67  1  0.25340000  0.85450000  0.36230000  1.0 0.5838236817
C  C68  1  0.33420000  0.93200000  0.12020000  1.0 0.4613957737
C  C69  1  0.40260000  0.86780000  0.29920000  1.0 0.2665315441
C  C70  1  0.18980000  0.85030000  0.06790000  1.0 0.0602435547
C  C71  1  0.12970000  0.42340000  0.30860000  1.0 -0.0026243771
C  C72  1  0.10620000  0.40200000  0.24210000  1.0 -0.1506901544
C  C73  1  0.09180000  0.42480000  0.19370000  1.0 -0.0122968499
C  C74  1  0.10010000  0.46840000  0.21260000  1.0 -0.1394425864
C  C75  1  0.12320000  0.48910000  0.28050000  1.0 0.0038619317
C  C76  1  0.13750000  0.46550000  0.32840000  1.0 -0.1588058386
C  C77  1  0.14550000  0.39890000  0.36230000  1.0 0.5838236817
C  C78  1  0.06800000  0.40220000  0.12020000  1.0 0.4613957737
C  C79  1  0.13220000  0.53480000  0.29920000  1.0 0.2665315441
C  C80  1  0.14970000  0.33950000  0.06790000  1.0 0.0602435547
C  C81  1  0.57660000  0.70630000  0.30860000  1.0 -0.0026243771
C  C82  1  0.59800000  0.70420000  0.24210000  1.0 -0.1506901544
C  C83  1  0.57520000  0.66700000  0.19370000  1.0 -0.0122968499
C  C84  1  0.53160000  0.63170000  0.21260000  1.0 -0.1394425864
C  C85  1  0.51090000  0.63410000  0.28050000  1.0 0.0038619317
C  C86  1  0.53450000  0.67200000  0.32840000  1.0 -0.1588058386
C  C87  1  0.60110000  0.74660000  0.36230000  1.0 0.5838236817
C  C88  1  0.59780000  0.66580000  0.12020000  1.0 0.4613957737
C  C89  1  0.46520000  0.59740000  0.29920000  1.0 0.2665315441
C  C90  1  0.66050000  0.81020000  0.06790000  1.0 0.0602435547
C  C91  1  0.70630000  0.12970000  0.30860000  1.0 -0.0026243771
C  C92  1  0.70420000  0.10620000  0.24210000  1.0 -0.1506901544
C  C93  1  0.66700000  0.09180000  0.19370000  1.0 -0.0122968499
C  C94  1  0.63170000  0.10010000  0.21260000  1.0 -0.1394425864
C  C95  1  0.63410000  0.12320000  0.28050000  1.0 0.0038619317
C  C96  1  0.67200000  0.13750000  0.32840000  1.0 -0.1588058386
C  C97  1  0.74660000  0.14550000  0.36230000  1.0 0.5838236817
C  C98  1  0.66580000  0.06800000  0.12020000  1.0 0.4613957737
C  C99  1  0.59740000  0.13220000  0.29920000  1.0 0.2665315441
C  C100  1  0.81020000  0.14970000  0.06790000  1.0 0.0602435547
C  C101  1  0.87030000  0.57660000  0.30860000  1.0 -0.0026243771
C  C102  1  0.89380000  0.59800000  0.24210000  1.0 -0.1506901544
C  C103  1  0.90820000  0.57520000  0.19370000  1.0 -0.0122968499
C  C104  1  0.89990000  0.53160000  0.21260000  1.0 -0.1394425864
C  C105  1  0.87680000  0.51090000  0.28050000  1.0 0.0038619317
C  C106  1  0.86250000  0.53450000  0.32840000  1.0 -0.1588058386
C  C107  1  0.85450000  0.60110000  0.36230000  1.0 0.5838236817
C  C108  1  0.93200000  0.59780000  0.12020000  1.0 0.4613957737
C  C109  1  0.86780000  0.46520000  0.29920000  1.0 0.2665315441
C  C110  1  0.85030000  0.66050000  0.06790000  1.0 0.0602435547
C  C111  1  0.42340000  0.29370000  0.30860000  1.0 -0.0026243771
C  C112  1  0.40200000  0.29580000  0.24210000  1.0 -0.1506901544
C  C113  1  0.42480000  0.33300000  0.19370000  1.0 -0.0122968499
C  C114  1  0.46840000  0.36830000  0.21260000  1.0 -0.1394425864
C  C115  1  0.48910000  0.36590000  0.28050000  1.0 0.0038619317
C  C116  1  0.46550000  0.32800000  0.32840000  1.0 -0.1588058386
C  C117  1  0.39890000  0.25340000  0.36230000  1.0 0.5838236817
C  C118  1  0.40220000  0.33420000  0.12020000  1.0 0.4613957737
C  C119  1  0.53480000  0.40260000  0.29920000  1.0 0.2665315441
C  C120  1  0.33950000  0.18980000  0.06790000  1.0 0.0602435547
C  C121  1  0.57660000  0.87030000  0.30860000  1.0 -0.0026243771
C  C122  1  0.59800000  0.89380000  0.24210000  1.0 -0.1506901544
C  C123  1  0.57520000  0.90820000  0.19370000  1.0 -0.0122968499
C  C124  1  0.53160000  0.89990000  0.21260000  1.0 -0.1394425864
C  C125  1  0.51090000  0.87680000  0.28050000  1.0 0.0038619317
C  C126  1  0.53450000  0.86250000  0.32840000  1.0 -0.1588058386
C  C127  1  0.60110000  0.85450000  0.36230000  1.0 0.5838236817
C  C128  1  0.59780000  0.93200000  0.12020000  1.0 0.4613957737
C  C129  1  0.46520000  0.86780000  0.29920000  1.0 0.2665315441
C  C130  1  0.66050000  0.85030000  0.06790000  1.0 0.0602435547
C  C131  1  0.29370000  0.42340000  0.30860000  1.0 -0.0026243771
C  C132  1  0.29580000  0.40200000  0.24210000  1.0 -0.1506901544
C  C133  1  0.33300000  0.42480000  0.19370000  1.0 -0.0122968499
C  C134  1  0.36830000  0.46840000  0.21260000  1.0 -0.1394425864
C  C135  1  0.36590000  0.48910000  0.28050000  1.0 0.0038619317
C  C136  1  0.32800000  0.46550000  0.32840000  1.0 -0.1588058386
C  C137  1  0.25340000  0.39890000  0.36230000  1.0 0.5838236817
C  C138  1  0.33420000  0.40220000  0.12020000  1.0 0.4613957737
C  C139  1  0.40260000  0.53480000  0.29920000  1.0 0.2665315441
C  C140  1  0.18980000  0.33950000  0.06790000  1.0 0.0602435547
C  C141  1  0.12970000  0.70630000  0.30860000  1.0 -0.0026243771
C  C142  1  0.10620000  0.70420000  0.24210000  1.0 -0.1506901544
C  C143  1  0.09180000  0.66700000  0.19370000  1.0 -0.0122968499
C  C144  1  0.10010000  0.63170000  0.21260000  1.0 -0.1394425864
C  C145  1  0.12320000  0.63410000  0.28050000  1.0 0.0038619317
C  C146  1  0.13750000  0.67200000  0.32840000  1.0 -0.1588058386
C  C147  1  0.14550000  0.74660000  0.36230000  1.0 0.5838236817
C  C148  1  0.06800000  0.66580000  0.12020000  1.0 0.4613957737
C  C149  1  0.13220000  0.59740000  0.29920000  1.0 0.2665315441
C  C150  1  0.14970000  0.81020000  0.06790000  1.0 0.0602435547
C  C151  1  0.42340000  0.12970000  0.30860000  1.0 -0.0026243771
C  C152  1  0.40200000  0.10620000  0.24210000  1.0 -0.1506901544
C  C153  1  0.42480000  0.09180000  0.19370000  1.0 -0.0122968499
C  C154  1  0.46840000  0.10010000  0.21260000  1.0 -0.1394425864
C  C155  1  0.48910000  0.12320000  0.28050000  1.0 0.0038619317
C  C156  1  0.46550000  0.13750000  0.32840000  1.0 -0.1588058386
C  C157  1  0.39890000  0.14550000  0.36230000  1.0 0.5838236817
C  C158  1  0.40220000  0.06800000  0.12020000  1.0 0.4613957737
C  C159  1  0.53480000  0.13220000  0.29920000  1.0 0.2665315441
C  C160  1  0.33950000  0.14970000  0.06790000  1.0 0.0602435547
C  C161  1  0.70630000  0.57660000  0.30860000  1.0 -0.0026243771
C  C162  1  0.70420000  0.59800000  0.24210000  1.0 -0.1506901544
C  C163  1  0.66700000  0.57520000  0.19370000  1.0 -0.0122968499
C  C164  1  0.63170000  0.53160000  0.21260000  1.0 -0.1394425864
C  C165  1  0.63410000  0.51090000  0.28050000  1.0 0.0038619317
C  C166  1  0.67200000  0.53450000  0.32840000  1.0 -0.1588058386
C  C167  1  0.74660000  0.60110000  0.36230000  1.0 0.5838236817
C  C168  1  0.66580000  0.59780000  0.12020000  1.0 0.4613957737
C  C169  1  0.59740000  0.46520000  0.29920000  1.0 0.2665315441
C  C170  1  0.81020000  0.66050000  0.06790000  1.0 0.0602435547
C  C171  1  0.87030000  0.29370000  0.30860000  1.0 -0.0026243771
C  C172  1  0.89380000  0.29580000  0.24210000  1.0 -0.1506901544
C  C173  1  0.90820000  0.33300000  0.19370000  1.0 -0.0122968499
C  C174  1  0.89990000  0.36830000  0.21260000  1.0 -0.1394425864
C  C175  1  0.87680000  0.36590000  0.28050000  1.0 0.0038619317
C  C176  1  0.86250000  0.32800000  0.32840000  1.0 -0.1588058386
C  C177  1  0.85450000  0.25340000  0.36230000  1.0 0.5838236817
C  C178  1  0.93200000  0.33420000  0.12020000  1.0 0.4613957737
C  C179  1  0.86780000  0.40260000  0.29920000  1.0 0.2665315441
C  C180  1  0.85030000  0.18980000  0.06790000  1.0 0.0602435547
C  C181  1  0.70630000  0.12970000  0.69140000  1.0 -0.0026243771
C  C182  1  0.70420000  0.10620000  0.75790000  1.0 -0.1506901544
C  C183  1  0.66700000  0.09180000  0.80630000  1.0 -0.0122968499
C  C184  1  0.63170000  0.10010000  0.78740000  1.0 -0.1394425864
C  C185  1  0.63410000  0.12320000  0.71950000  1.0 0.0038619317
C  C186  1  0.67200000  0.13750000  0.67160000  1.0 -0.1588058386
C  C187  1  0.74660000  0.14550000  0.63770000  1.0 0.5838236817
C  C188  1  0.66580000  0.06800000  0.87980000  1.0 0.4613957737
C  C189  1  0.59740000  0.13220000  0.70080000  1.0 0.2665315441
C  C190  1  0.81020000  0.14970000  0.93210000  1.0 0.0602435547
C  C191  1  0.87030000  0.57660000  0.69140000  1.0 -0.0026243771
C  C192  1  0.89380000  0.59800000  0.75790000  1.0 -0.1506901544
C  C193  1  0.90820000  0.57520000  0.80630000  1.0 -0.0122968499
C  C194  1  0.89990000  0.53160000  0.78740000  1.0 -0.1394425864
C  C195  1  0.87680000  0.51090000  0.71950000  1.0 0.0038619317
C  C196  1  0.86250000  0.53450000  0.67160000  1.0 -0.1588058386
C  C197  1  0.85450000  0.60110000  0.63770000  1.0 0.5838236817
C  C198  1  0.93200000  0.59780000  0.87980000  1.0 0.4613957737
C  C199  1  0.86780000  0.46520000  0.70080000  1.0 0.2665315441
C  C200  1  0.85030000  0.66050000  0.93210000  1.0 0.0602435547
C  C201  1  0.42340000  0.29370000  0.69140000  1.0 -0.0026243771
C  C202  1  0.40200000  0.29580000  0.75790000  1.0 -0.1506901544
C  C203  1  0.42480000  0.33300000  0.80630000  1.0 -0.0122968499
C  C204  1  0.46840000  0.36830000  0.78740000  1.0 -0.1394425864
C  C205  1  0.48910000  0.36590000  0.71950000  1.0 0.0038619317
C  C206  1  0.46550000  0.32800000  0.67160000  1.0 -0.1588058386
C  C207  1  0.39890000  0.25340000  0.63770000  1.0 0.5838236817
C  C208  1  0.40220000  0.33420000  0.87980000  1.0 0.4613957737
C  C209  1  0.53480000  0.40260000  0.70080000  1.0 0.2665315441
C  C210  1  0.33950000  0.18980000  0.93210000  1.0 0.0602435547
C  C211  1  0.29370000  0.87030000  0.69140000  1.0 -0.0026243771
C  C212  1  0.29580000  0.89380000  0.75790000  1.0 -0.1506901544
C  C213  1  0.33300000  0.90820000  0.80630000  1.0 -0.0122968499
C  C214  1  0.36830000  0.89990000  0.78740000  1.0 -0.1394425864
C  C215  1  0.36590000  0.87680000  0.71950000  1.0 0.0038619317
C  C216  1  0.32800000  0.86250000  0.67160000  1.0 -0.1588058386
C  C217  1  0.25340000  0.85450000  0.63770000  1.0 0.5838236817
C  C218  1  0.33420000  0.93200000  0.87980000  1.0 0.4613957737
C  C219  1  0.40260000  0.86780000  0.70080000  1.0 0.2665315441
C  C220  1  0.18980000  0.85030000  0.93210000  1.0 0.0602435547
C  C221  1  0.12970000  0.42340000  0.69140000  1.0 -0.0026243771
C  C222  1  0.10620000  0.40200000  0.75790000  1.0 -0.1506901544
C  C223  1  0.09180000  0.42480000  0.80630000  1.0 -0.0122968499
C  C224  1  0.10010000  0.46840000  0.78740000  1.0 -0.1394425864
C  C225  1  0.12320000  0.48910000  0.71950000  1.0 0.0038619317
C  C226  1  0.13750000  0.46550000  0.67160000  1.0 -0.1588058386
C  C227  1  0.14550000  0.39890000  0.63770000  1.0 0.5838236817
C  C228  1  0.06800000  0.40220000  0.87980000  1.0 0.4613957737
C  C229  1  0.13220000  0.53480000  0.70080000  1.0 0.2665315441
C  C230  1  0.14970000  0.33950000  0.93210000  1.0 0.0602435547
C  C231  1  0.57660000  0.70630000  0.69140000  1.0 -0.0026243771
C  C232  1  0.59800000  0.70420000  0.75790000  1.0 -0.1506901544
C  C233  1  0.57520000  0.66700000  0.80630000  1.0 -0.0122968499
C  C234  1  0.53160000  0.63170000  0.78740000  1.0 -0.1394425864
C  C235  1  0.51090000  0.63410000  0.71950000  1.0 0.0038619317
C  C236  1  0.53450000  0.67200000  0.67160000  1.0 -0.1588058386
C  C237  1  0.60110000  0.74660000  0.63770000  1.0 0.5838236817
C  C238  1  0.59780000  0.66580000  0.87980000  1.0 0.4613957737
C  C239  1  0.46520000  0.59740000  0.70080000  1.0 0.2665315441
C  C240  1  0.66050000  0.81020000  0.93210000  1.0 0.0602435547
C  C241  1  0.49820000  0.03840000  0.00000000  1.0 0.049181112
C  C242  1  0.54020000  0.50180000  0.00000000  1.0 0.049181112
C  C243  1  0.96160000  0.45980000  0.00000000  1.0 0.049181112
C  C244  1  0.50180000  0.96160000  0.00000000  1.0 0.049181112
C  C245  1  0.45980000  0.49820000  0.00000000  1.0 0.049181112
C  C246  1  0.03840000  0.54020000  0.00000000  1.0 0.049181112
C  C247  1  0.45980000  0.96160000  0.00000000  1.0 0.049181112
C  C248  1  0.03840000  0.49820000  0.00000000  1.0 0.049181112
C  C249  1  0.50180000  0.54020000  0.00000000  1.0 0.049181112
C  C250  1  0.54020000  0.03840000  0.00000000  1.0 0.049181112
C  C251  1  0.96160000  0.50180000  0.00000000  1.0 0.049181112
C  C252  1  0.49820000  0.45980000  0.00000000  1.0 0.049181112
C  C253  1  0.48000000  0.00000000  0.93390000  1.0 0.03156465
C  C254  1  0.52000000  0.52000000  0.93390000  1.0 0.03156465
C  C255  1  0.00000000  0.48000000  0.93390000  1.0 0.03156465
C  C256  1  0.52000000  0.00000000  0.93390000  1.0 0.03156465
C  C257  1  0.48000000  0.48000000  0.93390000  1.0 0.03156465
C  C258  1  0.00000000  0.52000000  0.93390000  1.0 0.03156465
C  C259  1  0.48000000  0.00000000  0.06610000  1.0 0.03156465
C  C260  1  0.00000000  0.48000000  0.06610000  1.0 0.03156465
C  C261  1  0.52000000  0.52000000  0.06610000  1.0 0.03156465
C  C262  1  0.52000000  0.00000000  0.06610000  1.0 0.03156465
C  C263  1  0.00000000  0.52000000  0.06610000  1.0 0.03156465
C  C264  1  0.48000000  0.48000000  0.06610000  1.0 0.03156465
N  N1  1  0.55840000  0.15730000  0.64020000  1.0 -0.2407585651
N  N2  1  0.33240000  0.13550000  0.85240000  1.0 -0.364952854
N  N3  1  0.59890000  0.44160000  0.64020000  1.0 -0.2407585651
N  N4  1  0.80310000  0.66760000  0.85240000  1.0 -0.3676933184
N  N5  1  0.84270000  0.40110000  0.64020000  1.0 -0.2459319747
N  N6  1  0.86450000  0.19690000  0.85240000  1.0 -0.3676933184
N  N7  1  0.44160000  0.84270000  0.64020000  1.0 -0.2407585651
N  N8  1  0.66760000  0.86450000  0.85240000  1.0 -0.3676933184
N  N9  1  0.40110000  0.55840000  0.64020000  1.0 -0.2407585651
N  N10  1  0.19690000  0.33240000  0.85240000  1.0 -0.3676933184
N  N11  1  0.15730000  0.59890000  0.64020000  1.0 -0.2407585651
N  N12  1  0.13550000  0.80310000  0.85240000  1.0 -0.3676933184
N  N13  1  0.40110000  0.84270000  0.35980000  1.0 -0.2407585651
N  N14  1  0.19690000  0.86450000  0.14760000  1.0 -0.3676933184
N  N15  1  0.15730000  0.55840000  0.35980000  1.0 -0.2407585651
N  N16  1  0.13550000  0.33240000  0.14760000  1.0 -0.3676933184
N  N17  1  0.44160000  0.59890000  0.35980000  1.0 -0.2407585651
N  N18  1  0.66760000  0.80310000  0.14760000  1.0 -0.3676933184
N  N19  1  0.59890000  0.15730000  0.35980000  1.0 -0.2407585651
N  N20  1  0.80310000  0.13550000  0.14760000  1.0 -0.3676933184
N  N21  1  0.84270000  0.44160000  0.35980000  1.0 -0.2407585651
N  N22  1  0.86450000  0.66760000  0.14760000  1.0 -0.3676933184
N  N23  1  0.55840000  0.40110000  0.35980000  1.0 -0.2407585651
N  N24  1  0.33240000  0.19690000  0.14760000  1.0 -0.3676933184
N  N25  1  0.44160000  0.84270000  0.35980000  1.0 -0.2407585651
N  N26  1  0.66760000  0.86450000  0.14760000  1.0 -0.3676933184
N  N27  1  0.40110000  0.55840000  0.35980000  1.0 -0.2407585651
N  N28  1  0.19690000  0.33240000  0.14760000  1.0 -0.3676933184
N  N29  1  0.15730000  0.59890000  0.35980000  1.0 -0.2407585651
N  N30  1  0.13550000  0.80310000  0.14760000  1.0 -0.3676933184
N  N31  1  0.55840000  0.15730000  0.35980000  1.0 -0.2407585651
N  N32  1  0.33240000  0.13550000  0.14760000  1.0 -0.364952854
N  N33  1  0.59890000  0.44160000  0.35980000  1.0 -0.2407585651
N  N34  1  0.80310000  0.66760000  0.14760000  1.0 -0.3676933184
N  N35  1  0.84270000  0.40110000  0.35980000  1.0 -0.2459319747
N  N36  1  0.86450000  0.19690000  0.14760000  1.0 -0.3676933184
N  N37  1  0.59890000  0.15730000  0.64020000  1.0 -0.2407585651
N  N38  1  0.80310000  0.13550000  0.85240000  1.0 -0.3676933184
N  N39  1  0.84270000  0.44160000  0.64020000  1.0 -0.2407585651
N  N40  1  0.86450000  0.66760000  0.85240000  1.0 -0.3676933184
N  N41  1  0.55840000  0.40110000  0.64020000  1.0 -0.2407585651
N  N42  1  0.33240000  0.19690000  0.85240000  1.0 -0.3676933184
N  N43  1  0.40110000  0.84270000  0.64020000  1.0 -0.2407585651
N  N44  1  0.19690000  0.86450000  0.85240000  1.0 -0.3676933184
N  N45  1  0.15730000  0.55840000  0.64020000  1.0 -0.2407585651
N  N46  1  0.13550000  0.33240000  0.85240000  1.0 -0.3676933184
N  N47  1  0.44160000  0.59890000  0.64020000  1.0 -0.2407585651
N  N48  1  0.66760000  0.80310000  0.85240000  1.0 -0.3676933184
N  N49  1  0.33580000  0.12710000  0.00000000  1.0 -0.1588058386
N  N50  1  0.50710000  0.08340000  0.00000000  1.0 -0.4096808396
N  N51  1  0.79130000  0.66420000  0.00000000  1.0 -0.1588058386
N  N52  1  0.57630000  0.49290000  0.00000000  1.0 -0.4096808396
N  N53  1  0.87290000  0.20870000  0.00000000  1.0 -0.1588058386
N  N54  1  0.91660000  0.42370000  0.00000000  1.0 -0.4096808396
N  N55  1  0.66420000  0.87290000  0.00000000  1.0 -0.1588058386
N  N56  1  0.49290000  0.91660000  0.00000000  1.0 -0.4096808396
N  N57  1  0.20870000  0.33580000  0.00000000  1.0 -0.1588058386
N  N58  1  0.42370000  0.50710000  0.00000000  1.0 -0.4096808396
N  N59  1  0.12710000  0.79130000  0.00000000  1.0 -0.1588058386
N  N60  1  0.08340000  0.57630000  0.00000000  1.0 -0.4096808396
N  N61  1  0.20870000  0.87290000  0.00000000  1.0 -0.1588058386
N  N62  1  0.42370000  0.91660000  0.00000000  1.0 -0.4096808396
N  N63  1  0.12710000  0.33580000  0.00000000  1.0 -0.1588058386
N  N64  1  0.08340000  0.50710000  0.00000000  1.0 -0.4096808396
N  N65  1  0.66420000  0.79130000  0.00000000  1.0 -0.1588058386
N  N66  1  0.49290000  0.57630000  0.00000000  1.0 -0.4096808396
N  N67  1  0.79130000  0.12710000  0.00000000  1.0 -0.1506901544
N  N68  1  0.57630000  0.08340000  0.00000000  1.0 -0.4096808396
N  N69  1  0.87290000  0.66420000  0.00000000  1.0 -0.1588058386
N  N70  1  0.91660000  0.49290000  0.00000000  1.0 -0.4096808396
N  N71  1  0.33580000  0.20870000  0.00000000  1.0 -0.1588058386
N  N72  1  0.50710000  0.42370000  0.00000000  1.0 -0.4096808396
N  N73  1  0.45860000  0.00000000  0.00000000  1.0 -0.2278288619
N  N74  1  0.54140000  0.54140000  0.00000000  1.0 -0.2278288619
N  N75  1  0.00000000  0.45860000  0.00000000  1.0 -0.2278288619
N  N76  1  0.54140000  0.00000000  0.00000000  1.0 -0.2278288619
N  N77  1  0.45860000  0.45860000  0.00000000  1.0 -0.2278288619
N  N78  1  0.00000000  0.54140000  0.00000000  1.0 -0.2278288619
N  N79  1  0.55840000  0.11680000  0.74200000  1.0 -0.4515598333
N  N80  1  0.55840000  0.44160000  0.74200000  1.0 -0.4515598333
N  N81  1  0.88320000  0.44160000  0.74200000  1.0 -0.4515598333
N  N82  1  0.44160000  0.88320000  0.74200000  1.0 -0.4515598333
N  N83  1  0.44160000  0.55840000  0.74200000  1.0 -0.4515598333
N  N84  1  0.11680000  0.55840000  0.74200000  1.0 -0.4515598333
N  N85  1  0.44160000  0.88320000  0.25800000  1.0 -0.4515598333
N  N86  1  0.11680000  0.55840000  0.25800000  1.0 -0.4515598333
N  N87  1  0.44160000  0.55840000  0.25800000  1.0 -0.4515598333
N  N88  1  0.55840000  0.11680000  0.25800000  1.0 -0.4515598333
N  N89  1  0.88320000  0.44160000  0.25800000  1.0 -0.4515598333
N  N90  1  0.55840000  0.44160000  0.25800000  1.0 -0.4515598333
N  N91  1  0.46470000  0.00000000  0.86000000  1.0 -0.4151113086
N  N92  1  0.53530000  0.53530000  0.86000000  1.0 -0.4151113086
N  N93  1  0.00000000  0.46470000  0.86000000  1.0 -0.4151113086
N  N94  1  0.53530000  0.00000000  0.86000000  1.0 -0.4151113086
N  N95  1  0.46470000  0.46470000  0.86000000  1.0 -0.4096808396
N  N96  1  0.00000000  0.53530000  0.86000000  1.0 -0.4151113086
N  N97  1  0.46470000  0.00000000  0.14000000  1.0 -0.4151113086
N  N98  1  0.00000000  0.46470000  0.14000000  1.0 -0.4151113086
N  N99  1  0.53530000  0.53530000  0.14000000  1.0 -0.4151113086
N  N100  1  0.53530000  0.00000000  0.14000000  1.0 -0.4151113086
N  N101  1  0.00000000  0.53530000  0.14000000  1.0 -0.4151113086
N  N102  1  0.46470000  0.46470000  0.14000000  1.0 -0.4151113086
O  O1  1  0.41990000  0.16720000  0.58180000  1.0 -0.541115514
O  O2  1  0.35920000  0.13600000  0.65580000  1.0 -0.5552474773
O  O3  1  0.42029000  0.04928000  0.91550000  1.0 -0.5318642606
O  O4  1  0.37240000  0.07780000  0.90700000  1.0 -0.2088134248
O  O5  1  0.27210000  0.18390000  0.57870000  1.0 -0.1588058386
O  O6  1  0.35620000  0.04810000  0.87570000  1.0 -0.2088134248
O  O7  1  0.31190000  0.10960000  0.53440000  1.0 0.1014212365
O  O8  1  0.26030000  0.11420000  0.65170000  1.0 0.1645346558
O  O9  1  0.74730000  0.58010000  0.58180000  1.0 -0.541115514
O  O10  1  0.77680000  0.64080000  0.65580000  1.0 -0.5535498642
O  O11  1  0.62899000  0.57971000  0.91550000  1.0 -0.5318642606
O  O12  1  0.70540000  0.62760000  0.90700000  1.0 -0.2088134248
O  O13  1  0.91180000  0.72790000  0.57870000  1.0 -0.1506901544
O  O14  1  0.69190000  0.64380000  0.87570000  1.0 -0.2039427774
O  O15  1  0.79770000  0.68810000  0.53440000  1.0 0.0886841644
O  O16  1  0.85390000  0.73970000  0.65170000  1.0 0.1645346558
O  O17  1  0.83280000  0.25270000  0.58180000  1.0 -0.541115514
O  O18  1  0.86400000  0.22320000  0.65580000  1.0 -0.5535498642
O  O19  1  0.95072000  0.37101000  0.91550000  1.0 -0.5318642606
O  O20  1  0.92220000  0.29460000  0.90700000  1.0 -0.2088134248
O  O21  1  0.81610000  0.08820000  0.57870000  1.0 -0.1588058386
O  O22  1  0.95190000  0.30810000  0.87570000  1.0 -0.2088134248
O  O23  1  0.89040000  0.20230000  0.53440000  1.0 0.0886841644
O  O24  1  0.88580000  0.14610000  0.65170000  1.0 0.1792933409
O  O25  1  0.58010000  0.83280000  0.58180000  1.0 -0.541115514
O  O26  1  0.64080000  0.86400000  0.65580000  1.0 -0.5552474773
O  O27  1  0.57971000  0.95072000  0.91550000  1.0 -0.5318642606
O  O28  1  0.62760000  0.92220000  0.90700000  1.0 -0.2088134248
O  O29  1  0.72790000  0.81610000  0.57870000  1.0 -0.1506901544
O  O30  1  0.64380000  0.95190000  0.87570000  1.0 -0.2039427774
O  O31  1  0.68810000  0.89040000  0.53440000  1.0 0.1014212365
O  O32  1  0.73970000  0.88580000  0.65170000  1.0 0.1645346558
O  O33  1  0.25270000  0.41990000  0.58180000  1.0 -0.541115514
O  O34  1  0.22320000  0.35920000  0.65580000  1.0 -0.5535498642
O  O35  1  0.37101000  0.42029000  0.91550000  1.0 -0.5318642606
O  O36  1  0.29460000  0.37240000  0.90700000  1.0 -0.2088134248
O  O37  1  0.08820000  0.27210000  0.57870000  1.0 -0.1506901544
O  O38  1  0.30810000  0.35620000  0.87570000  1.0 -0.2088134248
O  O39  1  0.20230000  0.31190000  0.53440000  1.0 0.0886841644
O  O40  1  0.14610000  0.26030000  0.65170000  1.0 0.1667683556
O  O41  1  0.16720000  0.74730000  0.58180000  1.0 -0.541115514
O  O42  1  0.13600000  0.77680000  0.65580000  1.0 -0.5535498642
O  O43  1  0.04928000  0.62899000  0.91550000  1.0 -0.5318642606
O  O44  1  0.07780000  0.70540000  0.90700000  1.0 -0.2088134248
O  O45  1  0.18390000  0.91180000  0.57870000  1.0 -0.1588058386
O  O46  1  0.04810000  0.69190000  0.87570000  1.0 -0.2088134248
O  O47  1  0.10960000  0.79770000  0.53440000  1.0 0.1014212365
O  O48  1  0.11420000  0.85390000  0.65170000  1.0 0.1667683556
O  O49  1  0.25270000  0.83280000  0.41820000  1.0 -0.541115514
O  O50  1  0.22320000  0.86400000  0.34420000  1.0 -0.5535498642
O  O51  1  0.37101000  0.95072000  0.08450000  1.0 -0.5318642606
O  O52  1  0.29460000  0.92220000  0.09300000  1.0 -0.2088134248
O  O53  1  0.08820000  0.81610000  0.42130000  1.0 -0.1588058386
O  O54  1  0.30810000  0.95190000  0.12430000  1.0 -0.2039427774
O  O55  1  0.20230000  0.89040000  0.46560000  1.0 0.0886841644
O  O56  1  0.14610000  0.88580000  0.34830000  1.0 0.1667683556
O  O57  1  0.16720000  0.41990000  0.41820000  1.0 -0.541115514
O  O58  1  0.13600000  0.35920000  0.34420000  1.0 -0.5535498642
O  O59  1  0.04928000  0.42029000  0.08450000  1.0 -0.5318642606
O  O60  1  0.07780000  0.37240000  0.09300000  1.0 -0.2088134248
O  O61  1  0.18390000  0.27210000  0.42130000  1.0 -0.1506901544
O  O62  1  0.04810000  0.35620000  0.12430000  1.0 -0.2088134248
O  O63  1  0.10960000  0.31190000  0.46560000  1.0 0.1014212365
O  O64  1  0.11420000  0.26030000  0.34830000  1.0 0.1667683556
O  O65  1  0.58010000  0.74730000  0.41820000  1.0 -0.541115514
O  O66  1  0.64080000  0.77680000  0.34420000  1.0 -0.5552474773
O  O67  1  0.57971000  0.62899000  0.08450000  1.0 -0.5318642606
O  O68  1  0.62760000  0.70540000  0.09300000  1.0 -0.2088134248
O  O69  1  0.72790000  0.91180000  0.42130000  1.0 -0.1588058386
O  O70  1  0.64380000  0.69190000  0.12430000  1.0 -0.2088134248
O  O71  1  0.68810000  0.79770000  0.46560000  1.0 0.1014212365
O  O72  1  0.73970000  0.85390000  0.34830000  1.0 0.1792933409
O  O73  1  0.74730000  0.16720000  0.41820000  1.0 -0.541115514
O  O74  1  0.77680000  0.13600000  0.34420000  1.0 -0.5535498642
O  O75  1  0.62899000  0.04928000  0.08450000  1.0 -0.5318642606
O  O76  1  0.70540000  0.07780000  0.09300000  1.0 -0.2088134248
O  O77  1  0.91180000  0.18390000  0.42130000  1.0 -0.1588058386
O  O78  1  0.69190000  0.04810000  0.12430000  1.0 -0.2088134248
O  O79  1  0.79770000  0.10960000  0.46560000  1.0 0.1014212365
O  O80  1  0.85390000  0.11420000  0.34830000  1.0 0.1667683556
O  O81  1  0.83280000  0.58010000  0.41820000  1.0 -0.541115514
O  O82  1  0.86400000  0.64080000  0.34420000  1.0 -0.5535498642
O  O83  1  0.95072000  0.57971000  0.08450000  1.0 -0.5318642606
O  O84  1  0.92220000  0.62760000  0.09300000  1.0 -0.2088134248
O  O85  1  0.81610000  0.72790000  0.42130000  1.0 -0.1506901544
O  O86  1  0.95190000  0.64380000  0.12430000  1.0 -0.2088134248
O  O87  1  0.89040000  0.68810000  0.46560000  1.0 0.0886841644
O  O88  1  0.88580000  0.73970000  0.34830000  1.0 0.1792933409
O  O89  1  0.41990000  0.25270000  0.41820000  1.0 -0.541115514
O  O90  1  0.35920000  0.22320000  0.34420000  1.0 -0.5535498642
O  O91  1  0.42029000  0.37101000  0.08450000  1.0 -0.5318642606
O  O92  1  0.37240000  0.29460000  0.09300000  1.0 -0.2088134248
O  O93  1  0.27210000  0.08820000  0.42130000  1.0 -0.1588058386
O  O94  1  0.35620000  0.30810000  0.12430000  1.0 -0.2088134248
O  O95  1  0.31190000  0.20230000  0.46560000  1.0 0.1014212365
O  O96  1  0.26030000  0.14610000  0.34830000  1.0 0.1792933409
O  O97  1  0.58010000  0.83280000  0.41820000  1.0 -0.541115514
O  O98  1  0.64080000  0.86400000  0.34420000  1.0 -0.5552474773
O  O99  1  0.57971000  0.95072000  0.08450000  1.0 -0.5318642606
O  O100  1  0.62760000  0.92220000  0.09300000  1.0 -0.2088134248
O  O101  1  0.72790000  0.81610000  0.42130000  1.0 -0.1506901544
O  O102  1  0.64380000  0.95190000  0.12430000  1.0 -0.2039427774
O  O103  1  0.68810000  0.89040000  0.46560000  1.0 0.1014212365
O  O104  1  0.73970000  0.88580000  0.34830000  1.0 0.1645346558
O  O105  1  0.25270000  0.41990000  0.41820000  1.0 -0.541115514
O  O106  1  0.22320000  0.35920000  0.34420000  1.0 -0.5535498642
O  O107  1  0.37101000  0.42029000  0.08450000  1.0 -0.5318642606
O  O108  1  0.29460000  0.37240000  0.09300000  1.0 -0.2088134248
O  O109  1  0.08820000  0.27210000  0.42130000  1.0 -0.1588058386
O  O110  1  0.30810000  0.35620000  0.12430000  1.0 -0.2088134248
O  O111  1  0.20230000  0.31190000  0.46560000  1.0 0.0886841644
O  O112  1  0.14610000  0.26030000  0.34830000  1.0 0.1667683556
O  O113  1  0.16720000  0.74730000  0.41820000  1.0 -0.541115514
O  O114  1  0.13600000  0.77680000  0.34420000  1.0 -0.5535498642
O  O115  1  0.04928000  0.62899000  0.08450000  1.0 -0.5318642606
O  O116  1  0.07780000  0.70540000  0.09300000  1.0 -0.2088134248
O  O117  1  0.18390000  0.91180000  0.42130000  1.0 -0.1588058386
O  O118  1  0.04810000  0.69190000  0.12430000  1.0 -0.2088134248
O  O119  1  0.10960000  0.79770000  0.46560000  1.0 0.1014212365
O  O120  1  0.11420000  0.85390000  0.34830000  1.0 0.1667683556
O  O121  1  0.41990000  0.16720000  0.41820000  1.0 -0.541115514
O  O122  1  0.35920000  0.13600000  0.34420000  1.0 -0.5552474773
O  O123  1  0.42029000  0.04928000  0.08450000  1.0 -0.5318642606
O  O124  1  0.37240000  0.07780000  0.09300000  1.0 -0.2088134248
O  O125  1  0.27210000  0.18390000  0.42130000  1.0 -0.1588058386
O  O126  1  0.35620000  0.04810000  0.12430000  1.0 -0.2088134248
O  O127  1  0.31190000  0.10960000  0.46560000  1.0 0.1014212365
O  O128  1  0.26030000  0.11420000  0.34830000  1.0 0.1645346558
O  O129  1  0.74730000  0.58010000  0.41820000  1.0 -0.541115514
O  O130  1  0.77680000  0.64080000  0.34420000  1.0 -0.5535498642
O  O131  1  0.62899000  0.57971000  0.08450000  1.0 -0.5318642606
O  O132  1  0.70540000  0.62760000  0.09300000  1.0 -0.2088134248
O  O133  1  0.91180000  0.72790000  0.42130000  1.0 -0.1588058386
O  O134  1  0.69190000  0.64380000  0.12430000  1.0 -0.2088134248
O  O135  1  0.79770000  0.68810000  0.46560000  1.0 0.0886841644
O  O136  1  0.85390000  0.73970000  0.34830000  1.0 0.1645346558
O  O137  1  0.83280000  0.25270000  0.41820000  1.0 -0.541115514
O  O138  1  0.86400000  0.22320000  0.34420000  1.0 -0.5535498642
O  O139  1  0.95072000  0.37101000  0.08450000  1.0 -0.5318642606
O  O140  1  0.92220000  0.29460000  0.09300000  1.0 -0.2088134248
O  O141  1  0.81610000  0.08820000  0.42130000  1.0 -0.1588058386
O  O142  1  0.95190000  0.30810000  0.12430000  1.0 -0.2088134248
O  O143  1  0.89040000  0.20230000  0.46560000  1.0 0.0886841644
O  O144  1  0.88580000  0.14610000  0.34830000  1.0 0.1792933409
O  O145  1  0.74730000  0.16720000  0.58180000  1.0 -0.541115514
O  O146  1  0.77680000  0.13600000  0.65580000  1.0 -0.5535498642
O  O147  1  0.62899000  0.04928000  0.91550000  1.0 -0.5318642606
O  O148  1  0.70540000  0.07780000  0.90700000  1.0 -0.2088134248
O  O149  1  0.91180000  0.18390000  0.57870000  1.0 -0.1588058386
O  O150  1  0.69190000  0.04810000  0.87570000  1.0 -0.2088134248
O  O151  1  0.79770000  0.10960000  0.53440000  1.0 0.1014212365
O  O152  1  0.85390000  0.11420000  0.65170000  1.0 0.1645346558
O  O153  1  0.83280000  0.58010000  0.58180000  1.0 -0.541115514
O  O154  1  0.86400000  0.64080000  0.65580000  1.0 -0.5535498642
O  O155  1  0.95072000  0.57971000  0.91550000  1.0 -0.5318642606
O  O156  1  0.92220000  0.62760000  0.90700000  1.0 -0.2088134248
O  O157  1  0.81610000  0.72790000  0.57870000  1.0 -0.1506901544
O  O158  1  0.95190000  0.64380000  0.87570000  1.0 -0.2039427774
O  O159  1  0.89040000  0.68810000  0.53440000  1.0 0.0886841644
O  O160  1  0.88580000  0.73970000  0.65170000  1.0 0.1792933409
O  O161  1  0.41990000  0.25270000  0.58180000  1.0 -0.541115514
O  O162  1  0.35920000  0.22320000  0.65580000  1.0 -0.5535498642
O  O163  1  0.42029000  0.37101000  0.91550000  1.0 -0.5318642606
O  O164  1  0.37240000  0.29460000  0.90700000  1.0 -0.2088134248
O  O165  1  0.27210000  0.08820000  0.57870000  1.0 -0.1588058386
O  O166  1  0.35620000  0.30810000  0.87570000  1.0 -0.2088134248
O  O167  1  0.31190000  0.20230000  0.53440000  1.0 0.1014212365
O  O168  1  0.26030000  0.14610000  0.65170000  1.0 0.1792933409
O  O169  1  0.25270000  0.83280000  0.58180000  1.0 -0.541115514
O  O170  1  0.22320000  0.86400000  0.65580000  1.0 -0.5535498642
O  O171  1  0.37101000  0.95072000  0.91550000  1.0 -0.5318642606
O  O172  1  0.29460000  0.92220000  0.90700000  1.0 -0.2088134248
O  O173  1  0.08820000  0.81610000  0.57870000  1.0 -0.1588058386
O  O174  1  0.30810000  0.95190000  0.87570000  1.0 -0.2039427774
O  O175  1  0.20230000  0.89040000  0.53440000  1.0 0.0886841644
O  O176  1  0.14610000  0.88580000  0.65170000  1.0 0.1667683556
O  O177  1  0.16720000  0.41990000  0.58180000  1.0 -0.541115514
O  O178  1  0.13600000  0.35920000  0.65580000  1.0 -0.5535498642
O  O179  1  0.04928000  0.42029000  0.91550000  1.0 -0.5318642606
O  O180  1  0.07780000  0.37240000  0.90700000  1.0 -0.2088134248
O  O181  1  0.18390000  0.27210000  0.57870000  1.0 -0.1506901544
O  O182  1  0.04810000  0.35620000  0.87570000  1.0 -0.2088134248
O  O183  1  0.10960000  0.31190000  0.53440000  1.0 0.1014212365
O  O184  1  0.11420000  0.26030000  0.65170000  1.0 0.1667683556
O  O185  1  0.58010000  0.74730000  0.58180000  1.0 -0.541115514
O  O186  1  0.64080000  0.77680000  0.65580000  1.0 -0.5552474773
O  O187  1  0.57971000  0.62899000  0.91550000  1.0 -0.5318642606
O  O188  1  0.62760000  0.70540000  0.90700000  1.0 -0.2088134248
O  O189  1  0.72790000  0.91180000  0.57870000  1.0 -0.1588058386
O  O190  1  0.64380000  0.69190000  0.87570000  1.0 -0.2088134248
O  O191  1  0.68810000  0.79770000  0.53440000  1.0 0.1014212365
O  O192  1  0.73970000  0.85390000  0.65170000  1.0 0.1792933409
O  O193  1  0.34430000  0.17215000  0.50000000  1.0 -0.460315701
O  O194  1  0.82785000  0.65570000  0.50000000  1.0 -0.460315701
O  O195  1  0.82785000  0.17215000  0.50000000  1.0 -0.460315701
O  O196  1  0.65570000  0.82785000  0.50000000  1.0 -0.460315701
O  O197  1  0.17215000  0.34430000  0.50000000  1.0 -0.460315701
O  O198  1  0.17215000  0.82785000  0.50000000  1.0 -0.460315701
O  O199  1  0.27850000  0.13925000  0.71100000  1.0 -0.0561968147
O  O200  1  0.86075000  0.72150000  0.71100000  1.0 -0.0561968147
O  O201  1  0.86075000  0.13925000  0.71100000  1.0 -0.0561968147
O  O202  1  0.72150000  0.86075000  0.71100000  1.0 -0.0544519192
O  O203  1  0.13925000  0.27850000  0.71100000  1.0 -0.0561968147
O  O204  1  0.13925000  0.86075000  0.71100000  1.0 -0.0561968147
O  O205  1  0.13925000  0.86075000  0.28900000  1.0 -0.0561968147
O  O206  1  0.13925000  0.27850000  0.28900000  1.0 -0.0561968147
O  O207  1  0.72150000  0.86075000  0.28900000  1.0 -0.0561968147
O  O208  1  0.86075000  0.13925000  0.28900000  1.0 -0.0561968147
O  O209  1  0.86075000  0.72150000  0.28900000  1.0 -0.0561968147
O  O210  1  0.27850000  0.13925000  0.28900000  1.0 -0.0561968147
O  O211  1  0.28260000  0.08160000  0.00000000  1.0 -0.5318642606
O  O212  1  0.79900000  0.71740000  0.00000000  1.0 -0.5318642606
O  O213  1  0.91840000  0.20100000  0.00000000  1.0 -0.5318642606
O  O214  1  0.71740000  0.91840000  0.00000000  1.0 -0.5318642606
O  O215  1  0.20100000  0.28260000  0.00000000  1.0 -0.5318642606
O  O216  1  0.08160000  0.79900000  0.00000000  1.0 -0.5318642606
O  O217  1  0.20100000  0.91840000  0.00000000  1.0 -0.5318642606
O  O218  1  0.08160000  0.28260000  0.00000000  1.0 -0.5318642606
O  O219  1  0.71740000  0.79900000  0.00000000  1.0 -0.5318642606
O  O220  1  0.79900000  0.08160000  0.00000000  1.0 -0.5318642606
O  O221  1  0.91840000  0.71740000  0.00000000  1.0 -0.5318642606
O  O222  1  0.28260000  0.20100000  0.00000000  1.0 -0.5318642606
O  O223  1  0.33070000  0.00000000  0.00000000  1.0 -0.6874302443
O  O224  1  0.66930000  0.66930000  0.00000000  1.0 -0.6874302443
O  O225  1  0.00000000  0.33070000  0.00000000  1.0 -0.6874302443
O  O226  1  0.66930000  0.00000000  0.00000000  1.0 -0.6874302443
O  O227  1  0.33070000  0.33070000  0.00000000  1.0 -0.6874302443
O  O228  1  0.00000000  0.66930000  0.00000000  1.0 -0.6874302443
O  O229  1  0.28040000  0.19460000  0.50000000  1.0 0.3893636623
O  O230  1  0.91420000  0.71960000  0.50000000  1.0 0.3893636623
O  O231  1  0.80540000  0.08580000  0.50000000  1.0 0.3893636623
O  O232  1  0.71960000  0.80540000  0.50000000  1.0 0.3893636623
O  O233  1  0.08580000  0.28040000  0.50000000  1.0 0.3893636623
O  O234  1  0.19460000  0.91420000  0.50000000  1.0 0.3893636623
O  O235  1  0.08580000  0.80540000  0.50000000  1.0 0.3893636623
O  O236  1  0.19460000  0.28040000  0.50000000  1.0 0.3893636623
O  O237  1  0.71960000  0.91420000  0.50000000  1.0 0.3893636623
O  O238  1  0.91420000  0.19460000  0.50000000  1.0 0.3893636623
O  O239  1  0.80540000  0.71960000  0.50000000  1.0 0.3893636623
O  O240  1  0.28040000  0.08580000  0.50000000  1.0 0.3893636623
