# DDEC6 charges by PACMAN v1.1 (https://github.com/mtap-research/PACMAN-charge/)
data_AMOYOT_FSR_pacman
_symmetry_space_group_name_H-M   'P 1'
_cell_length_a   34.12000000
_cell_length_b   34.12000000
_cell_length_c   17.42190000
_cell_angle_alpha   90.00000000
_cell_angle_beta   90.00000000
_cell_angle_gamma   120.00000000
_symmetry_Int_Tables_number   1
_chemical_formula_structural   Co6Ag6H18C38N9O37
_chemical_formula_sum   'Co36 Ag36 H108 C228 N54 O222'
_cell_volume   17564.83980498
_cell_formula_units_Z   6
loop_
 _symmetry_equiv_pos_site_id
 _symmetry_equiv_pos_as_xyz
  1  'x, y, z'
loop_
 _atom_site_type_symbol
 _atom_site_label
 _atom_site_symmetry_multiplicity
 _atom_site_fract_x
 _atom_site_fract_y
 _atom_site_fract_z
 _atom_site_occupancy
 _atom_site_charge
Co  Co1  1  0.41952000  0.20976000  0.00000000  1.0 1.2009816312
Co  Co2  1  0.79024000  0.58048000  0.00000000  1.0 1.2009816312
Co  Co3  1  0.79024000  0.20976000  0.00000000  1.0 1.2009816312
Co  Co4  1  0.58048000  0.79024000  0.00000000  1.0 1.2009816312
Co  Co5  1  0.20976000  0.41952000  0.00000000  1.0 1.2009816312
Co  Co6  1  0.20976000  0.79024000  0.00000000  1.0 1.2009816312
Co  Co7  1  0.32565000  0.16282000  0.10659000  1.0 1.4464355993
Co  Co8  1  0.83718000  0.67435000  0.10659000  1.0 1.4464355993
Co  Co9  1  0.83718000  0.16282000  0.10659000  1.0 1.4464355993
Co  Co10  1  0.67435000  0.83718000  0.10659000  1.0 1.4464355993
Co  Co11  1  0.16282000  0.32565000  0.10659000  1.0 1.4464355993
Co  Co12  1  0.16282000  0.83718000  0.10659000  1.0 1.4464355993
Co  Co13  1  0.16282000  0.83718000  0.89341000  1.0 1.4464355993
Co  Co14  1  0.16282000  0.32565000  0.89341000  1.0 1.4464355993
Co  Co15  1  0.67435000  0.83718000  0.89341000  1.0 1.4464355993
Co  Co16  1  0.83718000  0.16282000  0.89341000  1.0 1.4464355993
Co  Co17  1  0.83718000  0.67435000  0.89341000  1.0 1.4464355993
Co  Co18  1  0.32565000  0.16282000  0.89341000  1.0 1.4447177393
Co  Co19  1  0.39474000  0.39474000  0.50000000  1.0 0.91583007
Co  Co20  1  0.00000000  0.60526000  0.50000000  1.0 0.91583007
Co  Co21  1  0.60526000  0.00000000  0.50000000  1.0 0.91583007
Co  Co22  1  0.60526000  0.60526000  0.50000000  1.0 0.91583007
Co  Co23  1  0.00000000  0.39474000  0.50000000  1.0 0.91583007
Co  Co24  1  0.39474000  0.00000000  0.50000000  1.0 0.91583007
Co  Co25  1  0.33280000  0.27340000  0.50000000  1.0 1.1233645819
Co  Co26  1  0.94060000  0.66720000  0.50000000  1.0 1.1233645819
Co  Co27  1  0.72660000  0.05940000  0.50000000  1.0 1.1233645819
Co  Co28  1  0.66720000  0.72660000  0.50000000  1.0 1.1233645819
Co  Co29  1  0.05940000  0.33280000  0.50000000  1.0 1.1233645819
Co  Co30  1  0.27340000  0.94060000  0.50000000  1.0 1.1233645819
Co  Co31  1  0.05940000  0.72660000  0.50000000  1.0 1.1233645819
Co  Co32  1  0.27340000  0.33280000  0.50000000  1.0 1.1233645819
Co  Co33  1  0.66720000  0.94060000  0.50000000  1.0 1.1233645819
Co  Co34  1  0.94060000  0.27340000  0.50000000  1.0 1.1233645819
Co  Co35  1  0.72660000  0.66720000  0.50000000  1.0 1.1233645819
Co  Co36  1  0.33280000  0.05940000  0.50000000  1.0 1.1233645819
Ag  Ag1  1  0.50702000  0.39492000  0.00000000  1.0 0.3583304925
Ag  Ag2  1  0.88790000  0.49298000  0.00000000  1.0 0.3583304925
Ag  Ag3  1  0.60508000  0.11210000  0.00000000  1.0 0.3583304925
Ag  Ag4  1  0.49298000  0.60508000  0.00000000  1.0 0.3583304925
Ag  Ag5  1  0.11210000  0.50702000  0.00000000  1.0 0.3583304925
Ag  Ag6  1  0.39492000  0.88790000  0.00000000  1.0 0.3583304925
Ag  Ag7  1  0.11210000  0.60508000  0.00000000  1.0 0.3583304925
Ag  Ag8  1  0.39492000  0.50702000  0.00000000  1.0 0.3583304925
Ag  Ag9  1  0.49298000  0.88790000  0.00000000  1.0 0.3583304925
Ag  Ag10  1  0.88790000  0.39492000  0.00000000  1.0 0.3583304925
Ag  Ag11  1  0.60508000  0.49298000  0.00000000  1.0 0.3583304925
Ag  Ag12  1  0.50702000  0.11210000  0.00000000  1.0 0.3583304925
Ag  Ag13  1  0.56290000  0.43710000  0.35310000  1.0 0.0927070831
Ag  Ag14  1  0.57465000  0.42535000  0.35700000  1.0 0.0363433587
Ag  Ag15  1  0.87420000  0.43710000  0.35310000  1.0 0.0927070831
Ag  Ag16  1  0.85070000  0.42535000  0.35700000  1.0 0.0363433587
Ag  Ag17  1  0.56290000  0.12580000  0.35310000  1.0 0.0927070831
Ag  Ag18  1  0.57465000  0.14930000  0.35700000  1.0 0.0363433587
Ag  Ag19  1  0.43710000  0.56290000  0.35310000  1.0 0.0927070831
Ag  Ag20  1  0.42535000  0.57465000  0.35700000  1.0 0.0363433587
Ag  Ag21  1  0.12580000  0.56290000  0.35310000  1.0 0.0927070831
Ag  Ag22  1  0.14930000  0.57465000  0.35700000  1.0 0.0363433587
Ag  Ag23  1  0.43710000  0.87420000  0.35310000  1.0 0.0927070831
Ag  Ag24  1  0.42535000  0.85070000  0.35700000  1.0 0.0363433587
Ag  Ag25  1  0.12580000  0.56290000  0.64690000  1.0 0.0927070831
Ag  Ag26  1  0.14930000  0.57465000  0.64300000  1.0 0.0363433587
Ag  Ag27  1  0.43710000  0.56290000  0.64690000  1.0 0.0927070831
Ag  Ag28  1  0.42535000  0.57465000  0.64300000  1.0 0.0363433587
Ag  Ag29  1  0.43710000  0.87420000  0.64690000  1.0 0.0927070831
Ag  Ag30  1  0.42535000  0.85070000  0.64300000  1.0 0.0363433587
Ag  Ag31  1  0.87420000  0.43710000  0.64690000  1.0 0.0927070831
Ag  Ag32  1  0.85070000  0.42535000  0.64300000  1.0 0.0363433587
Ag  Ag33  1  0.56290000  0.43710000  0.64690000  1.0 0.0927070831
Ag  Ag34  1  0.57465000  0.42535000  0.64300000  1.0 0.0363433587
Ag  Ag35  1  0.56290000  0.12580000  0.64690000  1.0 0.0927070831
Ag  Ag36  1  0.57465000  0.14930000  0.64300000  1.0 0.0363433587
H  H1  1  0.37624000  0.27183000  0.27183000  1.0 0.1620608127
H  H2  1  0.47761000  0.39664000  0.31284000  1.0 0.1215814335
H  H3  1  0.47778000  0.33092000  0.12291000  1.0 0.1390249865
H  H4  1  0.43682000  0.46141000  0.64793000  1.0 0.1958421392
H  H5  1  0.89559000  0.62376000  0.27183000  1.0 0.1620608127
H  H6  1  0.91903000  0.52239000  0.31284000  1.0 0.1215814335
H  H7  1  0.85314000  0.52222000  0.12291000  1.0 0.1390249865
H  H8  1  0.02459000  0.56318000  0.64793000  1.0 0.1958421392
H  H9  1  0.72817000  0.10441000  0.27183000  1.0 0.1620608127
H  H10  1  0.60336000  0.08097000  0.31284000  1.0 0.1215814335
H  H11  1  0.66908000  0.14686000  0.12291000  1.0 0.1390249865
H  H12  1  0.53859000  0.97541000  0.64793000  1.0 0.1958421392
H  H13  1  0.62376000  0.72817000  0.27183000  1.0 0.1620608127
H  H14  1  0.52239000  0.60336000  0.31284000  1.0 0.1215814335
H  H15  1  0.52222000  0.66908000  0.12291000  1.0 0.1390249865
H  H16  1  0.56318000  0.53859000  0.64793000  1.0 0.1958421392
H  H17  1  0.10441000  0.37624000  0.27183000  1.0 0.1620608127
H  H18  1  0.08097000  0.47761000  0.31284000  1.0 0.1215814335
H  H19  1  0.14686000  0.47778000  0.12291000  1.0 0.1390249865
H  H20  1  0.97541000  0.43682000  0.64793000  1.0 0.1945445415
H  H21  1  0.27183000  0.89559000  0.27183000  1.0 0.1620608127
H  H22  1  0.39664000  0.91903000  0.31284000  1.0 0.1215814335
H  H23  1  0.33092000  0.85314000  0.12291000  1.0 0.1390249865
H  H24  1  0.46141000  0.02459000  0.64793000  1.0 0.1958421392
H  H25  1  0.10441000  0.72817000  0.72817000  1.0 0.1620608127
H  H26  1  0.08097000  0.60336000  0.68716000  1.0 0.1215814335
H  H27  1  0.14686000  0.66908000  0.87709000  1.0 0.1390249865
H  H28  1  0.97541000  0.53859000  0.35207000  1.0 0.1945445415
H  H29  1  0.27183000  0.37624000  0.72817000  1.0 0.1620608127
H  H30  1  0.39664000  0.47761000  0.68716000  1.0 0.1215814335
H  H31  1  0.33092000  0.47778000  0.87709000  1.0 0.1390249865
H  H32  1  0.46141000  0.43682000  0.35207000  1.0 0.1958421392
H  H33  1  0.62376000  0.89559000  0.72817000  1.0 0.1620608127
H  H34  1  0.52239000  0.91903000  0.68716000  1.0 0.1215814335
H  H35  1  0.52222000  0.85314000  0.87709000  1.0 0.1390249865
H  H36  1  0.56318000  0.02459000  0.35207000  1.0 0.1945445415
H  H37  1  0.89559000  0.27183000  0.72817000  1.0 0.1620608127
H  H38  1  0.91903000  0.39664000  0.68716000  1.0 0.1215814335
H  H39  1  0.85314000  0.33092000  0.87709000  1.0 0.1390249865
H  H40  1  0.02459000  0.46141000  0.35207000  1.0 0.1958421392
H  H41  1  0.72817000  0.62376000  0.72817000  1.0 0.1620608127
H  H42  1  0.60336000  0.52239000  0.68716000  1.0 0.1215814335
H  H43  1  0.66908000  0.52222000  0.87709000  1.0 0.1390249865
H  H44  1  0.53859000  0.56318000  0.35207000  1.0 0.1945445415
H  H45  1  0.37624000  0.10441000  0.72817000  1.0 0.1620608127
H  H46  1  0.47761000  0.08097000  0.68716000  1.0 0.1215814335
H  H47  1  0.47778000  0.14686000  0.87709000  1.0 0.1390249865
H  H48  1  0.43682000  0.97541000  0.35207000  1.0 0.1958421392
H  H49  1  0.62376000  0.72817000  0.72817000  1.0 0.1620608127
H  H50  1  0.52239000  0.60336000  0.68716000  1.0 0.1215814335
H  H51  1  0.52222000  0.66908000  0.87709000  1.0 0.1390249865
H  H52  1  0.56318000  0.53859000  0.35207000  1.0 0.1945445415
H  H53  1  0.10441000  0.37624000  0.72817000  1.0 0.1620608127
H  H54  1  0.08097000  0.47761000  0.68716000  1.0 0.1215814335
H  H55  1  0.14686000  0.47778000  0.87709000  1.0 0.1390249865
H  H56  1  0.97541000  0.43682000  0.35207000  1.0 0.1945445415
H  H57  1  0.27183000  0.89559000  0.72817000  1.0 0.1620608127
H  H58  1  0.39664000  0.91903000  0.68716000  1.0 0.1215814335
H  H59  1  0.33092000  0.85314000  0.87709000  1.0 0.1390249865
H  H60  1  0.46141000  0.02459000  0.35207000  1.0 0.1945445415
H  H61  1  0.37624000  0.27183000  0.72817000  1.0 0.1620608127
H  H62  1  0.47761000  0.39664000  0.68716000  1.0 0.1215814335
H  H63  1  0.47778000  0.33092000  0.87709000  1.0 0.1390249865
H  H64  1  0.43682000  0.46141000  0.35207000  1.0 0.1945445415
H  H65  1  0.89559000  0.62376000  0.72817000  1.0 0.1620608127
H  H66  1  0.91903000  0.52239000  0.68716000  1.0 0.1215814335
H  H67  1  0.85314000  0.52222000  0.87709000  1.0 0.1390249865
H  H68  1  0.02459000  0.56318000  0.35207000  1.0 0.1945445415
H  H69  1  0.72817000  0.10441000  0.72817000  1.0 0.1620608127
H  H70  1  0.60336000  0.08097000  0.68716000  1.0 0.1215814335
H  H71  1  0.66908000  0.14686000  0.87709000  1.0 0.1390249865
H  H72  1  0.53859000  0.97541000  0.35207000  1.0 0.1958421392
H  H73  1  0.89559000  0.27183000  0.27183000  1.0 0.1620608127
H  H74  1  0.91903000  0.39664000  0.31284000  1.0 0.1215814335
H  H75  1  0.85314000  0.33092000  0.12291000  1.0 0.1390249865
H  H76  1  0.02459000  0.46141000  0.64793000  1.0 0.1958421392
H  H77  1  0.72817000  0.62376000  0.27183000  1.0 0.1620608127
H  H78  1  0.60336000  0.52239000  0.31284000  1.0 0.1215814335
H  H79  1  0.66908000  0.52222000  0.12291000  1.0 0.1390249865
H  H80  1  0.53859000  0.56318000  0.64793000  1.0 0.1958421392
H  H81  1  0.37624000  0.10441000  0.27183000  1.0 0.1620608127
H  H82  1  0.47761000  0.08097000  0.31284000  1.0 0.1215814335
H  H83  1  0.47778000  0.14686000  0.12291000  1.0 0.1390249865
H  H84  1  0.43682000  0.97541000  0.64793000  1.0 0.1958421392
H  H85  1  0.10441000  0.72817000  0.27183000  1.0 0.1620608127
H  H86  1  0.08097000  0.60336000  0.31284000  1.0 0.1215814335
H  H87  1  0.14686000  0.66908000  0.12291000  1.0 0.1390249865
H  H88  1  0.97541000  0.53859000  0.64793000  1.0 0.1958421392
H  H89  1  0.27183000  0.37624000  0.27183000  1.0 0.1620608127
H  H90  1  0.39664000  0.47761000  0.31284000  1.0 0.1215814335
H  H91  1  0.33092000  0.47778000  0.12291000  1.0 0.1390249865
H  H92  1  0.46141000  0.43682000  0.64793000  1.0 0.1958421392
H  H93  1  0.62376000  0.89559000  0.27183000  1.0 0.1620608127
H  H94  1  0.52239000  0.91903000  0.31284000  1.0 0.1215814335
H  H95  1  0.52222000  0.85314000  0.12291000  1.0 0.1390249865
H  H96  1  0.56318000  0.02459000  0.64793000  1.0 0.1958421392
H  H97  1  0.46529000  0.46529000  0.61225000  1.0 0.1215814335
H  H98  1  0.00000000  0.53471000  0.61225000  1.0 0.1215814335
H  H99  1  0.53471000  0.00000000  0.61225000  1.0 0.1215814335
H  H100  1  0.53471000  0.53471000  0.61225000  1.0 0.1215814335
H  H101  1  0.00000000  0.46529000  0.61225000  1.0 0.1215814335
H  H102  1  0.46529000  0.00000000  0.61225000  1.0 0.1215814335
H  H103  1  0.00000000  0.53471000  0.38775000  1.0 0.1215814335
H  H104  1  0.46529000  0.46529000  0.38775000  1.0 0.1215814335
H  H105  1  0.53471000  0.00000000  0.38775000  1.0 0.1215814335
H  H106  1  0.00000000  0.46529000  0.38775000  1.0 0.1215814335
H  H107  1  0.53471000  0.53471000  0.38775000  1.0 0.1215814335
H  H108  1  0.46529000  0.00000000  0.38775000  1.0 0.1215814335
C  C1  1  0.42350000  0.29630000  0.18880000  1.0 0.0088354181
C  C2  1  0.40370000  0.29660000  0.25700000  1.0 -0.0762219941
C  C3  1  0.42580000  0.33520000  0.30430000  1.0 0.0255327121
C  C4  1  0.46420000  0.37110000  0.28160000  1.0 -0.1178541718
C  C5  1  0.48490000  0.37160000  0.21290000  1.0 0.0363433587
C  C6  1  0.46390000  0.33240000  0.16790000  1.0 -0.0974492404
C  C7  1  0.40290000  0.25480000  0.13710000  1.0 0.5948589189
C  C8  1  0.40170000  0.33610000  0.37890000  1.0 0.5114799581
C  C9  1  0.52660000  0.41110000  0.18700000  1.0 0.3077673619
C  C10  1  0.87280000  0.57650000  0.18880000  1.0 0.0088354181
C  C11  1  0.89290000  0.59630000  0.25700000  1.0 -0.0762219941
C  C12  1  0.90940000  0.57420000  0.30430000  1.0 0.0255327121
C  C13  1  0.90690000  0.53580000  0.28160000  1.0 -0.1178541718
C  C14  1  0.88670000  0.51510000  0.21290000  1.0 0.0363433587
C  C15  1  0.86850000  0.53610000  0.16790000  1.0 -0.0974492404
C  C16  1  0.85190000  0.59710000  0.13710000  1.0 0.5961374462
C  C17  1  0.93440000  0.59830000  0.37890000  1.0 0.5114799581
C  C18  1  0.88450000  0.47340000  0.18700000  1.0 0.3077673619
C  C19  1  0.70370000  0.12720000  0.18880000  1.0 0.0088354181
C  C20  1  0.70340000  0.10710000  0.25700000  1.0 -0.0762219941
C  C21  1  0.66480000  0.09060000  0.30430000  1.0 0.0255327121
C  C22  1  0.62890000  0.09310000  0.28160000  1.0 -0.1178541718
C  C23  1  0.62840000  0.11330000  0.21290000  1.0 0.0363433587
C  C24  1  0.66760000  0.13150000  0.16790000  1.0 -0.0974492404
C  C25  1  0.74520000  0.14810000  0.13710000  1.0 0.5961374462
C  C26  1  0.66390000  0.06560000  0.37890000  1.0 0.5114799581
C  C27  1  0.58890000  0.11550000  0.18700000  1.0 0.3077673619
C  C28  1  0.57650000  0.70370000  0.18880000  1.0 0.0088354181
C  C29  1  0.59630000  0.70340000  0.25700000  1.0 -0.0762219941
C  C30  1  0.57420000  0.66480000  0.30430000  1.0 0.0255327121
C  C31  1  0.53580000  0.62890000  0.28160000  1.0 -0.1178541718
C  C32  1  0.51510000  0.62840000  0.21290000  1.0 0.0363433587
C  C33  1  0.53610000  0.66760000  0.16790000  1.0 -0.0974492404
C  C34  1  0.59710000  0.74520000  0.13710000  1.0 0.5961374462
C  C35  1  0.59830000  0.66390000  0.37890000  1.0 0.5114799581
C  C36  1  0.47340000  0.58890000  0.18700000  1.0 0.3077673619
C  C37  1  0.12720000  0.42350000  0.18880000  1.0 0.0088354181
C  C38  1  0.10710000  0.40370000  0.25700000  1.0 -0.0762219941
C  C39  1  0.09060000  0.42580000  0.30430000  1.0 0.0255327121
C  C40  1  0.09310000  0.46420000  0.28160000  1.0 -0.1178541718
C  C41  1  0.11330000  0.48490000  0.21290000  1.0 0.0363433587
C  C42  1  0.13150000  0.46390000  0.16790000  1.0 -0.0974492404
C  C43  1  0.14810000  0.40290000  0.13710000  1.0 0.5961374462
C  C44  1  0.06560000  0.40170000  0.37890000  1.0 0.5114799581
C  C45  1  0.11550000  0.52660000  0.18700000  1.0 0.3077673619
C  C46  1  0.29630000  0.87280000  0.18880000  1.0 0.0088354181
C  C47  1  0.29660000  0.89290000  0.25700000  1.0 -0.0762219941
C  C48  1  0.33520000  0.90940000  0.30430000  1.0 0.0255327121
C  C49  1  0.37110000  0.90690000  0.28160000  1.0 -0.1178541718
C  C50  1  0.37160000  0.88670000  0.21290000  1.0 0.0363433587
C  C51  1  0.33240000  0.86850000  0.16790000  1.0 -0.0974492404
C  C52  1  0.25480000  0.85190000  0.13710000  1.0 0.5961374462
C  C53  1  0.33610000  0.93440000  0.37890000  1.0 0.5114799581
C  C54  1  0.41110000  0.88450000  0.18700000  1.0 0.3077673619
C  C55  1  0.12720000  0.70370000  0.81120000  1.0 0.0088354181
C  C56  1  0.10710000  0.70340000  0.74300000  1.0 -0.0762219941
C  C57  1  0.09060000  0.66480000  0.69570000  1.0 0.0255327121
C  C58  1  0.09310000  0.62890000  0.71840000  1.0 -0.1178541718
C  C59  1  0.11330000  0.62840000  0.78710000  1.0 0.0363433587
C  C60  1  0.13150000  0.66760000  0.83210000  1.0 -0.0974492404
C  C61  1  0.14810000  0.74520000  0.86290000  1.0 0.5961374462
C  C62  1  0.06560000  0.66390000  0.62110000  1.0 0.5114799581
C  C63  1  0.11550000  0.58890000  0.81300000  1.0 0.3077673619
C  C64  1  0.29630000  0.42350000  0.81120000  1.0 0.0088354181
C  C65  1  0.29660000  0.40370000  0.74300000  1.0 -0.0762219941
C  C66  1  0.33520000  0.42580000  0.69570000  1.0 0.0255327121
C  C67  1  0.37110000  0.46420000  0.71840000  1.0 -0.1178541718
C  C68  1  0.37160000  0.48490000  0.78710000  1.0 0.0363433587
C  C69  1  0.33240000  0.46390000  0.83210000  1.0 -0.0974492404
C  C70  1  0.25480000  0.40290000  0.86290000  1.0 0.5961374462
C  C71  1  0.33610000  0.40170000  0.62110000  1.0 0.5114799581
C  C72  1  0.41110000  0.52660000  0.81300000  1.0 0.3077673619
C  C73  1  0.57650000  0.87280000  0.81120000  1.0 0.0088354181
C  C74  1  0.59630000  0.89290000  0.74300000  1.0 -0.0762219941
C  C75  1  0.57420000  0.90940000  0.69570000  1.0 0.0255327121
C  C76  1  0.53580000  0.90690000  0.71840000  1.0 -0.1178541718
C  C77  1  0.51510000  0.88670000  0.78710000  1.0 0.0363433587
C  C78  1  0.53610000  0.86850000  0.83210000  1.0 -0.0974492404
C  C79  1  0.59710000  0.85190000  0.86290000  1.0 0.5961374462
C  C80  1  0.59830000  0.93440000  0.62110000  1.0 0.5114799581
C  C81  1  0.47340000  0.88450000  0.81300000  1.0 0.3077673619
C  C82  1  0.87280000  0.29630000  0.81120000  1.0 0.0088354181
C  C83  1  0.89290000  0.29660000  0.74300000  1.0 -0.0762219941
C  C84  1  0.90940000  0.33520000  0.69570000  1.0 0.0255327121
C  C85  1  0.90690000  0.37110000  0.71840000  1.0 -0.1178541718
C  C86  1  0.88670000  0.37160000  0.78710000  1.0 0.0363433587
C  C87  1  0.86850000  0.33240000  0.83210000  1.0 -0.0974492404
C  C88  1  0.85190000  0.25480000  0.86290000  1.0 0.5961374462
C  C89  1  0.93440000  0.33610000  0.62110000  1.0 0.5114799581
C  C90  1  0.88450000  0.41110000  0.81300000  1.0 0.3077673619
C  C91  1  0.70370000  0.57650000  0.81120000  1.0 0.0088354181
C  C92  1  0.70340000  0.59630000  0.74300000  1.0 -0.0762219941
C  C93  1  0.66480000  0.57420000  0.69570000  1.0 0.0255327121
C  C94  1  0.62890000  0.53580000  0.71840000  1.0 -0.1178541718
C  C95  1  0.62840000  0.51510000  0.78710000  1.0 0.0363433587
C  C96  1  0.66760000  0.53610000  0.83210000  1.0 -0.0974492404
C  C97  1  0.74520000  0.59710000  0.86290000  1.0 0.5961374462
C  C98  1  0.66390000  0.59830000  0.62110000  1.0 0.5114799581
C  C99  1  0.58890000  0.47340000  0.81300000  1.0 0.3077673619
C  C100  1  0.42350000  0.12720000  0.81120000  1.0 0.0088354181
C  C101  1  0.40370000  0.10710000  0.74300000  1.0 -0.0762219941
C  C102  1  0.42580000  0.09060000  0.69570000  1.0 0.0255327121
C  C103  1  0.46420000  0.09310000  0.71840000  1.0 -0.1178541718
C  C104  1  0.48490000  0.11330000  0.78710000  1.0 0.0363433587
C  C105  1  0.46390000  0.13150000  0.83210000  1.0 -0.0974492404
C  C106  1  0.40290000  0.14810000  0.86290000  1.0 0.5961374462
C  C107  1  0.40170000  0.06560000  0.62110000  1.0 0.5114799581
C  C108  1  0.52660000  0.11550000  0.81300000  1.0 0.3077673619
C  C109  1  0.57650000  0.70370000  0.81120000  1.0 0.0088354181
C  C110  1  0.59630000  0.70340000  0.74300000  1.0 -0.0762219941
C  C111  1  0.57420000  0.66480000  0.69570000  1.0 0.0255327121
C  C112  1  0.53580000  0.62890000  0.71840000  1.0 -0.1178541718
C  C113  1  0.51510000  0.62840000  0.78710000  1.0 0.0363433587
C  C114  1  0.53610000  0.66760000  0.83210000  1.0 -0.0974492404
C  C115  1  0.59710000  0.74520000  0.86290000  1.0 0.5961374462
C  C116  1  0.59830000  0.66390000  0.62110000  1.0 0.5114799581
C  C117  1  0.47340000  0.58890000  0.81300000  1.0 0.3077673619
C  C118  1  0.12720000  0.42350000  0.81120000  1.0 0.0088354181
C  C119  1  0.10710000  0.40370000  0.74300000  1.0 -0.0762219941
C  C120  1  0.09060000  0.42580000  0.69570000  1.0 0.0255327121
C  C121  1  0.09310000  0.46420000  0.71840000  1.0 -0.1178541718
C  C122  1  0.11330000  0.48490000  0.78710000  1.0 0.0363433587
C  C123  1  0.13150000  0.46390000  0.83210000  1.0 -0.0974492404
C  C124  1  0.14810000  0.40290000  0.86290000  1.0 0.5961374462
C  C125  1  0.06560000  0.40170000  0.62110000  1.0 0.5114799581
C  C126  1  0.11550000  0.52660000  0.81300000  1.0 0.3077673619
C  C127  1  0.29630000  0.87280000  0.81120000  1.0 0.0088354181
C  C128  1  0.29660000  0.89290000  0.74300000  1.0 -0.0762219941
C  C129  1  0.33520000  0.90940000  0.69570000  1.0 0.0255327121
C  C130  1  0.37110000  0.90690000  0.71840000  1.0 -0.1178541718
C  C131  1  0.37160000  0.88670000  0.78710000  1.0 0.0363433587
C  C132  1  0.33240000  0.86850000  0.83210000  1.0 -0.0974492404
C  C133  1  0.25480000  0.85190000  0.86290000  1.0 0.5961374462
C  C134  1  0.33610000  0.93440000  0.62110000  1.0 0.5114799581
C  C135  1  0.41110000  0.88450000  0.81300000  1.0 0.3077673619
C  C136  1  0.42350000  0.29630000  0.81120000  1.0 0.0088354181
C  C137  1  0.40370000  0.29660000  0.74300000  1.0 -0.0762219941
C  C138  1  0.42580000  0.33520000  0.69570000  1.0 0.0255327121
C  C139  1  0.46420000  0.37110000  0.71840000  1.0 -0.1178541718
C  C140  1  0.48490000  0.37160000  0.78710000  1.0 0.0363433587
C  C141  1  0.46390000  0.33240000  0.83210000  1.0 -0.0974492404
C  C142  1  0.40290000  0.25480000  0.86290000  1.0 0.5961374462
C  C143  1  0.40170000  0.33610000  0.62110000  1.0 0.5114799581
C  C144  1  0.52660000  0.41110000  0.81300000  1.0 0.3077673619
C  C145  1  0.87280000  0.57650000  0.81120000  1.0 0.0088354181
C  C146  1  0.89290000  0.59630000  0.74300000  1.0 -0.0762219941
C  C147  1  0.90940000  0.57420000  0.69570000  1.0 0.0255327121
C  C148  1  0.90690000  0.53580000  0.71840000  1.0 -0.1178541718
C  C149  1  0.88670000  0.51510000  0.78710000  1.0 0.0363433587
C  C150  1  0.86850000  0.53610000  0.83210000  1.0 -0.0974492404
C  C151  1  0.85190000  0.59710000  0.86290000  1.0 0.5961374462
C  C152  1  0.93440000  0.59830000  0.62110000  1.0 0.5114799581
C  C153  1  0.88450000  0.47340000  0.81300000  1.0 0.3077673619
C  C154  1  0.70370000  0.12720000  0.81120000  1.0 0.0088354181
C  C155  1  0.70340000  0.10710000  0.74300000  1.0 -0.0762219941
C  C156  1  0.66480000  0.09060000  0.69570000  1.0 0.0255327121
C  C157  1  0.62890000  0.09310000  0.71840000  1.0 -0.1178541718
C  C158  1  0.62840000  0.11330000  0.78710000  1.0 0.0363433587
C  C159  1  0.66760000  0.13150000  0.83210000  1.0 -0.0974492404
C  C160  1  0.74520000  0.14810000  0.86290000  1.0 0.5961374462
C  C161  1  0.66390000  0.06560000  0.62110000  1.0 0.5114799581
C  C162  1  0.58890000  0.11550000  0.81300000  1.0 0.3077673619
C  C163  1  0.87280000  0.29630000  0.18880000  1.0 0.0088354181
C  C164  1  0.89290000  0.29660000  0.25700000  1.0 -0.0762219941
C  C165  1  0.90940000  0.33520000  0.30430000  1.0 0.0255327121
C  C166  1  0.90690000  0.37110000  0.28160000  1.0 -0.1178541718
C  C167  1  0.88670000  0.37160000  0.21290000  1.0 0.0363433587
C  C168  1  0.86850000  0.33240000  0.16790000  1.0 -0.0974492404
C  C169  1  0.85190000  0.25480000  0.13710000  1.0 0.5961374462
C  C170  1  0.93440000  0.33610000  0.37890000  1.0 0.5114799581
C  C171  1  0.88450000  0.41110000  0.18700000  1.0 0.3077673619
C  C172  1  0.70370000  0.57650000  0.18880000  1.0 0.0088354181
C  C173  1  0.70340000  0.59630000  0.25700000  1.0 -0.0762219941
C  C174  1  0.66480000  0.57420000  0.30430000  1.0 0.0255327121
C  C175  1  0.62890000  0.53580000  0.28160000  1.0 -0.1178541718
C  C176  1  0.62840000  0.51510000  0.21290000  1.0 0.0363433587
C  C177  1  0.66760000  0.53610000  0.16790000  1.0 -0.0974492404
C  C178  1  0.74520000  0.59710000  0.13710000  1.0 0.5961374462
C  C179  1  0.66390000  0.59830000  0.37890000  1.0 0.5114799581
C  C180  1  0.58890000  0.47340000  0.18700000  1.0 0.3077673619
C  C181  1  0.42350000  0.12720000  0.18880000  1.0 0.0088354181
C  C182  1  0.40370000  0.10710000  0.25700000  1.0 -0.0762219941
C  C183  1  0.42580000  0.09060000  0.30430000  1.0 0.0255327121
C  C184  1  0.46420000  0.09310000  0.28160000  1.0 -0.1178541718
C  C185  1  0.48490000  0.11330000  0.21290000  1.0 0.0363433587
C  C186  1  0.46390000  0.13150000  0.16790000  1.0 -0.0974492404
C  C187  1  0.40290000  0.14810000  0.13710000  1.0 0.5961374462
C  C188  1  0.40170000  0.06560000  0.37890000  1.0 0.5114799581
C  C189  1  0.52660000  0.11550000  0.18700000  1.0 0.3077673619
C  C190  1  0.12720000  0.70370000  0.18880000  1.0 0.0088354181
C  C191  1  0.10710000  0.70340000  0.25700000  1.0 -0.0762219941
C  C192  1  0.09060000  0.66480000  0.30430000  1.0 0.0255327121
C  C193  1  0.09310000  0.62890000  0.28160000  1.0 -0.1178541718
C  C194  1  0.11330000  0.62840000  0.21290000  1.0 0.0363433587
C  C195  1  0.13150000  0.66760000  0.16790000  1.0 -0.0974492404
C  C196  1  0.14810000  0.74520000  0.13710000  1.0 0.5961374462
C  C197  1  0.06560000  0.66390000  0.37890000  1.0 0.5114799581
C  C198  1  0.11550000  0.58890000  0.18700000  1.0 0.3077673619
C  C199  1  0.29630000  0.42350000  0.18880000  1.0 0.0088354181
C  C200  1  0.29660000  0.40370000  0.25700000  1.0 -0.0762219941
C  C201  1  0.33520000  0.42580000  0.30430000  1.0 0.0255327121
C  C202  1  0.37110000  0.46420000  0.28160000  1.0 -0.1178541718
C  C203  1  0.37160000  0.48490000  0.21290000  1.0 0.0363433587
C  C204  1  0.33240000  0.46390000  0.16790000  1.0 -0.0974492404
C  C205  1  0.25480000  0.40290000  0.13710000  1.0 0.5961374462
C  C206  1  0.33610000  0.40170000  0.37890000  1.0 0.5114799581
C  C207  1  0.41110000  0.52660000  0.18700000  1.0 0.3077673619
C  C208  1  0.57650000  0.87280000  0.18880000  1.0 0.0088354181
C  C209  1  0.59630000  0.89290000  0.25700000  1.0 -0.0762219941
C  C210  1  0.57420000  0.90940000  0.30430000  1.0 0.0255327121
C  C211  1  0.53580000  0.90690000  0.28160000  1.0 -0.1178541718
C  C212  1  0.51510000  0.88670000  0.21290000  1.0 0.0363433587
C  C213  1  0.53610000  0.86850000  0.16790000  1.0 -0.0974492404
C  C214  1  0.59710000  0.85190000  0.13710000  1.0 0.5961374462
C  C215  1  0.59830000  0.93440000  0.37890000  1.0 0.5114799581
C  C216  1  0.47340000  0.88450000  0.18700000  1.0 0.3077673619
C  C217  1  0.47890000  0.47890000  0.56600000  1.0 0.1767921255
C  C218  1  0.00000000  0.52110000  0.56600000  1.0 0.1767921255
C  C219  1  0.52110000  0.00000000  0.56600000  1.0 0.1767921255
C  C220  1  0.52110000  0.52110000  0.56600000  1.0 0.1767921255
C  C221  1  0.00000000  0.47890000  0.56600000  1.0 0.1767921255
C  C222  1  0.47890000  0.00000000  0.56600000  1.0 0.1767921255
C  C223  1  0.00000000  0.52110000  0.43400000  1.0 0.1767921255
C  C224  1  0.47890000  0.47890000  0.43400000  1.0 0.1767921255
C  C225  1  0.52110000  0.00000000  0.43400000  1.0 0.1767921255
C  C226  1  0.00000000  0.47890000  0.43400000  1.0 0.1767921255
C  C227  1  0.52110000  0.52110000  0.43400000  1.0 0.1767921255
C  C228  1  0.47890000  0.00000000  0.43400000  1.0 0.1767921255
N  N1  1  0.53660000  0.42170000  0.11320000  1.0 -0.2142498757
N  N2  1  0.88510000  0.46340000  0.11320000  1.0 -0.2142498757
N  N3  1  0.57830000  0.11490000  0.11320000  1.0 -0.2142498757
N  N4  1  0.46340000  0.57830000  0.11320000  1.0 -0.2142498757
N  N5  1  0.11490000  0.53660000  0.11320000  1.0 -0.2142498757
N  N6  1  0.42170000  0.88510000  0.11320000  1.0 -0.2142498757
N  N7  1  0.11490000  0.57830000  0.88680000  1.0 -0.2175343718
N  N8  1  0.42170000  0.53660000  0.88680000  1.0 -0.2142498757
N  N9  1  0.46340000  0.88510000  0.88680000  1.0 -0.2142498757
N  N10  1  0.88510000  0.42170000  0.88680000  1.0 -0.2175343718
N  N11  1  0.57830000  0.46340000  0.88680000  1.0 -0.2175343718
N  N12  1  0.53660000  0.11490000  0.88680000  1.0 -0.2142498757
N  N13  1  0.46340000  0.57830000  0.88680000  1.0 -0.2175343718
N  N14  1  0.11490000  0.53660000  0.88680000  1.0 -0.2142498757
N  N15  1  0.42170000  0.88510000  0.88680000  1.0 -0.2142498757
N  N16  1  0.53660000  0.42170000  0.88680000  1.0 -0.2142498757
N  N17  1  0.88510000  0.46340000  0.88680000  1.0 -0.2142498757
N  N18  1  0.57830000  0.11490000  0.88680000  1.0 -0.2175343718
N  N19  1  0.88510000  0.42170000  0.11320000  1.0 -0.2142498757
N  N20  1  0.57830000  0.46340000  0.11320000  1.0 -0.2142498757
N  N21  1  0.53660000  0.11490000  0.11320000  1.0 -0.2142498757
N  N22  1  0.11490000  0.57830000  0.11320000  1.0 -0.2142498757
N  N23  1  0.42170000  0.53660000  0.11320000  1.0 -0.2142498757
N  N24  1  0.46340000  0.88510000  0.11320000  1.0 -0.2142498757
N  N25  1  0.55695000  0.44305000  0.23280000  1.0 -0.324378516
N  N26  1  0.88610000  0.44305000  0.23280000  1.0 -0.324378516
N  N27  1  0.55695000  0.11390000  0.23280000  1.0 -0.3260561781
N  N28  1  0.44305000  0.55695000  0.23280000  1.0 -0.324378516
N  N29  1  0.11390000  0.55695000  0.23280000  1.0 -0.324378516
N  N30  1  0.44305000  0.88610000  0.23280000  1.0 -0.324378516
N  N31  1  0.11390000  0.55695000  0.76720000  1.0 -0.324378516
N  N32  1  0.44305000  0.55695000  0.76720000  1.0 -0.324378516
N  N33  1  0.44305000  0.88610000  0.76720000  1.0 -0.324378516
N  N34  1  0.88610000  0.44305000  0.76720000  1.0 -0.324378516
N  N35  1  0.55695000  0.44305000  0.76720000  1.0 -0.324378516
N  N36  1  0.55695000  0.11390000  0.76720000  1.0 -0.324378516
N  N37  1  0.45920000  0.45920000  0.50000000  1.0 -0.3544992762
N  N38  1  0.00000000  0.54080000  0.50000000  1.0 -0.3551063197
N  N39  1  0.54080000  0.00000000  0.50000000  1.0 -0.3544992762
N  N40  1  0.54080000  0.54080000  0.50000000  1.0 -0.3544992762
N  N41  1  0.00000000  0.45920000  0.50000000  1.0 -0.3551063197
N  N42  1  0.45920000  0.00000000  0.50000000  1.0 -0.3544992762
N  N43  1  0.46370000  0.46370000  0.64080000  1.0 -0.4357994454
N  N44  1  0.00000000  0.53630000  0.64080000  1.0 -0.4323182426
N  N45  1  0.53630000  0.00000000  0.64080000  1.0 -0.4323182426
N  N46  1  0.53630000  0.53630000  0.64080000  1.0 -0.4323182426
N  N47  1  0.00000000  0.46370000  0.64080000  1.0 -0.4323182426
N  N48  1  0.46370000  0.00000000  0.64080000  1.0 -0.4357994454
N  N49  1  0.00000000  0.53630000  0.35920000  1.0 -0.4357994454
N  N50  1  0.46370000  0.46370000  0.35920000  1.0 -0.4357994454
N  N51  1  0.53630000  0.00000000  0.35920000  1.0 -0.4357994454
N  N52  1  0.00000000  0.46370000  0.35920000  1.0 -0.4357994454
N  N53  1  0.53630000  0.53630000  0.35920000  1.0 -0.4357994454
N  N54  1  0.46370000  0.00000000  0.35920000  1.0 -0.4357994454
O  O1  1  0.42440000  0.25540000  0.08080000  1.0 -0.50329136
O  O2  1  0.36200000  0.22420000  0.15380000  1.0 -0.5541720447
O  O3  1  0.41960000  0.37160000  0.41510000  1.0 -0.423959965
O  O4  1  0.27460000  0.09600000  0.07210000  1.0 -0.2806603691
O  O5  1  0.27680000  0.24150000  0.41800000  1.0 -0.2299900784
O  O6  1  0.36000000  0.30690000  0.38360000  1.0 -0.1716632521
O  O7  1  0.37650000  0.29610000  0.41010000  1.0 -0.1952743408
O  O8  1  0.83100000  0.57560000  0.08080000  1.0 -0.50329136
O  O9  1  0.86220000  0.63800000  0.15380000  1.0 -0.5541720447
O  O10  1  0.95200000  0.58040000  0.41510000  1.0 -0.423959965
O  O11  1  0.82140000  0.72540000  0.07210000  1.0 -0.2806603691
O  O12  1  0.96470000  0.72320000  0.41800000  1.0 -0.2299900784
O  O13  1  0.94690000  0.64000000  0.38360000  1.0 -0.1716632521
O  O14  1  0.91960000  0.62350000  0.41010000  1.0 -0.1926220911
O  O15  1  0.74460000  0.16900000  0.08080000  1.0 -0.50329136
O  O16  1  0.77580000  0.13780000  0.15380000  1.0 -0.5554950691
O  O17  1  0.62840000  0.04800000  0.41510000  1.0 -0.423959965
O  O18  1  0.90400000  0.17860000  0.07210000  1.0 -0.2806603691
O  O19  1  0.75850000  0.03530000  0.41800000  1.0 -0.2299900784
O  O20  1  0.69310000  0.05310000  0.38360000  1.0 -0.1716632521
O  O21  1  0.70390000  0.08040000  0.41010000  1.0 -0.1952743408
O  O22  1  0.57560000  0.74460000  0.08080000  1.0 -0.50329136
O  O23  1  0.63800000  0.77580000  0.15380000  1.0 -0.5541720447
O  O24  1  0.58040000  0.62840000  0.41510000  1.0 -0.423959965
O  O25  1  0.72540000  0.90400000  0.07210000  1.0 -0.2806603691
O  O26  1  0.72320000  0.75850000  0.41800000  1.0 -0.2299900784
O  O27  1  0.64000000  0.69310000  0.38360000  1.0 -0.1716632521
O  O28  1  0.62350000  0.70390000  0.41010000  1.0 -0.1952743408
O  O29  1  0.16900000  0.42440000  0.08080000  1.0 -0.50329136
O  O30  1  0.13780000  0.36200000  0.15380000  1.0 -0.5554950691
O  O31  1  0.04800000  0.41960000  0.41510000  1.0 -0.423959965
O  O32  1  0.17860000  0.27460000  0.07210000  1.0 -0.2806603691
O  O33  1  0.03530000  0.27680000  0.41800000  1.0 -0.2299900784
O  O34  1  0.05310000  0.36000000  0.38360000  1.0 -0.1716632521
O  O35  1  0.08040000  0.37650000  0.41010000  1.0 -0.1952743408
O  O36  1  0.25540000  0.83100000  0.08080000  1.0 -0.50329136
O  O37  1  0.22420000  0.86220000  0.15380000  1.0 -0.5554950691
O  O38  1  0.37160000  0.95200000  0.41510000  1.0 -0.423959965
O  O39  1  0.09600000  0.82140000  0.07210000  1.0 -0.2865990557
O  O40  1  0.24150000  0.96470000  0.41800000  1.0 -0.2299900784
O  O41  1  0.30690000  0.94690000  0.38360000  1.0 -0.1716632521
O  O42  1  0.29610000  0.91960000  0.41010000  1.0 -0.1952743408
O  O43  1  0.16900000  0.74460000  0.91920000  1.0 -0.50329136
O  O44  1  0.13780000  0.77580000  0.84620000  1.0 -0.5541720447
O  O45  1  0.04800000  0.62840000  0.58490000  1.0 -0.423959965
O  O46  1  0.17860000  0.90400000  0.92790000  1.0 -0.2806603691
O  O47  1  0.03530000  0.75850000  0.58200000  1.0 -0.2299900784
O  O48  1  0.05310000  0.69310000  0.61640000  1.0 -0.1716632521
O  O49  1  0.08040000  0.70390000  0.58990000  1.0 -0.1926220911
O  O50  1  0.25540000  0.42440000  0.91920000  1.0 -0.50329136
O  O51  1  0.22420000  0.36200000  0.84620000  1.0 -0.5554950691
O  O52  1  0.37160000  0.41960000  0.58490000  1.0 -0.423959965
O  O53  1  0.09600000  0.27460000  0.92790000  1.0 -0.2806603691
O  O54  1  0.24150000  0.27680000  0.58200000  1.0 -0.2299900784
O  O55  1  0.30690000  0.36000000  0.61640000  1.0 -0.1716632521
O  O56  1  0.29610000  0.37650000  0.58990000  1.0 -0.1952743408
O  O57  1  0.57560000  0.83100000  0.91920000  1.0 -0.50329136
O  O58  1  0.63800000  0.86220000  0.84620000  1.0 -0.5541720447
O  O59  1  0.58040000  0.95200000  0.58490000  1.0 -0.423959965
O  O60  1  0.72540000  0.82140000  0.92790000  1.0 -0.2806603691
O  O61  1  0.72320000  0.96470000  0.58200000  1.0 -0.2175343718
O  O62  1  0.64000000  0.94690000  0.61640000  1.0 -0.1716632521
O  O63  1  0.62350000  0.91960000  0.58990000  1.0 -0.1952743408
O  O64  1  0.83100000  0.25540000  0.91920000  1.0 -0.5053226607
O  O65  1  0.86220000  0.22420000  0.84620000  1.0 -0.5541720447
O  O66  1  0.95200000  0.37160000  0.58490000  1.0 -0.423959965
O  O67  1  0.82140000  0.09600000  0.92790000  1.0 -0.2865990557
O  O68  1  0.96470000  0.24150000  0.58200000  1.0 -0.2299900784
O  O69  1  0.94690000  0.30690000  0.61640000  1.0 -0.1716632521
O  O70  1  0.91960000  0.29610000  0.58990000  1.0 -0.1952743408
O  O71  1  0.74460000  0.57560000  0.91920000  1.0 -0.50329136
O  O72  1  0.77580000  0.63800000  0.84620000  1.0 -0.5541720447
O  O73  1  0.62840000  0.58040000  0.58490000  1.0 -0.423959965
O  O74  1  0.90400000  0.72540000  0.92790000  1.0 -0.2806603691
O  O75  1  0.75850000  0.72320000  0.58200000  1.0 -0.2299900784
O  O76  1  0.69310000  0.64000000  0.61640000  1.0 -0.1716632521
O  O77  1  0.70390000  0.62350000  0.58990000  1.0 -0.1926220911
O  O78  1  0.42440000  0.16900000  0.91920000  1.0 -0.50329136
O  O79  1  0.36200000  0.13780000  0.84620000  1.0 -0.5541720447
O  O80  1  0.41960000  0.04800000  0.58490000  1.0 -0.423959965
O  O81  1  0.27460000  0.17860000  0.92790000  1.0 -0.2806603691
O  O82  1  0.27680000  0.03530000  0.58200000  1.0 -0.2299900784
O  O83  1  0.36000000  0.05310000  0.61640000  1.0 -0.1716632521
O  O84  1  0.37650000  0.08040000  0.58990000  1.0 -0.1926220911
O  O85  1  0.57560000  0.74460000  0.91920000  1.0 -0.50329136
O  O86  1  0.63800000  0.77580000  0.84620000  1.0 -0.5541720447
O  O87  1  0.58040000  0.62840000  0.58490000  1.0 -0.423959965
O  O88  1  0.72540000  0.90400000  0.92790000  1.0 -0.2865990557
O  O89  1  0.72320000  0.75850000  0.58200000  1.0 -0.2299900784
O  O90  1  0.64000000  0.69310000  0.61640000  1.0 -0.1716632521
O  O91  1  0.62350000  0.70390000  0.58990000  1.0 -0.1926220911
O  O92  1  0.16900000  0.42440000  0.91920000  1.0 -0.50329136
O  O93  1  0.13780000  0.36200000  0.84620000  1.0 -0.5554950691
O  O94  1  0.04800000  0.41960000  0.58490000  1.0 -0.423959965
O  O95  1  0.17860000  0.27460000  0.92790000  1.0 -0.2806603691
O  O96  1  0.03530000  0.27680000  0.58200000  1.0 -0.2299900784
O  O97  1  0.05310000  0.36000000  0.61640000  1.0 -0.1716632521
O  O98  1  0.08040000  0.37650000  0.58990000  1.0 -0.1952743408
O  O99  1  0.25540000  0.83100000  0.91920000  1.0 -0.50329136
O  O100  1  0.22420000  0.86220000  0.84620000  1.0 -0.5541720447
O  O101  1  0.37160000  0.95200000  0.58490000  1.0 -0.423959965
O  O102  1  0.09600000  0.82140000  0.92790000  1.0 -0.2806603691
O  O103  1  0.24150000  0.96470000  0.58200000  1.0 -0.2299900784
O  O104  1  0.30690000  0.94690000  0.61640000  1.0 -0.1716632521
O  O105  1  0.29610000  0.91960000  0.58990000  1.0 -0.1952743408
O  O106  1  0.42440000  0.25540000  0.91920000  1.0 -0.50329136
O  O107  1  0.36200000  0.22420000  0.84620000  1.0 -0.5541720447
O  O108  1  0.41960000  0.37160000  0.58490000  1.0 -0.423959965
O  O109  1  0.27460000  0.09600000  0.92790000  1.0 -0.2865990557
O  O110  1  0.27680000  0.24150000  0.58200000  1.0 -0.2299900784
O  O111  1  0.36000000  0.30690000  0.61640000  1.0 -0.1716632521
O  O112  1  0.37650000  0.29610000  0.58990000  1.0 -0.1926220911
O  O113  1  0.83100000  0.57560000  0.91920000  1.0 -0.50329136
O  O114  1  0.86220000  0.63800000  0.84620000  1.0 -0.5541720447
O  O115  1  0.95200000  0.58040000  0.58490000  1.0 -0.423959965
O  O116  1  0.82140000  0.72540000  0.92790000  1.0 -0.2806603691
O  O117  1  0.96470000  0.72320000  0.58200000  1.0 -0.2299900784
O  O118  1  0.94690000  0.64000000  0.61640000  1.0 -0.1716632521
O  O119  1  0.91960000  0.62350000  0.58990000  1.0 -0.1926220911
O  O120  1  0.74460000  0.16900000  0.91920000  1.0 -0.5053226607
O  O121  1  0.77580000  0.13780000  0.84620000  1.0 -0.5541720447
O  O122  1  0.62840000  0.04800000  0.58490000  1.0 -0.423959965
O  O123  1  0.90400000  0.17860000  0.92790000  1.0 -0.2806603691
O  O124  1  0.75850000  0.03530000  0.58200000  1.0 -0.2299900784
O  O125  1  0.69310000  0.05310000  0.61640000  1.0 -0.1716632521
O  O126  1  0.70390000  0.08040000  0.58990000  1.0 -0.1926220911
O  O127  1  0.83100000  0.25540000  0.08080000  1.0 -0.5053226607
O  O128  1  0.86220000  0.22420000  0.15380000  1.0 -0.5554950691
O  O129  1  0.95200000  0.37160000  0.41510000  1.0 -0.423959965
O  O130  1  0.82140000  0.09600000  0.07210000  1.0 -0.273127641
O  O131  1  0.96470000  0.24150000  0.41800000  1.0 -0.2299900784
O  O132  1  0.94690000  0.30690000  0.38360000  1.0 -0.1716632521
O  O133  1  0.91960000  0.29610000  0.41010000  1.0 -0.1926220911
O  O134  1  0.74460000  0.57560000  0.08080000  1.0 -0.50329136
O  O135  1  0.77580000  0.63800000  0.15380000  1.0 -0.5541720447
O  O136  1  0.62840000  0.58040000  0.41510000  1.0 -0.423959965
O  O137  1  0.90400000  0.72540000  0.07210000  1.0 -0.2806603691
O  O138  1  0.75850000  0.72320000  0.41800000  1.0 -0.2299900784
O  O139  1  0.69310000  0.64000000  0.38360000  1.0 -0.1716632521
O  O140  1  0.70390000  0.62350000  0.41010000  1.0 -0.1952743408
O  O141  1  0.42440000  0.16900000  0.08080000  1.0 -0.50329136
O  O142  1  0.36200000  0.13780000  0.15380000  1.0 -0.5554950691
O  O143  1  0.41960000  0.04800000  0.41510000  1.0 -0.423959965
O  O144  1  0.27460000  0.17860000  0.07210000  1.0 -0.2806603691
O  O145  1  0.27680000  0.03530000  0.41800000  1.0 -0.2299900784
O  O146  1  0.36000000  0.05310000  0.38360000  1.0 -0.1716632521
O  O147  1  0.37650000  0.08040000  0.41010000  1.0 -0.1952743408
O  O148  1  0.16900000  0.74460000  0.08080000  1.0 -0.50329136
O  O149  1  0.13780000  0.77580000  0.15380000  1.0 -0.5554950691
O  O150  1  0.04800000  0.62840000  0.41510000  1.0 -0.423959965
O  O151  1  0.17860000  0.90400000  0.07210000  1.0 -0.2865990557
O  O152  1  0.03530000  0.75850000  0.41800000  1.0 -0.2299900784
O  O153  1  0.05310000  0.69310000  0.38360000  1.0 -0.1716632521
O  O154  1  0.08040000  0.70390000  0.41010000  1.0 -0.1952743408
O  O155  1  0.25540000  0.42440000  0.08080000  1.0 -0.50329136
O  O156  1  0.22420000  0.36200000  0.15380000  1.0 -0.5554950691
O  O157  1  0.37160000  0.41960000  0.41510000  1.0 -0.423959965
O  O158  1  0.09600000  0.27460000  0.07210000  1.0 -0.2806603691
O  O159  1  0.24150000  0.27680000  0.41800000  1.0 -0.2299900784
O  O160  1  0.30690000  0.36000000  0.38360000  1.0 -0.1716632521
O  O161  1  0.29610000  0.37650000  0.41010000  1.0 -0.1952743408
O  O162  1  0.57560000  0.83100000  0.08080000  1.0 -0.50329136
O  O163  1  0.63800000  0.86220000  0.15380000  1.0 -0.5541720447
O  O164  1  0.58040000  0.95200000  0.41510000  1.0 -0.423959965
O  O165  1  0.72540000  0.82140000  0.07210000  1.0 -0.2865990557
O  O166  1  0.72320000  0.96470000  0.41800000  1.0 -0.2175343718
O  O167  1  0.64000000  0.94690000  0.38360000  1.0 -0.1716632521
O  O168  1  0.62350000  0.91960000  0.41010000  1.0 -0.1952743408
O  O169  1  0.42700000  0.35780000  0.00000000  1.0 -0.1424206838
O  O170  1  0.93080000  0.57300000  0.00000000  1.0 -0.1424206838
O  O171  1  0.64220000  0.06920000  0.00000000  1.0 -0.1424206838
O  O172  1  0.57300000  0.64220000  0.00000000  1.0 -0.1424206838
O  O173  1  0.06920000  0.42700000  0.00000000  1.0 -0.1424206838
O  O174  1  0.35780000  0.93080000  0.00000000  1.0 -0.1424206838
O  O175  1  0.06920000  0.64220000  0.00000000  1.0 -0.1424206838
O  O176  1  0.35780000  0.42700000  0.00000000  1.0 -0.1424206838
O  O177  1  0.57300000  0.93080000  0.00000000  1.0 -0.1424206838
O  O178  1  0.93080000  0.35780000  0.00000000  1.0 -0.1424206838
O  O179  1  0.64220000  0.57300000  0.00000000  1.0 -0.1424206838
O  O180  1  0.42700000  0.06920000  0.00000000  1.0 -0.1424206838
O  O181  1  0.34910000  0.17455000  0.00000000  1.0 -0.9977895079
O  O182  1  0.49110000  0.24555000  0.00000000  1.0 -0.0891602012
O  O183  1  0.82545000  0.65090000  0.00000000  1.0 -0.9977895079
O  O184  1  0.75445000  0.50890000  0.00000000  1.0 -0.0891602012
O  O185  1  0.82545000  0.17455000  0.00000000  1.0 -0.9977895079
O  O186  1  0.75445000  0.24555000  0.00000000  1.0 -0.0891602012
O  O187  1  0.65090000  0.82545000  0.00000000  1.0 -0.9977895079
O  O188  1  0.50890000  0.75445000  0.00000000  1.0 -0.0891602012
O  O189  1  0.17455000  0.34910000  0.00000000  1.0 -0.9977895079
O  O190  1  0.24555000  0.49110000  0.00000000  1.0 -0.0762219941
O  O191  1  0.17455000  0.82545000  0.00000000  1.0 -0.9977895079
O  O192  1  0.24555000  0.75445000  0.00000000  1.0 -0.0891602012
O  O193  1  0.28300000  0.14150000  0.20600000  1.0 -0.4686022624
O  O194  1  0.85850000  0.71700000  0.20600000  1.0 -0.4758086758
O  O195  1  0.85850000  0.14150000  0.20600000  1.0 -0.4686022624
O  O196  1  0.71700000  0.85850000  0.20600000  1.0 -0.4686022624
O  O197  1  0.14150000  0.28300000  0.20600000  1.0 -0.4686022624
O  O198  1  0.14150000  0.85850000  0.20600000  1.0 -0.4686022624
O  O199  1  0.14150000  0.85850000  0.79400000  1.0 -0.4686022624
O  O200  1  0.14150000  0.28300000  0.79400000  1.0 -0.4686022624
O  O201  1  0.71700000  0.85850000  0.79400000  1.0 -0.4686022624
O  O202  1  0.85850000  0.14150000  0.79400000  1.0 -0.463685404
O  O203  1  0.85850000  0.71700000  0.79400000  1.0 -0.463685404
O  O204  1  0.28300000  0.14150000  0.79400000  1.0 -0.4686022624
O  O205  1  0.33070000  0.33070000  0.50000000  1.0 -0.737772085
O  O206  1  0.00000000  0.66930000  0.50000000  1.0 -0.737772085
O  O207  1  0.66930000  0.00000000  0.50000000  1.0 -0.737772085
O  O208  1  0.66930000  0.66930000  0.50000000  1.0 -0.7346166628
O  O209  1  0.00000000  0.33070000  0.50000000  1.0 -0.737772085
O  O210  1  0.33070000  0.00000000  0.50000000  1.0 -0.737772085
O  O211  1  0.33450000  0.21180000  0.50000000  1.0 -0.4323182426
O  O212  1  0.87730000  0.66550000  0.50000000  1.0 -0.4323182426
O  O213  1  0.78820000  0.12270000  0.50000000  1.0 -0.4357994454
O  O214  1  0.66550000  0.78820000  0.50000000  1.0 -0.4323182426
O  O215  1  0.12270000  0.33450000  0.50000000  1.0 -0.4323182426
O  O216  1  0.21180000  0.87730000  0.50000000  1.0 -0.4323182426
O  O217  1  0.12270000  0.78820000  0.50000000  1.0 -0.4323182426
O  O218  1  0.21180000  0.33450000  0.50000000  1.0 -0.4323182426
O  O219  1  0.66550000  0.87730000  0.50000000  1.0 -0.4357994454
O  O220  1  0.87730000  0.21180000  0.50000000  1.0 -0.4323182426
O  O221  1  0.78820000  0.66550000  0.50000000  1.0 -0.4323182426
O  O222  1  0.33450000  0.12270000  0.50000000  1.0 -0.4323182426
