# DDEC6 charges by PACMAN v1.1 (https://github.com/mtap-research/PACMAN-charge/)
data_AMOYEJ_ASR_pacman
_symmetry_space_group_name_H-M   'P 1'
_cell_length_a   33.75520000
_cell_length_b   33.75520000
_cell_length_c   17.40760000
_cell_angle_alpha   90.00000000
_cell_angle_beta   90.00000000
_cell_angle_gamma   120.00000000
_symmetry_Int_Tables_number   1
_chemical_formula_structural   Co9H54C74N17O46
_chemical_formula_sum   'Co54 H324 C444 N102 O276'
_cell_volume   17177.14182514
_cell_formula_units_Z   6
loop_
 _symmetry_equiv_pos_site_id
 _symmetry_equiv_pos_as_xyz
  1  'x, y, z'
loop_
 _atom_site_type_symbol
 _atom_site_label
 _atom_site_symmetry_multiplicity
 _atom_site_fract_x
 _atom_site_fract_y
 _atom_site_fract_z
 _atom_site_occupancy
 _atom_site_charge
Co  Co1  1  0.60561000  0.00000000  0.50000000  1.0 0.8478906004
Co  Co2  1  0.39439000  0.39439000  0.50000000  1.0 0.8478906004
Co  Co3  1  0.00000000  0.60561000  0.50000000  1.0 0.8478906004
Co  Co4  1  0.39439000  0.00000000  0.50000000  1.0 0.8478906004
Co  Co5  1  0.60561000  0.60561000  0.50000000  1.0 0.8478906004
Co  Co6  1  0.00000000  0.39439000  0.50000000  1.0 0.8478906004
Co  Co7  1  0.72949000  0.06189000  0.50000000  1.0 0.513860014
Co  Co8  1  0.94110000  0.16590000  0.50000000  1.0 0.4928014596
Co  Co9  1  0.33240000  0.27051000  0.50000000  1.0 0.513860014
Co  Co10  1  0.22480000  0.05890000  0.50000000  1.0 0.4928014596
Co  Co11  1  0.93811000  0.66760000  0.50000000  1.0 0.513860014
Co  Co12  1  0.83410000  0.77520000  0.50000000  1.0 0.4965380757
Co  Co13  1  0.27051000  0.93811000  0.50000000  1.0 0.513860014
Co  Co14  1  0.05890000  0.83410000  0.50000000  1.0 0.4965380757
Co  Co15  1  0.66760000  0.72949000  0.50000000  1.0 0.513860014
Co  Co16  1  0.77520000  0.94110000  0.50000000  1.0 0.4965380757
Co  Co17  1  0.06189000  0.33240000  0.50000000  1.0 0.513860014
Co  Co18  1  0.16590000  0.22480000  0.50000000  1.0 0.4928014596
Co  Co19  1  0.66760000  0.93811000  0.50000000  1.0 0.5158873646
Co  Co20  1  0.77520000  0.83410000  0.50000000  1.0 0.4965380757
Co  Co21  1  0.06189000  0.72949000  0.50000000  1.0 0.513860014
Co  Co22  1  0.16590000  0.94110000  0.50000000  1.0 0.4928014596
Co  Co23  1  0.27051000  0.33240000  0.50000000  1.0 0.513860014
Co  Co24  1  0.05890000  0.22480000  0.50000000  1.0 0.4928014596
Co  Co25  1  0.33240000  0.06189000  0.50000000  1.0 0.513860014
Co  Co26  1  0.22480000  0.16590000  0.50000000  1.0 0.4928014596
Co  Co27  1  0.93811000  0.27051000  0.50000000  1.0 0.513860014
Co  Co28  1  0.83410000  0.05890000  0.50000000  1.0 0.4965380757
Co  Co29  1  0.72949000  0.66760000  0.50000000  1.0 0.5158873646
Co  Co30  1  0.94110000  0.77520000  0.50000000  1.0 0.4928014596
Co  Co31  1  0.79102000  0.20898000  0.00000000  1.0 1.0551976411
Co  Co32  1  0.41796000  0.20898000  0.00000000  1.0 1.0512059181
Co  Co33  1  0.79102000  0.58204000  0.00000000  1.0 1.0512059181
Co  Co34  1  0.20898000  0.79102000  0.00000000  1.0 1.0512059181
Co  Co35  1  0.58204000  0.79102000  0.00000000  1.0 1.0512059181
Co  Co36  1  0.20898000  0.41796000  0.00000000  1.0 1.0512059181
Co  Co37  1  0.83776000  0.16224000  0.89574000  1.0 0.7421988099
Co  Co38  1  0.32448000  0.16224000  0.89574000  1.0 0.7421988099
Co  Co39  1  0.83776000  0.67552000  0.89574000  1.0 0.7421988099
Co  Co40  1  0.16224000  0.83776000  0.89574000  1.0 0.7421988099
Co  Co41  1  0.67552000  0.83776000  0.89574000  1.0 0.7421988099
Co  Co42  1  0.16224000  0.32448000  0.89574000  1.0 0.7421988099
Co  Co43  1  0.67552000  0.83776000  0.10426000  1.0 0.7421988099
Co  Co44  1  0.16224000  0.83776000  0.10426000  1.0 0.7421988099
Co  Co45  1  0.16224000  0.32448000  0.10426000  1.0 0.7421988099
Co  Co46  1  0.32448000  0.16224000  0.10426000  1.0 0.7421988099
Co  Co47  1  0.83776000  0.16224000  0.10426000  1.0 0.7421988099
Co  Co48  1  0.83776000  0.67552000  0.10426000  1.0 0.7421988099
Co  Co49  1  0.00000000  0.10369000  0.50000000  1.0 0.6320382306
Co  Co50  1  0.10369000  0.00000000  0.50000000  1.0 0.6320382306
Co  Co51  1  0.89631000  0.89631000  0.50000000  1.0 0.6320382306
Co  Co52  1  0.00000000  0.89631000  0.50000000  1.0 0.6320382306
Co  Co53  1  0.89631000  0.00000000  0.50000000  1.0 0.6320382306
Co  Co54  1  0.10369000  0.10369000  0.50000000  1.0 0.6320382306
H  H1  1  0.68692000  0.03317000  0.58153000  1.0 0.2813470213
H  H2  1  0.72952000  0.10187000  0.72895000  1.0 0.0978030432
H  H3  1  0.60452000  0.08568000  0.68318000  1.0 0.1304778923
H  H4  1  0.67232000  0.15103000  0.87599000  1.0 0.1100421866
H  H5  1  0.79484000  0.13128000  0.38266000  1.0 0.0921290428
H  H6  1  0.51872000  0.00255000  0.67512000  1.0 0.1390174721
H  H7  1  0.56609000  0.02797000  0.64432000  1.0 0.2416370175
H  H8  1  0.89775000  0.12521000  0.73713000  1.0 0.1100421866
H  H9  1  0.85244000  0.01992000  0.88795000  1.0 0.0829043639
H  H10  1  0.90713000  0.01323000  0.68444000  1.0 0.0829043639
H  H11  1  0.76055000  0.09790000  0.36464000  1.0 0.2014355397
H  H12  1  0.78221000  0.14379000  0.32798000  1.0 0.1571053026
H  H13  1  0.61675000  0.16234000  0.90012000  1.0 0.2510625861
H  H14  1  0.34625000  0.31308000  0.58153000  1.0 0.2813470213
H  H15  1  0.37235000  0.27048000  0.72895000  1.0 0.0978030432
H  H16  1  0.48116000  0.39548000  0.68318000  1.0 0.1304778923
H  H17  1  0.47871000  0.32768000  0.87599000  1.0 0.1100421866
H  H18  1  0.33644000  0.20516000  0.38266000  1.0 0.0921290428
H  H19  1  0.48383000  0.48128000  0.67512000  1.0 0.1390174721
H  H20  1  0.46188000  0.43391000  0.64432000  1.0 0.2416370175
H  H21  1  0.22746000  0.10225000  0.73713000  1.0 0.1100421866
H  H22  1  0.16748000  0.14756000  0.88795000  1.0 0.0829043639
H  H23  1  0.10610000  0.09287000  0.68444000  1.0 0.0829043639
H  H24  1  0.33735000  0.23945000  0.36464000  1.0 0.2014355397
H  H25  1  0.36158000  0.21779000  0.32798000  1.0 0.154955238
H  H26  1  0.54559000  0.38325000  0.90012000  1.0 0.2416370175
H  H27  1  0.96683000  0.65375000  0.58153000  1.0 0.2813470213
H  H28  1  0.89813000  0.62765000  0.72895000  1.0 0.0978030432
H  H29  1  0.91432000  0.51884000  0.68318000  1.0 0.1304778923
H  H30  1  0.84897000  0.52129000  0.87599000  1.0 0.1100421866
H  H31  1  0.86872000  0.66356000  0.38266000  1.0 0.0921290428
H  H32  1  0.99745000  0.51617000  0.67512000  1.0 0.1390174721
H  H33  1  0.97203000  0.53812000  0.64432000  1.0 0.2416370175
H  H34  1  0.87479000  0.77254000  0.73713000  1.0 0.1100421866
H  H35  1  0.98008000  0.83252000  0.88795000  1.0 0.0829043639
H  H36  1  0.98677000  0.89390000  0.68444000  1.0 0.0829043639
H  H37  1  0.90210000  0.66265000  0.36464000  1.0 0.2014355397
H  H38  1  0.85621000  0.63842000  0.32798000  1.0 0.1571053026
H  H39  1  0.83766000  0.45441000  0.90012000  1.0 0.2416370175
H  H40  1  0.31308000  0.96683000  0.58153000  1.0 0.2813470213
H  H41  1  0.27048000  0.89813000  0.72895000  1.0 0.0978030432
H  H42  1  0.39548000  0.91432000  0.68318000  1.0 0.1304778923
H  H43  1  0.32768000  0.84897000  0.87599000  1.0 0.1100421866
H  H44  1  0.20516000  0.86872000  0.38266000  1.0 0.0921290428
H  H45  1  0.48128000  0.99745000  0.67512000  1.0 0.1390174721
H  H46  1  0.43391000  0.97203000  0.64432000  1.0 0.2416370175
H  H47  1  0.10225000  0.87479000  0.73713000  1.0 0.1100421866
H  H48  1  0.14756000  0.98008000  0.88795000  1.0 0.0829043639
H  H49  1  0.09287000  0.98677000  0.68444000  1.0 0.0829043639
H  H50  1  0.23945000  0.90210000  0.36464000  1.0 0.2014355397
H  H51  1  0.21779000  0.85621000  0.32798000  1.0 0.1571053026
H  H52  1  0.38325000  0.83766000  0.90012000  1.0 0.2416370175
H  H53  1  0.65375000  0.68692000  0.58153000  1.0 0.2813470213
H  H54  1  0.62765000  0.72952000  0.72895000  1.0 0.0978030432
H  H55  1  0.51884000  0.60452000  0.68318000  1.0 0.1304778923
H  H56  1  0.52129000  0.67232000  0.87599000  1.0 0.1100421866
H  H57  1  0.66356000  0.79484000  0.38266000  1.0 0.0921290428
H  H58  1  0.51617000  0.51872000  0.67512000  1.0 0.1390174721
H  H59  1  0.53812000  0.56609000  0.64432000  1.0 0.2416370175
H  H60  1  0.77254000  0.89775000  0.73713000  1.0 0.1100421866
H  H61  1  0.83252000  0.85244000  0.88795000  1.0 0.0829043639
H  H62  1  0.89390000  0.90713000  0.68444000  1.0 0.0829043639
H  H63  1  0.66265000  0.76055000  0.36464000  1.0 0.2014355397
H  H64  1  0.63842000  0.78221000  0.32798000  1.0 0.1571053026
H  H65  1  0.45441000  0.61675000  0.90012000  1.0 0.2416370175
H  H66  1  0.03317000  0.34625000  0.58153000  1.0 0.2813470213
H  H67  1  0.10187000  0.37235000  0.72895000  1.0 0.0978030432
H  H68  1  0.08568000  0.48116000  0.68318000  1.0 0.1304778923
H  H69  1  0.15103000  0.47871000  0.87599000  1.0 0.1100421866
H  H70  1  0.13128000  0.33644000  0.38266000  1.0 0.0921290428
H  H71  1  0.00255000  0.48383000  0.67512000  1.0 0.1390174721
H  H72  1  0.02797000  0.46188000  0.64432000  1.0 0.2416370175
H  H73  1  0.12521000  0.22746000  0.73713000  1.0 0.1100421866
H  H74  1  0.01992000  0.16748000  0.88795000  1.0 0.0829043639
H  H75  1  0.01323000  0.10610000  0.68444000  1.0 0.0829043639
H  H76  1  0.09790000  0.33735000  0.36464000  1.0 0.2014355397
H  H77  1  0.14379000  0.36158000  0.32798000  1.0 0.1571053026
H  H78  1  0.16234000  0.54559000  0.90012000  1.0 0.2416370175
H  H79  1  0.65375000  0.96683000  0.41847000  1.0 0.2813470213
H  H80  1  0.62765000  0.89813000  0.27105000  1.0 0.0978030432
H  H81  1  0.51884000  0.91432000  0.31682000  1.0 0.1304778923
H  H82  1  0.52129000  0.84897000  0.12401000  1.0 0.1100421866
H  H83  1  0.66356000  0.86872000  0.61734000  1.0 0.0921290428
H  H84  1  0.51617000  0.99745000  0.32488000  1.0 0.1390174721
H  H85  1  0.53812000  0.97203000  0.35568000  1.0 0.2416370175
H  H86  1  0.77254000  0.87479000  0.26287000  1.0 0.1100421866
H  H87  1  0.83252000  0.98008000  0.11205000  1.0 0.0829043639
H  H88  1  0.89390000  0.98677000  0.31556000  1.0 0.0829043639
H  H89  1  0.66265000  0.90210000  0.63536000  1.0 0.2014355397
H  H90  1  0.63842000  0.85621000  0.67202000  1.0 0.1571053026
H  H91  1  0.45441000  0.83766000  0.09988000  1.0 0.2416370175
H  H92  1  0.03317000  0.68692000  0.41847000  1.0 0.2813470213
H  H93  1  0.10187000  0.72952000  0.27105000  1.0 0.0978030432
H  H94  1  0.08568000  0.60452000  0.31682000  1.0 0.1304778923
H  H95  1  0.15103000  0.67232000  0.12401000  1.0 0.1100421866
H  H96  1  0.13128000  0.79484000  0.61734000  1.0 0.0921290428
H  H97  1  0.00255000  0.51872000  0.32488000  1.0 0.1390174721
H  H98  1  0.02797000  0.56609000  0.35568000  1.0 0.2416370175
H  H99  1  0.12521000  0.89775000  0.26287000  1.0 0.1100421866
H  H100  1  0.01992000  0.85244000  0.11205000  1.0 0.0829043639
H  H101  1  0.01323000  0.90713000  0.31556000  1.0 0.0829043639
H  H102  1  0.09790000  0.76055000  0.63536000  1.0 0.2014355397
H  H103  1  0.14379000  0.78221000  0.67202000  1.0 0.1571053026
H  H104  1  0.16234000  0.61675000  0.09988000  1.0 0.2416370175
H  H105  1  0.31308000  0.34625000  0.41847000  1.0 0.2813470213
H  H106  1  0.27048000  0.37235000  0.27105000  1.0 0.0978030432
H  H107  1  0.39548000  0.48116000  0.31682000  1.0 0.1304778923
H  H108  1  0.32768000  0.47871000  0.12401000  1.0 0.1100421866
H  H109  1  0.20516000  0.33644000  0.61734000  1.0 0.0921290428
H  H110  1  0.48128000  0.48383000  0.32488000  1.0 0.1390174721
H  H111  1  0.43391000  0.46188000  0.35568000  1.0 0.2416370175
H  H112  1  0.10225000  0.22746000  0.26287000  1.0 0.1100421866
H  H113  1  0.14756000  0.16748000  0.11205000  1.0 0.0829043639
H  H114  1  0.09287000  0.10610000  0.31556000  1.0 0.0829043639
H  H115  1  0.23945000  0.33735000  0.63536000  1.0 0.2014355397
H  H116  1  0.21779000  0.36158000  0.67202000  1.0 0.1571053026
H  H117  1  0.38325000  0.54559000  0.09988000  1.0 0.2416370175
H  H118  1  0.34625000  0.03317000  0.41847000  1.0 0.2813470213
H  H119  1  0.37235000  0.10187000  0.27105000  1.0 0.0978030432
H  H120  1  0.48116000  0.08568000  0.31682000  1.0 0.1304778923
H  H121  1  0.47871000  0.15103000  0.12401000  1.0 0.1100421866
H  H122  1  0.33644000  0.13128000  0.61734000  1.0 0.0921290428
H  H123  1  0.48383000  0.00255000  0.32488000  1.0 0.1390174721
H  H124  1  0.46188000  0.02797000  0.35568000  1.0 0.2416370175
H  H125  1  0.22746000  0.12521000  0.26287000  1.0 0.1100421866
H  H126  1  0.16748000  0.01992000  0.11205000  1.0 0.0829043639
H  H127  1  0.10610000  0.01323000  0.31556000  1.0 0.0829043639
H  H128  1  0.33735000  0.09790000  0.63536000  1.0 0.2014355397
H  H129  1  0.36158000  0.14379000  0.67202000  1.0 0.1571053026
H  H130  1  0.54559000  0.16234000  0.09988000  1.0 0.2510625861
H  H131  1  0.96683000  0.31308000  0.41847000  1.0 0.2813470213
H  H132  1  0.89813000  0.27048000  0.27105000  1.0 0.0978030432
H  H133  1  0.91432000  0.39548000  0.31682000  1.0 0.1304778923
H  H134  1  0.84897000  0.32768000  0.12401000  1.0 0.1100421866
H  H135  1  0.86872000  0.20516000  0.61734000  1.0 0.0921290428
H  H136  1  0.99745000  0.48128000  0.32488000  1.0 0.1390174721
H  H137  1  0.97203000  0.43391000  0.35568000  1.0 0.2416370175
H  H138  1  0.87479000  0.10225000  0.26287000  1.0 0.1100421866
H  H139  1  0.98008000  0.14756000  0.11205000  1.0 0.0829043639
H  H140  1  0.98677000  0.09287000  0.31556000  1.0 0.0829043639
H  H141  1  0.90210000  0.23945000  0.63536000  1.0 0.2014355397
H  H142  1  0.85621000  0.21779000  0.67202000  1.0 0.1571053026
H  H143  1  0.83766000  0.38325000  0.09988000  1.0 0.2416370175
H  H144  1  0.68692000  0.65375000  0.41847000  1.0 0.2813470213
H  H145  1  0.72952000  0.62765000  0.27105000  1.0 0.0978030432
H  H146  1  0.60452000  0.51884000  0.31682000  1.0 0.1304778923
H  H147  1  0.67232000  0.52129000  0.12401000  1.0 0.1100421866
H  H148  1  0.79484000  0.66356000  0.61734000  1.0 0.0921290428
H  H149  1  0.51872000  0.51617000  0.32488000  1.0 0.1390174721
H  H150  1  0.56609000  0.53812000  0.35568000  1.0 0.2416370175
H  H151  1  0.89775000  0.77254000  0.26287000  1.0 0.1100421866
H  H152  1  0.85244000  0.83252000  0.11205000  1.0 0.0829043639
H  H153  1  0.90713000  0.89390000  0.31556000  1.0 0.0829043639
H  H154  1  0.76055000  0.66265000  0.63536000  1.0 0.2014355397
H  H155  1  0.78221000  0.63842000  0.67202000  1.0 0.1571053026
H  H156  1  0.61675000  0.45441000  0.09988000  1.0 0.2416370175
H  H157  1  0.31308000  0.96683000  0.41847000  1.0 0.2813470213
H  H158  1  0.27048000  0.89813000  0.27105000  1.0 0.0978030432
H  H159  1  0.39548000  0.91432000  0.31682000  1.0 0.1304778923
H  H160  1  0.32768000  0.84897000  0.12401000  1.0 0.1100421866
H  H161  1  0.20516000  0.86872000  0.61734000  1.0 0.0921290428
H  H162  1  0.48128000  0.99745000  0.32488000  1.0 0.1390174721
H  H163  1  0.43391000  0.97203000  0.35568000  1.0 0.2416370175
H  H164  1  0.10225000  0.87479000  0.26287000  1.0 0.1100421866
H  H165  1  0.14756000  0.98008000  0.11205000  1.0 0.0829043639
H  H166  1  0.09287000  0.98677000  0.31556000  1.0 0.0829043639
H  H167  1  0.23945000  0.90210000  0.63536000  1.0 0.2014355397
H  H168  1  0.21779000  0.85621000  0.67202000  1.0 0.1571053026
H  H169  1  0.38325000  0.83766000  0.09988000  1.0 0.2416370175
H  H170  1  0.65375000  0.68692000  0.41847000  1.0 0.2813470213
H  H171  1  0.62765000  0.72952000  0.27105000  1.0 0.0978030432
H  H172  1  0.51884000  0.60452000  0.31682000  1.0 0.1304778923
H  H173  1  0.52129000  0.67232000  0.12401000  1.0 0.1100421866
H  H174  1  0.66356000  0.79484000  0.61734000  1.0 0.0921290428
H  H175  1  0.51617000  0.51872000  0.32488000  1.0 0.1390174721
H  H176  1  0.53812000  0.56609000  0.35568000  1.0 0.2416370175
H  H177  1  0.77254000  0.89775000  0.26287000  1.0 0.1100421866
H  H178  1  0.83252000  0.85244000  0.11205000  1.0 0.0829043639
H  H179  1  0.89390000  0.90713000  0.31556000  1.0 0.0829043639
H  H180  1  0.66265000  0.76055000  0.63536000  1.0 0.2014355397
H  H181  1  0.63842000  0.78221000  0.67202000  1.0 0.1571053026
H  H182  1  0.45441000  0.61675000  0.09988000  1.0 0.2416370175
H  H183  1  0.03317000  0.34625000  0.41847000  1.0 0.2813470213
H  H184  1  0.10187000  0.37235000  0.27105000  1.0 0.0978030432
H  H185  1  0.08568000  0.48116000  0.31682000  1.0 0.1304778923
H  H186  1  0.15103000  0.47871000  0.12401000  1.0 0.1100421866
H  H187  1  0.13128000  0.33644000  0.61734000  1.0 0.0921290428
H  H188  1  0.00255000  0.48383000  0.32488000  1.0 0.1390174721
H  H189  1  0.02797000  0.46188000  0.35568000  1.0 0.2416370175
H  H190  1  0.12521000  0.22746000  0.26287000  1.0 0.1100421866
H  H191  1  0.01992000  0.16748000  0.11205000  1.0 0.0829043639
H  H192  1  0.01323000  0.10610000  0.31556000  1.0 0.0829043639
H  H193  1  0.09790000  0.33735000  0.63536000  1.0 0.2014355397
H  H194  1  0.14379000  0.36158000  0.67202000  1.0 0.1571053026
H  H195  1  0.16234000  0.54559000  0.09988000  1.0 0.2416370175
H  H196  1  0.68692000  0.03317000  0.41847000  1.0 0.2813470213
H  H197  1  0.72952000  0.10187000  0.27105000  1.0 0.0978030432
H  H198  1  0.60452000  0.08568000  0.31682000  1.0 0.1304778923
H  H199  1  0.67232000  0.15103000  0.12401000  1.0 0.1100421866
H  H200  1  0.79484000  0.13128000  0.61734000  1.0 0.0921290428
H  H201  1  0.51872000  0.00255000  0.32488000  1.0 0.1390174721
H  H202  1  0.56609000  0.02797000  0.35568000  1.0 0.2416370175
H  H203  1  0.89775000  0.12521000  0.26287000  1.0 0.1100421866
H  H204  1  0.85244000  0.01992000  0.11205000  1.0 0.0829043639
H  H205  1  0.90713000  0.01323000  0.31556000  1.0 0.0829043639
H  H206  1  0.76055000  0.09790000  0.63536000  1.0 0.2014355397
H  H207  1  0.78221000  0.14379000  0.67202000  1.0 0.1571053026
H  H208  1  0.61675000  0.16234000  0.09988000  1.0 0.2510625861
H  H209  1  0.34625000  0.31308000  0.41847000  1.0 0.2813470213
H  H210  1  0.37235000  0.27048000  0.27105000  1.0 0.0978030432
H  H211  1  0.48116000  0.39548000  0.31682000  1.0 0.1304778923
H  H212  1  0.47871000  0.32768000  0.12401000  1.0 0.1100421866
H  H213  1  0.33644000  0.20516000  0.61734000  1.0 0.0921290428
H  H214  1  0.48383000  0.48128000  0.32488000  1.0 0.1390174721
H  H215  1  0.46188000  0.43391000  0.35568000  1.0 0.2416370175
H  H216  1  0.22746000  0.10225000  0.26287000  1.0 0.1100421866
H  H217  1  0.16748000  0.14756000  0.11205000  1.0 0.0829043639
H  H218  1  0.10610000  0.09287000  0.31556000  1.0 0.0829043639
H  H219  1  0.33735000  0.23945000  0.63536000  1.0 0.2014355397
H  H220  1  0.36158000  0.21779000  0.67202000  1.0 0.154955238
H  H221  1  0.54559000  0.38325000  0.09988000  1.0 0.2416370175
H  H222  1  0.96683000  0.65375000  0.41847000  1.0 0.2813470213
H  H223  1  0.89813000  0.62765000  0.27105000  1.0 0.0978030432
H  H224  1  0.91432000  0.51884000  0.31682000  1.0 0.1304778923
H  H225  1  0.84897000  0.52129000  0.12401000  1.0 0.1100421866
H  H226  1  0.86872000  0.66356000  0.61734000  1.0 0.0921290428
H  H227  1  0.99745000  0.51617000  0.32488000  1.0 0.1390174721
H  H228  1  0.97203000  0.53812000  0.35568000  1.0 0.2416370175
H  H229  1  0.87479000  0.77254000  0.26287000  1.0 0.1100421866
H  H230  1  0.98008000  0.83252000  0.11205000  1.0 0.0829043639
H  H231  1  0.98677000  0.89390000  0.31556000  1.0 0.0829043639
H  H232  1  0.90210000  0.66265000  0.63536000  1.0 0.2014355397
H  H233  1  0.85621000  0.63842000  0.67202000  1.0 0.1571053026
H  H234  1  0.83766000  0.45441000  0.09988000  1.0 0.2416370175
H  H235  1  0.34625000  0.03317000  0.58153000  1.0 0.2813470213
H  H236  1  0.37235000  0.10187000  0.72895000  1.0 0.0978030432
H  H237  1  0.48116000  0.08568000  0.68318000  1.0 0.1304778923
H  H238  1  0.47871000  0.15103000  0.87599000  1.0 0.1100421866
H  H239  1  0.33644000  0.13128000  0.38266000  1.0 0.0921290428
H  H240  1  0.48383000  0.00255000  0.67512000  1.0 0.1390174721
H  H241  1  0.46188000  0.02797000  0.64432000  1.0 0.2416370175
H  H242  1  0.22746000  0.12521000  0.73713000  1.0 0.1100421866
H  H243  1  0.16748000  0.01992000  0.88795000  1.0 0.0829043639
H  H244  1  0.10610000  0.01323000  0.68444000  1.0 0.0829043639
H  H245  1  0.33735000  0.09790000  0.36464000  1.0 0.2014355397
H  H246  1  0.36158000  0.14379000  0.32798000  1.0 0.1571053026
H  H247  1  0.54559000  0.16234000  0.90012000  1.0 0.2510625861
H  H248  1  0.96683000  0.31308000  0.58153000  1.0 0.2813470213
H  H249  1  0.89813000  0.27048000  0.72895000  1.0 0.0978030432
H  H250  1  0.91432000  0.39548000  0.68318000  1.0 0.1304778923
H  H251  1  0.84897000  0.32768000  0.87599000  1.0 0.1100421866
H  H252  1  0.86872000  0.20516000  0.38266000  1.0 0.0921290428
H  H253  1  0.99745000  0.48128000  0.67512000  1.0 0.1390174721
H  H254  1  0.97203000  0.43391000  0.64432000  1.0 0.2416370175
H  H255  1  0.87479000  0.10225000  0.73713000  1.0 0.1100421866
H  H256  1  0.98008000  0.14756000  0.88795000  1.0 0.0829043639
H  H257  1  0.98677000  0.09287000  0.68444000  1.0 0.0829043639
H  H258  1  0.90210000  0.23945000  0.36464000  1.0 0.2014355397
H  H259  1  0.85621000  0.21779000  0.32798000  1.0 0.154955238
H  H260  1  0.83766000  0.38325000  0.90012000  1.0 0.2416370175
H  H261  1  0.68692000  0.65375000  0.58153000  1.0 0.2813470213
H  H262  1  0.72952000  0.62765000  0.72895000  1.0 0.0978030432
H  H263  1  0.60452000  0.51884000  0.68318000  1.0 0.1304778923
H  H264  1  0.67232000  0.52129000  0.87599000  1.0 0.1100421866
H  H265  1  0.79484000  0.66356000  0.38266000  1.0 0.0921290428
H  H266  1  0.51872000  0.51617000  0.67512000  1.0 0.1390174721
H  H267  1  0.56609000  0.53812000  0.64432000  1.0 0.2416370175
H  H268  1  0.89775000  0.77254000  0.73713000  1.0 0.1100421866
H  H269  1  0.85244000  0.83252000  0.88795000  1.0 0.0829043639
H  H270  1  0.90713000  0.89390000  0.68444000  1.0 0.0829043639
H  H271  1  0.76055000  0.66265000  0.36464000  1.0 0.2014355397
H  H272  1  0.78221000  0.63842000  0.32798000  1.0 0.1571053026
H  H273  1  0.61675000  0.45441000  0.90012000  1.0 0.2416370175
H  H274  1  0.65375000  0.96683000  0.58153000  1.0 0.2813470213
H  H275  1  0.62765000  0.89813000  0.72895000  1.0 0.0978030432
H  H276  1  0.51884000  0.91432000  0.68318000  1.0 0.1304778923
H  H277  1  0.52129000  0.84897000  0.87599000  1.0 0.1100421866
H  H278  1  0.66356000  0.86872000  0.38266000  1.0 0.0921290428
H  H279  1  0.51617000  0.99745000  0.67512000  1.0 0.1390174721
H  H280  1  0.53812000  0.97203000  0.64432000  1.0 0.2416370175
H  H281  1  0.77254000  0.87479000  0.73713000  1.0 0.1100421866
H  H282  1  0.83252000  0.98008000  0.88795000  1.0 0.0829043639
H  H283  1  0.89390000  0.98677000  0.68444000  1.0 0.0829043639
H  H284  1  0.66265000  0.90210000  0.36464000  1.0 0.2014355397
H  H285  1  0.63842000  0.85621000  0.32798000  1.0 0.1571053026
H  H286  1  0.45441000  0.83766000  0.90012000  1.0 0.2416370175
H  H287  1  0.03317000  0.68692000  0.58153000  1.0 0.2813470213
H  H288  1  0.10187000  0.72952000  0.72895000  1.0 0.0978030432
H  H289  1  0.08568000  0.60452000  0.68318000  1.0 0.1304778923
H  H290  1  0.15103000  0.67232000  0.87599000  1.0 0.1100421866
H  H291  1  0.13128000  0.79484000  0.38266000  1.0 0.0921290428
H  H292  1  0.00255000  0.51872000  0.67512000  1.0 0.1390174721
H  H293  1  0.02797000  0.56609000  0.64432000  1.0 0.2416370175
H  H294  1  0.12521000  0.89775000  0.73713000  1.0 0.1100421866
H  H295  1  0.01992000  0.85244000  0.88795000  1.0 0.0829043639
H  H296  1  0.01323000  0.90713000  0.68444000  1.0 0.0829043639
H  H297  1  0.09790000  0.76055000  0.36464000  1.0 0.2014355397
H  H298  1  0.14379000  0.78221000  0.32798000  1.0 0.1571053026
H  H299  1  0.16234000  0.61675000  0.90012000  1.0 0.2416370175
H  H300  1  0.31308000  0.34625000  0.58153000  1.0 0.2813470213
H  H301  1  0.27048000  0.37235000  0.72895000  1.0 0.0978030432
H  H302  1  0.39548000  0.48116000  0.68318000  1.0 0.1304778923
H  H303  1  0.32768000  0.47871000  0.87599000  1.0 0.1100421866
H  H304  1  0.20516000  0.33644000  0.38266000  1.0 0.0921290428
H  H305  1  0.48128000  0.48383000  0.67512000  1.0 0.1390174721
H  H306  1  0.43391000  0.46188000  0.64432000  1.0 0.2416370175
H  H307  1  0.10225000  0.22746000  0.73713000  1.0 0.1100421866
H  H308  1  0.14756000  0.16748000  0.88795000  1.0 0.0829043639
H  H309  1  0.09287000  0.10610000  0.68444000  1.0 0.0829043639
H  H310  1  0.23945000  0.33735000  0.36464000  1.0 0.2014355397
H  H311  1  0.21779000  0.36158000  0.32798000  1.0 0.1571053026
H  H312  1  0.38325000  0.54559000  0.90012000  1.0 0.2416370175
H  H313  1  0.53401000  0.00000000  0.61281000  1.0 0.0714819604
H  H314  1  0.46599000  0.46599000  0.61281000  1.0 0.0714819604
H  H315  1  0.00000000  0.53401000  0.61281000  1.0 0.0714819604
H  H316  1  0.46599000  0.00000000  0.61281000  1.0 0.0714819604
H  H317  1  0.53401000  0.53401000  0.61281000  1.0 0.0714819604
H  H318  1  0.00000000  0.46599000  0.61281000  1.0 0.0714819604
H  H319  1  0.53401000  0.00000000  0.38719000  1.0 0.0714819604
H  H320  1  0.00000000  0.53401000  0.38719000  1.0 0.0714819604
H  H321  1  0.46599000  0.46599000  0.38719000  1.0 0.0714819604
H  H322  1  0.46599000  0.00000000  0.38719000  1.0 0.0714819604
H  H323  1  0.00000000  0.46599000  0.38719000  1.0 0.0714819604
H  H324  1  0.53401000  0.53401000  0.38719000  1.0 0.0714819604
C  C1  1  0.66540000  0.06620000  0.62160000  1.0 0.4776097982
C  C2  1  0.66680000  0.09100000  0.69460000  1.0 -0.0203704305
C  C3  1  0.80990000  0.14530000  0.42930000  1.0 0.1390174721
C  C4  1  0.70470000  0.10620000  0.74270000  1.0 -0.1493229285
C  C5  1  0.63070000  0.09720000  0.71540000  1.0 -0.1268177704
C  C6  1  0.70550000  0.12770000  0.81110000  1.0 -0.0077895114
C  C7  1  0.63220000  0.11990000  0.78280000  1.0 -0.0029757837
C  C8  1  0.74650000  0.14540000  0.86350000  1.0 0.5781412868
C  C9  1  0.67050000  0.13510000  0.82990000  1.0 -0.1667249551
C  C10  1  0.59430000  0.12650000  0.80560000  1.0 0.2553627341
C  C11  1  0.93230000  0.09590000  0.62990000  1.0 0.2510625861
C  C12  1  0.89290000  0.09580000  0.75040000  1.0 -0.0831088649
C  C13  1  0.87310000  0.07630000  0.82060000  1.0 -0.0203704305
C  C14  1  0.90560000  0.07230000  0.69970000  1.0 0.0216198604
C  C15  1  0.87870000  0.00980000  0.78930000  1.0 0.0978030432
C  C16  1  0.86600000  0.03330000  0.84000000  1.0 -0.1808861892
C  C17  1  0.89850000  0.02930000  0.71910000  1.0 -0.1493229285
C  C18  1  0.84770000  0.09360000  0.87700000  1.0 0.1230231367
C  C19  1  0.40080000  0.33460000  0.62160000  1.0 0.4776097982
C  C20  1  0.42420000  0.33320000  0.69460000  1.0 -0.0203704305
C  C21  1  0.33540000  0.19010000  0.42930000  1.0 0.1304778923
C  C22  1  0.40150000  0.29530000  0.74270000  1.0 -0.1493229285
C  C23  1  0.46650000  0.36930000  0.71540000  1.0 -0.1268177704
C  C24  1  0.42220000  0.29450000  0.81110000  1.0 -0.0077895114
C  C25  1  0.48770000  0.36780000  0.78280000  1.0 -0.0029757837
C  C26  1  0.39890000  0.25350000  0.86350000  1.0 0.5781412868
C  C27  1  0.46460000  0.32950000  0.82990000  1.0 -0.1667249551
C  C28  1  0.53220000  0.40570000  0.80560000  1.0 0.2510625861
C  C29  1  0.16360000  0.06770000  0.62990000  1.0 0.2510625861
C  C30  1  0.20290000  0.10710000  0.75040000  1.0 -0.0831088649
C  C31  1  0.20320000  0.12690000  0.82060000  1.0 -0.0203704305
C  C32  1  0.16670000  0.09440000  0.69970000  1.0 0.0216198604
C  C33  1  0.13110000  0.12130000  0.78930000  1.0 0.0978030432
C  C34  1  0.16730000  0.13400000  0.84000000  1.0 -0.1808861892
C  C35  1  0.13080000  0.10150000  0.71910000  1.0 -0.1493229285
C  C36  1  0.24590000  0.15230000  0.87700000  1.0 0.1230231367
C  C37  1  0.93380000  0.59920000  0.62160000  1.0 0.4776097982
C  C38  1  0.90900000  0.57580000  0.69460000  1.0 -0.0203704305
C  C39  1  0.85470000  0.66460000  0.42930000  1.0 0.1390174721
C  C40  1  0.89380000  0.59850000  0.74270000  1.0 -0.1493229285
C  C41  1  0.90280000  0.53350000  0.71540000  1.0 -0.1268177704
C  C42  1  0.87230000  0.57780000  0.81110000  1.0 -0.0077895114
C  C43  1  0.88010000  0.51230000  0.78280000  1.0 -0.0029757837
C  C44  1  0.85460000  0.60110000  0.86350000  1.0 0.5781412868
C  C45  1  0.86490000  0.53540000  0.82990000  1.0 -0.1667249551
C  C46  1  0.87350000  0.46780000  0.80560000  1.0 0.2510625861
C  C47  1  0.90410000  0.83640000  0.62990000  1.0 0.2510625861
C  C48  1  0.90420000  0.79710000  0.75040000  1.0 -0.0831088649
C  C49  1  0.92370000  0.79680000  0.82060000  1.0 -0.0203704305
C  C50  1  0.92770000  0.83330000  0.69970000  1.0 0.0216198604
C  C51  1  0.99020000  0.86890000  0.78930000  1.0 0.0978030432
C  C52  1  0.96670000  0.83270000  0.84000000  1.0 -0.1808861892
C  C53  1  0.97070000  0.86920000  0.71910000  1.0 -0.1493229285
C  C54  1  0.90640000  0.75410000  0.87700000  1.0 0.1230231367
C  C55  1  0.33460000  0.93380000  0.62160000  1.0 0.4776097982
C  C56  1  0.33320000  0.90900000  0.69460000  1.0 -0.0203704305
C  C57  1  0.19010000  0.85470000  0.42930000  1.0 0.1390174721
C  C58  1  0.29530000  0.89380000  0.74270000  1.0 -0.1493229285
C  C59  1  0.36930000  0.90280000  0.71540000  1.0 -0.1268177704
C  C60  1  0.29450000  0.87230000  0.81110000  1.0 -0.0077895114
C  C61  1  0.36780000  0.88010000  0.78280000  1.0 -0.0029757837
C  C62  1  0.25350000  0.85460000  0.86350000  1.0 0.5781412868
C  C63  1  0.32950000  0.86490000  0.82990000  1.0 -0.1667249551
C  C64  1  0.40570000  0.87350000  0.80560000  1.0 0.2510625861
C  C65  1  0.06770000  0.90410000  0.62990000  1.0 0.2510625861
C  C66  1  0.10710000  0.90420000  0.75040000  1.0 -0.0831088649
C  C67  1  0.12690000  0.92370000  0.82060000  1.0 -0.0203704305
C  C68  1  0.09440000  0.92770000  0.69970000  1.0 0.0216198604
C  C69  1  0.12130000  0.99020000  0.78930000  1.0 0.0978030432
C  C70  1  0.13400000  0.96670000  0.84000000  1.0 -0.1808861892
C  C71  1  0.10150000  0.97070000  0.71910000  1.0 -0.1493229285
C  C72  1  0.15230000  0.90640000  0.87700000  1.0 0.1230231367
C  C73  1  0.59920000  0.66540000  0.62160000  1.0 0.4776097982
C  C74  1  0.57580000  0.66680000  0.69460000  1.0 -0.0203704305
C  C75  1  0.66460000  0.80990000  0.42930000  1.0 0.1390174721
C  C76  1  0.59850000  0.70470000  0.74270000  1.0 -0.1493229285
C  C77  1  0.53350000  0.63070000  0.71540000  1.0 -0.1268177704
C  C78  1  0.57780000  0.70550000  0.81110000  1.0 -0.0077895114
C  C79  1  0.51230000  0.63220000  0.78280000  1.0 -0.0029757837
C  C80  1  0.60110000  0.74650000  0.86350000  1.0 0.5781412868
C  C81  1  0.53540000  0.67050000  0.82990000  1.0 -0.1667249551
C  C82  1  0.46780000  0.59430000  0.80560000  1.0 0.2510625861
C  C83  1  0.83640000  0.93230000  0.62990000  1.0 0.2510625861
C  C84  1  0.79710000  0.89290000  0.75040000  1.0 -0.0831088649
C  C85  1  0.79680000  0.87310000  0.82060000  1.0 -0.0203704305
C  C86  1  0.83330000  0.90560000  0.69970000  1.0 0.0216198604
C  C87  1  0.86890000  0.87870000  0.78930000  1.0 0.0978030432
C  C88  1  0.83270000  0.86600000  0.84000000  1.0 -0.1808861892
C  C89  1  0.86920000  0.89850000  0.71910000  1.0 -0.1493229285
C  C90  1  0.75410000  0.84770000  0.87700000  1.0 0.1230231367
C  C91  1  0.06620000  0.40080000  0.62160000  1.0 0.4776097982
C  C92  1  0.09100000  0.42420000  0.69460000  1.0 -0.0203704305
C  C93  1  0.14530000  0.33540000  0.42930000  1.0 0.1390174721
C  C94  1  0.10620000  0.40150000  0.74270000  1.0 -0.1493229285
C  C95  1  0.09720000  0.46650000  0.71540000  1.0 -0.1268177704
C  C96  1  0.12770000  0.42220000  0.81110000  1.0 -0.0077895114
C  C97  1  0.11990000  0.48770000  0.78280000  1.0 -0.0029757837
C  C98  1  0.14540000  0.39890000  0.86350000  1.0 0.5781412868
C  C99  1  0.13510000  0.46460000  0.82990000  1.0 -0.1667249551
C  C100  1  0.12650000  0.53220000  0.80560000  1.0 0.2510625861
C  C101  1  0.09590000  0.16360000  0.62990000  1.0 0.2510625861
C  C102  1  0.09580000  0.20290000  0.75040000  1.0 -0.0831088649
C  C103  1  0.07630000  0.20320000  0.82060000  1.0 -0.0203704305
C  C104  1  0.07230000  0.16670000  0.69970000  1.0 0.0216198604
C  C105  1  0.00980000  0.13110000  0.78930000  1.0 0.0978030432
C  C106  1  0.03330000  0.16730000  0.84000000  1.0 -0.1808861892
C  C107  1  0.02930000  0.13080000  0.71910000  1.0 -0.1493229285
C  C108  1  0.09360000  0.24590000  0.87700000  1.0 0.1230231367
C  C109  1  0.59920000  0.93380000  0.37840000  1.0 0.4776097982
C  C110  1  0.57580000  0.90900000  0.30540000  1.0 -0.0203704305
C  C111  1  0.66460000  0.85470000  0.57070000  1.0 0.1390174721
C  C112  1  0.59850000  0.89380000  0.25730000  1.0 -0.1493229285
C  C113  1  0.53350000  0.90280000  0.28460000  1.0 -0.1268177704
C  C114  1  0.57780000  0.87230000  0.18890000  1.0 -0.0077895114
C  C115  1  0.51230000  0.88010000  0.21720000  1.0 -0.0029757837
C  C116  1  0.60110000  0.85460000  0.13650000  1.0 0.5781412868
C  C117  1  0.53540000  0.86490000  0.17010000  1.0 -0.1667249551
C  C118  1  0.46780000  0.87350000  0.19440000  1.0 0.2510625861
C  C119  1  0.83640000  0.90410000  0.37010000  1.0 0.2510625861
C  C120  1  0.79710000  0.90420000  0.24960000  1.0 -0.0831088649
C  C121  1  0.79680000  0.92370000  0.17940000  1.0 -0.0203704305
C  C122  1  0.83330000  0.92770000  0.30030000  1.0 0.0216198604
C  C123  1  0.86890000  0.99020000  0.21070000  1.0 0.0978030432
C  C124  1  0.83270000  0.96670000  0.16000000  1.0 -0.1808861892
C  C125  1  0.86920000  0.97070000  0.28090000  1.0 -0.1493229285
C  C126  1  0.75410000  0.90640000  0.12300000  1.0 0.1230231367
C  C127  1  0.06620000  0.66540000  0.37840000  1.0 0.4776097982
C  C128  1  0.09100000  0.66680000  0.30540000  1.0 -0.0203704305
C  C129  1  0.14530000  0.80990000  0.57070000  1.0 0.1304778923
C  C130  1  0.10620000  0.70470000  0.25730000  1.0 -0.1493229285
C  C131  1  0.09720000  0.63070000  0.28460000  1.0 -0.1268177704
C  C132  1  0.12770000  0.70550000  0.18890000  1.0 -0.0077895114
C  C133  1  0.11990000  0.63220000  0.21720000  1.0 -0.0029757837
C  C134  1  0.14540000  0.74650000  0.13650000  1.0 0.5781412868
C  C135  1  0.13510000  0.67050000  0.17010000  1.0 -0.1667249551
C  C136  1  0.12650000  0.59430000  0.19440000  1.0 0.2510625861
C  C137  1  0.09590000  0.93230000  0.37010000  1.0 0.2510625861
C  C138  1  0.09580000  0.89290000  0.24960000  1.0 -0.0831088649
C  C139  1  0.07630000  0.87310000  0.17940000  1.0 -0.0203704305
C  C140  1  0.07230000  0.90560000  0.30030000  1.0 0.0216198604
C  C141  1  0.00980000  0.87870000  0.21070000  1.0 0.0978030432
C  C142  1  0.03330000  0.86600000  0.16000000  1.0 -0.1808861892
C  C143  1  0.02930000  0.89850000  0.28090000  1.0 -0.1493229285
C  C144  1  0.09360000  0.84770000  0.12300000  1.0 0.1230231367
C  C145  1  0.33460000  0.40080000  0.37840000  1.0 0.4776097982
C  C146  1  0.33320000  0.42420000  0.30540000  1.0 -0.0203704305
C  C147  1  0.19010000  0.33540000  0.57070000  1.0 0.1304778923
C  C148  1  0.29530000  0.40150000  0.25730000  1.0 -0.1493229285
C  C149  1  0.36930000  0.46650000  0.28460000  1.0 -0.1268177704
C  C150  1  0.29450000  0.42220000  0.18890000  1.0 -0.0077895114
C  C151  1  0.36780000  0.48770000  0.21720000  1.0 -0.0029757837
C  C152  1  0.25350000  0.39890000  0.13650000  1.0 0.5781412868
C  C153  1  0.32950000  0.46460000  0.17010000  1.0 -0.1667249551
C  C154  1  0.40570000  0.53220000  0.19440000  1.0 0.2510625861
C  C155  1  0.06770000  0.16360000  0.37010000  1.0 0.2510625861
C  C156  1  0.10710000  0.20290000  0.24960000  1.0 -0.0831088649
C  C157  1  0.12690000  0.20320000  0.17940000  1.0 -0.0203704305
C  C158  1  0.09440000  0.16670000  0.30030000  1.0 0.0216198604
C  C159  1  0.12130000  0.13110000  0.21070000  1.0 0.0978030432
C  C160  1  0.13400000  0.16730000  0.16000000  1.0 -0.1808861892
C  C161  1  0.10150000  0.13080000  0.28090000  1.0 -0.1493229285
C  C162  1  0.15230000  0.24590000  0.12300000  1.0 0.1230231367
C  C163  1  0.40080000  0.06620000  0.37840000  1.0 0.4776097982
C  C164  1  0.42420000  0.09100000  0.30540000  1.0 -0.0203704305
C  C165  1  0.33540000  0.14530000  0.57070000  1.0 0.1390174721
C  C166  1  0.40150000  0.10620000  0.25730000  1.0 -0.1493229285
C  C167  1  0.46650000  0.09720000  0.28460000  1.0 -0.1268177704
C  C168  1  0.42220000  0.12770000  0.18890000  1.0 -0.0077895114
C  C169  1  0.48770000  0.11990000  0.21720000  1.0 -0.0029757837
C  C170  1  0.39890000  0.14540000  0.13650000  1.0 0.5781412868
C  C171  1  0.46460000  0.13510000  0.17010000  1.0 -0.1667249551
C  C172  1  0.53220000  0.12650000  0.19440000  1.0 0.2510625861
C  C173  1  0.16360000  0.09590000  0.37010000  1.0 0.2510625861
C  C174  1  0.20290000  0.09580000  0.24960000  1.0 -0.0831088649
C  C175  1  0.20320000  0.07630000  0.17940000  1.0 -0.0203704305
C  C176  1  0.16670000  0.07230000  0.30030000  1.0 0.0216198604
C  C177  1  0.13110000  0.00980000  0.21070000  1.0 0.0978030432
C  C178  1  0.16730000  0.03330000  0.16000000  1.0 -0.1808861892
C  C179  1  0.13080000  0.02930000  0.28090000  1.0 -0.1493229285
C  C180  1  0.24590000  0.09360000  0.12300000  1.0 0.1230231367
C  C181  1  0.93380000  0.33460000  0.37840000  1.0 0.4776097982
C  C182  1  0.90900000  0.33320000  0.30540000  1.0 -0.0203704305
C  C183  1  0.85470000  0.19010000  0.57070000  1.0 0.1390174721
C  C184  1  0.89380000  0.29530000  0.25730000  1.0 -0.1493229285
C  C185  1  0.90280000  0.36930000  0.28460000  1.0 -0.1268177704
C  C186  1  0.87230000  0.29450000  0.18890000  1.0 -0.0077895114
C  C187  1  0.88010000  0.36780000  0.21720000  1.0 -0.0029757837
C  C188  1  0.85460000  0.25350000  0.13650000  1.0 0.5781412868
C  C189  1  0.86490000  0.32950000  0.17010000  1.0 -0.1667249551
C  C190  1  0.87350000  0.40570000  0.19440000  1.0 0.2553627341
C  C191  1  0.90410000  0.06770000  0.37010000  1.0 0.2510625861
C  C192  1  0.90420000  0.10710000  0.24960000  1.0 -0.0831088649
C  C193  1  0.92370000  0.12690000  0.17940000  1.0 -0.0203704305
C  C194  1  0.92770000  0.09440000  0.30030000  1.0 0.0216198604
C  C195  1  0.99020000  0.12130000  0.21070000  1.0 0.0978030432
C  C196  1  0.96670000  0.13400000  0.16000000  1.0 -0.1808861892
C  C197  1  0.97070000  0.10150000  0.28090000  1.0 -0.1493229285
C  C198  1  0.90640000  0.15230000  0.12300000  1.0 0.1230231367
C  C199  1  0.66540000  0.59920000  0.37840000  1.0 0.4776097982
C  C200  1  0.66680000  0.57580000  0.30540000  1.0 -0.0203704305
C  C201  1  0.80990000  0.66460000  0.57070000  1.0 0.1390174721
C  C202  1  0.70470000  0.59850000  0.25730000  1.0 -0.1493229285
C  C203  1  0.63070000  0.53350000  0.28460000  1.0 -0.1268177704
C  C204  1  0.70550000  0.57780000  0.18890000  1.0 -0.0077895114
C  C205  1  0.63220000  0.51230000  0.21720000  1.0 -0.0029757837
C  C206  1  0.74650000  0.60110000  0.13650000  1.0 0.5781412868
C  C207  1  0.67050000  0.53540000  0.17010000  1.0 -0.1667249551
C  C208  1  0.59430000  0.46780000  0.19440000  1.0 0.2553627341
C  C209  1  0.93230000  0.83640000  0.37010000  1.0 0.2510625861
C  C210  1  0.89290000  0.79710000  0.24960000  1.0 -0.0831088649
C  C211  1  0.87310000  0.79680000  0.17940000  1.0 -0.0203704305
C  C212  1  0.90560000  0.83330000  0.30030000  1.0 0.0216198604
C  C213  1  0.87870000  0.86890000  0.21070000  1.0 0.0978030432
C  C214  1  0.86600000  0.83270000  0.16000000  1.0 -0.1808861892
C  C215  1  0.89850000  0.86920000  0.28090000  1.0 -0.1493229285
C  C216  1  0.84770000  0.75410000  0.12300000  1.0 0.1230231367
C  C217  1  0.33460000  0.93380000  0.37840000  1.0 0.4776097982
C  C218  1  0.33320000  0.90900000  0.30540000  1.0 -0.0203704305
C  C219  1  0.19010000  0.85470000  0.57070000  1.0 0.1390174721
C  C220  1  0.29530000  0.89380000  0.25730000  1.0 -0.1493229285
C  C221  1  0.36930000  0.90280000  0.28460000  1.0 -0.1268177704
C  C222  1  0.29450000  0.87230000  0.18890000  1.0 -0.0077895114
C  C223  1  0.36780000  0.88010000  0.21720000  1.0 -0.0029757837
C  C224  1  0.25350000  0.85460000  0.13650000  1.0 0.5781412868
C  C225  1  0.32950000  0.86490000  0.17010000  1.0 -0.1667249551
C  C226  1  0.40570000  0.87350000  0.19440000  1.0 0.2510625861
C  C227  1  0.06770000  0.90410000  0.37010000  1.0 0.2510625861
C  C228  1  0.10710000  0.90420000  0.24960000  1.0 -0.0831088649
C  C229  1  0.12690000  0.92370000  0.17940000  1.0 -0.0203704305
C  C230  1  0.09440000  0.92770000  0.30030000  1.0 0.0216198604
C  C231  1  0.12130000  0.99020000  0.21070000  1.0 0.0978030432
C  C232  1  0.13400000  0.96670000  0.16000000  1.0 -0.1808861892
C  C233  1  0.10150000  0.97070000  0.28090000  1.0 -0.1493229285
C  C234  1  0.15230000  0.90640000  0.12300000  1.0 0.1230231367
C  C235  1  0.59920000  0.66540000  0.37840000  1.0 0.4776097982
C  C236  1  0.57580000  0.66680000  0.30540000  1.0 -0.0203704305
C  C237  1  0.66460000  0.80990000  0.57070000  1.0 0.1390174721
C  C238  1  0.59850000  0.70470000  0.25730000  1.0 -0.1493229285
C  C239  1  0.53350000  0.63070000  0.28460000  1.0 -0.1268177704
C  C240  1  0.57780000  0.70550000  0.18890000  1.0 -0.0077895114
C  C241  1  0.51230000  0.63220000  0.21720000  1.0 -0.0029757837
C  C242  1  0.60110000  0.74650000  0.13650000  1.0 0.5781412868
C  C243  1  0.53540000  0.67050000  0.17010000  1.0 -0.1667249551
C  C244  1  0.46780000  0.59430000  0.19440000  1.0 0.2510625861
C  C245  1  0.83640000  0.93230000  0.37010000  1.0 0.2510625861
C  C246  1  0.79710000  0.89290000  0.24960000  1.0 -0.0831088649
C  C247  1  0.79680000  0.87310000  0.17940000  1.0 -0.0203704305
C  C248  1  0.83330000  0.90560000  0.30030000  1.0 0.0216198604
C  C249  1  0.86890000  0.87870000  0.21070000  1.0 0.0978030432
C  C250  1  0.83270000  0.86600000  0.16000000  1.0 -0.1808861892
C  C251  1  0.86920000  0.89850000  0.28090000  1.0 -0.1493229285
C  C252  1  0.75410000  0.84770000  0.12300000  1.0 0.1230231367
C  C253  1  0.06620000  0.40080000  0.37840000  1.0 0.4776097982
C  C254  1  0.09100000  0.42420000  0.30540000  1.0 -0.0203704305
C  C255  1  0.14530000  0.33540000  0.57070000  1.0 0.1390174721
C  C256  1  0.10620000  0.40150000  0.25730000  1.0 -0.1493229285
C  C257  1  0.09720000  0.46650000  0.28460000  1.0 -0.1268177704
C  C258  1  0.12770000  0.42220000  0.18890000  1.0 -0.0077895114
C  C259  1  0.11990000  0.48770000  0.21720000  1.0 -0.0029757837
C  C260  1  0.14540000  0.39890000  0.13650000  1.0 0.5781412868
C  C261  1  0.13510000  0.46460000  0.17010000  1.0 -0.1667249551
C  C262  1  0.12650000  0.53220000  0.19440000  1.0 0.2510625861
C  C263  1  0.09590000  0.16360000  0.37010000  1.0 0.2510625861
C  C264  1  0.09580000  0.20290000  0.24960000  1.0 -0.0831088649
C  C265  1  0.07630000  0.20320000  0.17940000  1.0 -0.0203704305
C  C266  1  0.07230000  0.16670000  0.30030000  1.0 0.0216198604
C  C267  1  0.00980000  0.13110000  0.21070000  1.0 0.0978030432
C  C268  1  0.03330000  0.16730000  0.16000000  1.0 -0.1808861892
C  C269  1  0.02930000  0.13080000  0.28090000  1.0 -0.1493229285
C  C270  1  0.09360000  0.24590000  0.12300000  1.0 0.1230231367
C  C271  1  0.66540000  0.06620000  0.37840000  1.0 0.4776097982
C  C272  1  0.66680000  0.09100000  0.30540000  1.0 -0.0203704305
C  C273  1  0.80990000  0.14530000  0.57070000  1.0 0.1390174721
C  C274  1  0.70470000  0.10620000  0.25730000  1.0 -0.1493229285
C  C275  1  0.63070000  0.09720000  0.28460000  1.0 -0.1268177704
C  C276  1  0.70550000  0.12770000  0.18890000  1.0 -0.0077895114
C  C277  1  0.63220000  0.11990000  0.21720000  1.0 -0.0029757837
C  C278  1  0.74650000  0.14540000  0.13650000  1.0 0.5781412868
C  C279  1  0.67050000  0.13510000  0.17010000  1.0 -0.1667249551
C  C280  1  0.59430000  0.12650000  0.19440000  1.0 0.2553627341
C  C281  1  0.93230000  0.09590000  0.37010000  1.0 0.2510625861
C  C282  1  0.89290000  0.09580000  0.24960000  1.0 -0.0831088649
C  C283  1  0.87310000  0.07630000  0.17940000  1.0 -0.0203704305
C  C284  1  0.90560000  0.07230000  0.30030000  1.0 0.0216198604
C  C285  1  0.87870000  0.00980000  0.21070000  1.0 0.0978030432
C  C286  1  0.86600000  0.03330000  0.16000000  1.0 -0.1808861892
C  C287  1  0.89850000  0.02930000  0.28090000  1.0 -0.1493229285
C  C288  1  0.84770000  0.09360000  0.12300000  1.0 0.1230231367
C  C289  1  0.40080000  0.33460000  0.37840000  1.0 0.4776097982
C  C290  1  0.42420000  0.33320000  0.30540000  1.0 -0.0203704305
C  C291  1  0.33540000  0.19010000  0.57070000  1.0 0.1304778923
C  C292  1  0.40150000  0.29530000  0.25730000  1.0 -0.1493229285
C  C293  1  0.46650000  0.36930000  0.28460000  1.0 -0.1268177704
C  C294  1  0.42220000  0.29450000  0.18890000  1.0 -0.0077895114
C  C295  1  0.48770000  0.36780000  0.21720000  1.0 -0.0029757837
C  C296  1  0.39890000  0.25350000  0.13650000  1.0 0.5781412868
C  C297  1  0.46460000  0.32950000  0.17010000  1.0 -0.1667249551
C  C298  1  0.53220000  0.40570000  0.19440000  1.0 0.2553627341
C  C299  1  0.16360000  0.06770000  0.37010000  1.0 0.2510625861
C  C300  1  0.20290000  0.10710000  0.24960000  1.0 -0.0831088649
C  C301  1  0.20320000  0.12690000  0.17940000  1.0 -0.0203704305
C  C302  1  0.16670000  0.09440000  0.30030000  1.0 0.0216198604
C  C303  1  0.13110000  0.12130000  0.21070000  1.0 0.0978030432
C  C304  1  0.16730000  0.13400000  0.16000000  1.0 -0.1808861892
C  C305  1  0.13080000  0.10150000  0.28090000  1.0 -0.1493229285
C  C306  1  0.24590000  0.15230000  0.12300000  1.0 0.1230231367
C  C307  1  0.93380000  0.59920000  0.37840000  1.0 0.4776097982
C  C308  1  0.90900000  0.57580000  0.30540000  1.0 -0.0203704305
C  C309  1  0.85470000  0.66460000  0.57070000  1.0 0.1390174721
C  C310  1  0.89380000  0.59850000  0.25730000  1.0 -0.1493229285
C  C311  1  0.90280000  0.53350000  0.28460000  1.0 -0.1268177704
C  C312  1  0.87230000  0.57780000  0.18890000  1.0 -0.0077895114
C  C313  1  0.88010000  0.51230000  0.21720000  1.0 -0.0029757837
C  C314  1  0.85460000  0.60110000  0.13650000  1.0 0.5781412868
C  C315  1  0.86490000  0.53540000  0.17010000  1.0 -0.1667249551
C  C316  1  0.87350000  0.46780000  0.19440000  1.0 0.2510625861
C  C317  1  0.90410000  0.83640000  0.37010000  1.0 0.2510625861
C  C318  1  0.90420000  0.79710000  0.24960000  1.0 -0.0831088649
C  C319  1  0.92370000  0.79680000  0.17940000  1.0 -0.0203704305
C  C320  1  0.92770000  0.83330000  0.30030000  1.0 0.0216198604
C  C321  1  0.99020000  0.86890000  0.21070000  1.0 0.0978030432
C  C322  1  0.96670000  0.83270000  0.16000000  1.0 -0.1808861892
C  C323  1  0.97070000  0.86920000  0.28090000  1.0 -0.1493229285
C  C324  1  0.90640000  0.75410000  0.12300000  1.0 0.1230231367
C  C325  1  0.40080000  0.06620000  0.62160000  1.0 0.4776097982
C  C326  1  0.42420000  0.09100000  0.69460000  1.0 -0.0203704305
C  C327  1  0.33540000  0.14530000  0.42930000  1.0 0.1390174721
C  C328  1  0.40150000  0.10620000  0.74270000  1.0 -0.1493229285
C  C329  1  0.46650000  0.09720000  0.71540000  1.0 -0.1268177704
C  C330  1  0.42220000  0.12770000  0.81110000  1.0 -0.0077895114
C  C331  1  0.48770000  0.11990000  0.78280000  1.0 -0.0029757837
C  C332  1  0.39890000  0.14540000  0.86350000  1.0 0.5781412868
C  C333  1  0.46460000  0.13510000  0.82990000  1.0 -0.1667249551
C  C334  1  0.53220000  0.12650000  0.80560000  1.0 0.2510625861
C  C335  1  0.16360000  0.09590000  0.62990000  1.0 0.2510625861
C  C336  1  0.20290000  0.09580000  0.75040000  1.0 -0.0831088649
C  C337  1  0.20320000  0.07630000  0.82060000  1.0 -0.0203704305
C  C338  1  0.16670000  0.07230000  0.69970000  1.0 0.0216198604
C  C339  1  0.13110000  0.00980000  0.78930000  1.0 0.0978030432
C  C340  1  0.16730000  0.03330000  0.84000000  1.0 -0.1808861892
C  C341  1  0.13080000  0.02930000  0.71910000  1.0 -0.1493229285
C  C342  1  0.24590000  0.09360000  0.87700000  1.0 0.1230231367
C  C343  1  0.93380000  0.33460000  0.62160000  1.0 0.4776097982
C  C344  1  0.90900000  0.33320000  0.69460000  1.0 -0.0203704305
C  C345  1  0.85470000  0.19010000  0.42930000  1.0 0.1390174721
C  C346  1  0.89380000  0.29530000  0.74270000  1.0 -0.1493229285
C  C347  1  0.90280000  0.36930000  0.71540000  1.0 -0.1268177704
C  C348  1  0.87230000  0.29450000  0.81110000  1.0 -0.0077895114
C  C349  1  0.88010000  0.36780000  0.78280000  1.0 -0.0029757837
C  C350  1  0.85460000  0.25350000  0.86350000  1.0 0.5781412868
C  C351  1  0.86490000  0.32950000  0.82990000  1.0 -0.1667249551
C  C352  1  0.87350000  0.40570000  0.80560000  1.0 0.2553627341
C  C353  1  0.90410000  0.06770000  0.62990000  1.0 0.2510625861
C  C354  1  0.90420000  0.10710000  0.75040000  1.0 -0.0831088649
C  C355  1  0.92370000  0.12690000  0.82060000  1.0 -0.0203704305
C  C356  1  0.92770000  0.09440000  0.69970000  1.0 0.0216198604
C  C357  1  0.99020000  0.12130000  0.78930000  1.0 0.0978030432
C  C358  1  0.96670000  0.13400000  0.84000000  1.0 -0.1808861892
C  C359  1  0.97070000  0.10150000  0.71910000  1.0 -0.1493229285
C  C360  1  0.90640000  0.15230000  0.87700000  1.0 0.1230231367
C  C361  1  0.66540000  0.59920000  0.62160000  1.0 0.4776097982
C  C362  1  0.66680000  0.57580000  0.69460000  1.0 -0.0203704305
C  C363  1  0.80990000  0.66460000  0.42930000  1.0 0.1390174721
C  C364  1  0.70470000  0.59850000  0.74270000  1.0 -0.1493229285
C  C365  1  0.63070000  0.53350000  0.71540000  1.0 -0.1268177704
C  C366  1  0.70550000  0.57780000  0.81110000  1.0 -0.0077895114
C  C367  1  0.63220000  0.51230000  0.78280000  1.0 -0.0029757837
C  C368  1  0.74650000  0.60110000  0.86350000  1.0 0.5781412868
C  C369  1  0.67050000  0.53540000  0.82990000  1.0 -0.1667249551
C  C370  1  0.59430000  0.46780000  0.80560000  1.0 0.2553627341
C  C371  1  0.93230000  0.83640000  0.62990000  1.0 0.2510625861
C  C372  1  0.89290000  0.79710000  0.75040000  1.0 -0.0831088649
C  C373  1  0.87310000  0.79680000  0.82060000  1.0 -0.0203704305
C  C374  1  0.90560000  0.83330000  0.69970000  1.0 0.0216198604
C  C375  1  0.87870000  0.86890000  0.78930000  1.0 0.0978030432
C  C376  1  0.86600000  0.83270000  0.84000000  1.0 -0.1808861892
C  C377  1  0.89850000  0.86920000  0.71910000  1.0 -0.1493229285
C  C378  1  0.84770000  0.75410000  0.87700000  1.0 0.1230231367
C  C379  1  0.59920000  0.93380000  0.62160000  1.0 0.4776097982
C  C380  1  0.57580000  0.90900000  0.69460000  1.0 -0.0203704305
C  C381  1  0.66460000  0.85470000  0.42930000  1.0 0.1390174721
C  C382  1  0.59850000  0.89380000  0.74270000  1.0 -0.1493229285
C  C383  1  0.53350000  0.90280000  0.71540000  1.0 -0.1268177704
C  C384  1  0.57780000  0.87230000  0.81110000  1.0 -0.0077895114
C  C385  1  0.51230000  0.88010000  0.78280000  1.0 -0.0029757837
C  C386  1  0.60110000  0.85460000  0.86350000  1.0 0.5781412868
C  C387  1  0.53540000  0.86490000  0.82990000  1.0 -0.1667249551
C  C388  1  0.46780000  0.87350000  0.80560000  1.0 0.2510625861
C  C389  1  0.83640000  0.90410000  0.62990000  1.0 0.2510625861
C  C390  1  0.79710000  0.90420000  0.75040000  1.0 -0.0831088649
C  C391  1  0.79680000  0.92370000  0.82060000  1.0 -0.0203704305
C  C392  1  0.83330000  0.92770000  0.69970000  1.0 0.0216198604
C  C393  1  0.86890000  0.99020000  0.78930000  1.0 0.0978030432
C  C394  1  0.83270000  0.96670000  0.84000000  1.0 -0.1808861892
C  C395  1  0.86920000  0.97070000  0.71910000  1.0 -0.1493229285
C  C396  1  0.75410000  0.90640000  0.87700000  1.0 0.1230231367
C  C397  1  0.06620000  0.66540000  0.62160000  1.0 0.4776097982
C  C398  1  0.09100000  0.66680000  0.69460000  1.0 -0.0203704305
C  C399  1  0.14530000  0.80990000  0.42930000  1.0 0.1390174721
C  C400  1  0.10620000  0.70470000  0.74270000  1.0 -0.1493229285
C  C401  1  0.09720000  0.63070000  0.71540000  1.0 -0.1268177704
C  C402  1  0.12770000  0.70550000  0.81110000  1.0 -0.0077895114
C  C403  1  0.11990000  0.63220000  0.78280000  1.0 -0.0029757837
C  C404  1  0.14540000  0.74650000  0.86350000  1.0 0.5781412868
C  C405  1  0.13510000  0.67050000  0.82990000  1.0 -0.1667249551
C  C406  1  0.12650000  0.59430000  0.80560000  1.0 0.2510625861
C  C407  1  0.09590000  0.93230000  0.62990000  1.0 0.2510625861
C  C408  1  0.09580000  0.89290000  0.75040000  1.0 -0.0831088649
C  C409  1  0.07630000  0.87310000  0.82060000  1.0 -0.0203704305
C  C410  1  0.07230000  0.90560000  0.69970000  1.0 0.0216198604
C  C411  1  0.00980000  0.87870000  0.78930000  1.0 0.0978030432
C  C412  1  0.03330000  0.86600000  0.84000000  1.0 -0.1808861892
C  C413  1  0.02930000  0.89850000  0.71910000  1.0 -0.1493229285
C  C414  1  0.09360000  0.84770000  0.87700000  1.0 0.1230231367
C  C415  1  0.33460000  0.40080000  0.62160000  1.0 0.4776097982
C  C416  1  0.33320000  0.42420000  0.69460000  1.0 -0.0203704305
C  C417  1  0.19010000  0.33540000  0.42930000  1.0 0.1390174721
C  C418  1  0.29530000  0.40150000  0.74270000  1.0 -0.1493229285
C  C419  1  0.36930000  0.46650000  0.71540000  1.0 -0.1268177704
C  C420  1  0.29450000  0.42220000  0.81110000  1.0 -0.0077895114
C  C421  1  0.36780000  0.48770000  0.78280000  1.0 -0.0029757837
C  C422  1  0.25350000  0.39890000  0.86350000  1.0 0.5781412868
C  C423  1  0.32950000  0.46460000  0.82990000  1.0 -0.1667249551
C  C424  1  0.40570000  0.53220000  0.80560000  1.0 0.2510625861
C  C425  1  0.06770000  0.16360000  0.62990000  1.0 0.2510625861
C  C426  1  0.10710000  0.20290000  0.75040000  1.0 -0.0831088649
C  C427  1  0.12690000  0.20320000  0.82060000  1.0 -0.0203704305
C  C428  1  0.09440000  0.16670000  0.69970000  1.0 0.0216198604
C  C429  1  0.12130000  0.13110000  0.78930000  1.0 0.0978030432
C  C430  1  0.13400000  0.16730000  0.84000000  1.0 -0.1808861892
C  C431  1  0.10150000  0.13080000  0.71910000  1.0 -0.1493229285
C  C432  1  0.15230000  0.24590000  0.87700000  1.0 0.1230231367
C  C433  1  0.52040000  0.00000000  0.56510000  1.0 0.1571053026
C  C434  1  0.47960000  0.47960000  0.56510000  1.0 0.1571053026
C  C435  1  0.00000000  0.52040000  0.56510000  1.0 0.1571053026
C  C436  1  0.47960000  0.00000000  0.56510000  1.0 0.1571053026
C  C437  1  0.52040000  0.52040000  0.56510000  1.0 0.1571053026
C  C438  1  0.00000000  0.47960000  0.56510000  1.0 0.1571053026
C  C439  1  0.52040000  0.00000000  0.43490000  1.0 0.1571053026
C  C440  1  0.00000000  0.52040000  0.43490000  1.0 0.1571053026
C  C441  1  0.47960000  0.47960000  0.43490000  1.0 0.1571053026
C  C442  1  0.47960000  0.00000000  0.43490000  1.0 0.1571053026
C  C443  1  0.00000000  0.47960000  0.43490000  1.0 0.1571053026
C  C444  1  0.52040000  0.52040000  0.43490000  1.0 0.1571053026
N  N1  1  0.59470000  0.14940000  0.86590000  1.0 -0.2234421076
N  N2  1  0.53808000  0.00258000  0.63870000  1.0 -0.491468614
N  N3  1  0.78754000  0.12395000  0.35533000  1.0 -0.491468614
N  N4  1  0.55470000  0.40530000  0.86590000  1.0 -0.2234421076
N  N5  1  0.46450000  0.46192000  0.63870000  1.0 -0.491468614
N  N6  1  0.33641000  0.21246000  0.35533000  1.0 -0.495719222
N  N7  1  0.85060000  0.44530000  0.86590000  1.0 -0.2254275406
N  N8  1  0.99742000  0.53550000  0.63870000  1.0 -0.491468614
N  N9  1  0.87605000  0.66359000  0.35533000  1.0 -0.491468614
N  N10  1  0.40530000  0.85060000  0.86590000  1.0 -0.2234421076
N  N11  1  0.46192000  0.99742000  0.63870000  1.0 -0.491468614
N  N12  1  0.21246000  0.87605000  0.35533000  1.0 -0.495719222
N  N13  1  0.44530000  0.59470000  0.86590000  1.0 -0.2234421076
N  N14  1  0.53550000  0.53808000  0.63870000  1.0 -0.491468614
N  N15  1  0.66359000  0.78754000  0.35533000  1.0 -0.491468614
N  N16  1  0.14940000  0.55470000  0.86590000  1.0 -0.2254275406
N  N17  1  0.00258000  0.46450000  0.63870000  1.0 -0.491468614
N  N18  1  0.12395000  0.33641000  0.35533000  1.0 -0.495719222
N  N19  1  0.44530000  0.85060000  0.13410000  1.0 -0.2234421076
N  N20  1  0.53550000  0.99742000  0.36130000  1.0 -0.491468614
N  N21  1  0.66359000  0.87605000  0.64467000  1.0 -0.491468614
N  N22  1  0.14940000  0.59470000  0.13410000  1.0 -0.2254275406
N  N23  1  0.00258000  0.53808000  0.36130000  1.0 -0.491468614
N  N24  1  0.12395000  0.78754000  0.64467000  1.0 -0.491468614
N  N25  1  0.40530000  0.55470000  0.13410000  1.0 -0.2254275406
N  N26  1  0.46192000  0.46450000  0.36130000  1.0 -0.491468614
N  N27  1  0.21246000  0.33641000  0.64467000  1.0 -0.495719222
N  N28  1  0.55470000  0.14940000  0.13410000  1.0 -0.2254275406
N  N29  1  0.46450000  0.00258000  0.36130000  1.0 -0.491468614
N  N30  1  0.33641000  0.12395000  0.64467000  1.0 -0.491468614
N  N31  1  0.85060000  0.40530000  0.13410000  1.0 -0.2254275406
N  N32  1  0.99742000  0.46192000  0.36130000  1.0 -0.491468614
N  N33  1  0.87605000  0.21246000  0.64467000  1.0 -0.491468614
N  N34  1  0.59470000  0.44530000  0.13410000  1.0 -0.2254275406
N  N35  1  0.53808000  0.53550000  0.36130000  1.0 -0.491468614
N  N36  1  0.78754000  0.66359000  0.64467000  1.0 -0.491468614
N  N37  1  0.40530000  0.85060000  0.13410000  1.0 -0.2234421076
N  N38  1  0.46192000  0.99742000  0.36130000  1.0 -0.491468614
N  N39  1  0.21246000  0.87605000  0.64467000  1.0 -0.495719222
N  N40  1  0.44530000  0.59470000  0.13410000  1.0 -0.2234421076
N  N41  1  0.53550000  0.53808000  0.36130000  1.0 -0.491468614
N  N42  1  0.66359000  0.78754000  0.64467000  1.0 -0.491468614
N  N43  1  0.14940000  0.55470000  0.13410000  1.0 -0.2254275406
N  N44  1  0.00258000  0.46450000  0.36130000  1.0 -0.491468614
N  N45  1  0.12395000  0.33641000  0.64467000  1.0 -0.495719222
N  N46  1  0.59470000  0.14940000  0.13410000  1.0 -0.2234421076
N  N47  1  0.53808000  0.00258000  0.36130000  1.0 -0.491468614
N  N48  1  0.78754000  0.12395000  0.64467000  1.0 -0.491468614
N  N49  1  0.55470000  0.40530000  0.13410000  1.0 -0.2254275406
N  N50  1  0.46450000  0.46192000  0.36130000  1.0 -0.491468614
N  N51  1  0.33641000  0.21246000  0.64467000  1.0 -0.491468614
N  N52  1  0.85060000  0.44530000  0.13410000  1.0 -0.2254275406
N  N53  1  0.99742000  0.53550000  0.36130000  1.0 -0.491468614
N  N54  1  0.87605000  0.66359000  0.64467000  1.0 -0.491468614
N  N55  1  0.55470000  0.14940000  0.86590000  1.0 -0.2254275406
N  N56  1  0.46450000  0.00258000  0.63870000  1.0 -0.491468614
N  N57  1  0.33641000  0.12395000  0.35533000  1.0 -0.491468614
N  N58  1  0.85060000  0.40530000  0.86590000  1.0 -0.2234421076
N  N59  1  0.99742000  0.46192000  0.63870000  1.0 -0.491468614
N  N60  1  0.87605000  0.21246000  0.35533000  1.0 -0.495719222
N  N61  1  0.59470000  0.44530000  0.86590000  1.0 -0.2254275406
N  N62  1  0.53808000  0.53550000  0.63870000  1.0 -0.491468614
N  N63  1  0.78754000  0.66359000  0.35533000  1.0 -0.491468614
N  N64  1  0.44530000  0.85060000  0.86590000  1.0 -0.2234421076
N  N65  1  0.53550000  0.99742000  0.63870000  1.0 -0.491468614
N  N66  1  0.66359000  0.87605000  0.35533000  1.0 -0.495719222
N  N67  1  0.14940000  0.59470000  0.86590000  1.0 -0.2234421076
N  N68  1  0.00258000  0.53808000  0.63870000  1.0 -0.491468614
N  N69  1  0.12395000  0.78754000  0.35533000  1.0 -0.491468614
N  N70  1  0.40530000  0.55470000  0.86590000  1.0 -0.2254275406
N  N71  1  0.46192000  0.46450000  0.63870000  1.0 -0.491468614
N  N72  1  0.21246000  0.33641000  0.35533000  1.0 -0.495719222
N  N73  1  0.54130000  0.00000000  0.50000000  1.0 -0.2735690426
N  N74  1  0.45870000  0.45870000  0.50000000  1.0 -0.2735690426
N  N75  1  0.00000000  0.54130000  0.50000000  1.0 -0.2735690426
N  N76  1  0.45870000  0.00000000  0.50000000  1.0 -0.2735690426
N  N77  1  0.54130000  0.54130000  0.50000000  1.0 -0.2735690426
N  N78  1  0.00000000  0.45870000  0.50000000  1.0 -0.2735690426
N  N79  1  0.79160000  0.12540000  0.50000000  1.0 -0.491468614
N  N80  1  0.33380000  0.20840000  0.50000000  1.0 -0.495719222
N  N81  1  0.87460000  0.66620000  0.50000000  1.0 -0.495719222
N  N82  1  0.20840000  0.87460000  0.50000000  1.0 -0.495719222
N  N83  1  0.66620000  0.79160000  0.50000000  1.0 -0.495719222
N  N84  1  0.12540000  0.33380000  0.50000000  1.0 -0.495719222
N  N85  1  0.66620000  0.87460000  0.50000000  1.0 -0.495719222
N  N86  1  0.12540000  0.79160000  0.50000000  1.0 -0.495719222
N  N87  1  0.20840000  0.33380000  0.50000000  1.0 -0.495719222
N  N88  1  0.33380000  0.12540000  0.50000000  1.0 -0.491468614
N  N89  1  0.87460000  0.20840000  0.50000000  1.0 -0.495719222
N  N90  1  0.79160000  0.66620000  0.50000000  1.0 -0.495719222
N  N91  1  0.55625000  0.11250000  0.76440000  1.0 -0.3863806428
N  N92  1  0.55625000  0.44375000  0.76440000  1.0 -0.3863806428
N  N93  1  0.88750000  0.44375000  0.76440000  1.0 -0.3863806428
N  N94  1  0.44375000  0.88750000  0.76440000  1.0 -0.3863806428
N  N95  1  0.44375000  0.55625000  0.76440000  1.0 -0.3863806428
N  N96  1  0.11250000  0.55625000  0.76440000  1.0 -0.3863806428
N  N97  1  0.44375000  0.88750000  0.23560000  1.0 -0.3863806428
N  N98  1  0.11250000  0.55625000  0.23560000  1.0 -0.3863806428
N  N99  1  0.44375000  0.55625000  0.23560000  1.0 -0.3863806428
N  N100  1  0.55625000  0.11250000  0.23560000  1.0 -0.3863806428
N  N101  1  0.88750000  0.44375000  0.23560000  1.0 -0.3863806428
N  N102  1  0.55625000  0.44375000  0.23560000  1.0 -0.3863806428
O  O1  1  0.62870000  0.04813000  0.58520000  1.0 -0.5170038915
O  O2  1  0.69240000  0.04990000  0.62030000  1.0 -0.1808861892
O  O3  1  0.74606000  0.16799000  0.91840000  1.0 -0.5170038915
O  O4  1  0.77620000  0.13580000  0.84800000  1.0 -0.4841555061
O  O5  1  0.70620000  0.08050000  0.58980000  1.0 -0.1493229285
O  O6  1  0.95100000  0.07700000  0.58720000  1.0 -0.1808861892
O  O7  1  0.83260000  0.09310000  0.91600000  1.0 0.1304778923
O  O8  1  0.93050000  0.12840000  0.59790000  1.0 -0.4075435389
O  O9  1  0.99500000  0.16350000  0.47770000  1.0 -0.0077895114
O  O10  1  0.81380000  0.08580000  0.92500000  1.0 -0.0630643793
O  O11  1  0.41943000  0.37130000  0.58520000  1.0 -0.5170038915
O  O12  1  0.35750000  0.30760000  0.62030000  1.0 -0.1889749227
O  O13  1  0.42193000  0.25394000  0.91840000  1.0 -0.5170038915
O  O14  1  0.35960000  0.22380000  0.84800000  1.0 -0.491468614
O  O15  1  0.37430000  0.29380000  0.58980000  1.0 -0.144233669
O  O16  1  0.12600000  0.04900000  0.58720000  1.0 -0.1808861892
O  O17  1  0.26050000  0.16740000  0.91600000  1.0 0.1304778923
O  O18  1  0.19790000  0.06950000  0.59790000  1.0 -0.4075435389
O  O19  1  0.16850000  0.00500000  0.47770000  1.0 -0.0077895114
O  O20  1  0.27200000  0.18620000  0.92500000  1.0 -0.0630643793
O  O21  1  0.95187000  0.58057000  0.58520000  1.0 -0.5170038915
O  O22  1  0.95010000  0.64250000  0.62030000  1.0 -0.1889749227
O  O23  1  0.83201000  0.57807000  0.91840000  1.0 -0.5170038915
O  O24  1  0.86420000  0.64040000  0.84800000  1.0 -0.4841555061
O  O25  1  0.91950000  0.62570000  0.58980000  1.0 -0.1493229285
O  O26  1  0.92300000  0.87400000  0.58720000  1.0 -0.1808861892
O  O27  1  0.90690000  0.73950000  0.91600000  1.0 0.1304778923
O  O28  1  0.87160000  0.80210000  0.59790000  1.0 -0.4075435389
O  O29  1  0.83650000  0.83150000  0.47770000  1.0 -0.0077895114
O  O30  1  0.91420000  0.72800000  0.92500000  1.0 -0.0630643793
O  O31  1  0.37130000  0.95187000  0.58520000  1.0 -0.5170038915
O  O32  1  0.30760000  0.95010000  0.62030000  1.0 -0.1889749227
O  O33  1  0.25394000  0.83201000  0.91840000  1.0 -0.5170038915
O  O34  1  0.22380000  0.86420000  0.84800000  1.0 -0.491468614
O  O35  1  0.29380000  0.91950000  0.58980000  1.0 -0.1493229285
O  O36  1  0.04900000  0.92300000  0.58720000  1.0 -0.1808861892
O  O37  1  0.16740000  0.90690000  0.91600000  1.0 0.1304778923
O  O38  1  0.06950000  0.87160000  0.59790000  1.0 -0.4075435389
O  O39  1  0.00500000  0.83650000  0.47770000  1.0 -0.0077895114
O  O40  1  0.18620000  0.91420000  0.92500000  1.0 -0.0630643793
O  O41  1  0.58057000  0.62870000  0.58520000  1.0 -0.5170038915
O  O42  1  0.64250000  0.69240000  0.62030000  1.0 -0.1889749227
O  O43  1  0.57807000  0.74606000  0.91840000  1.0 -0.5170038915
O  O44  1  0.64040000  0.77620000  0.84800000  1.0 -0.491468614
O  O45  1  0.62570000  0.70620000  0.58980000  1.0 -0.1493229285
O  O46  1  0.87400000  0.95100000  0.58720000  1.0 -0.1808861892
O  O47  1  0.73950000  0.83260000  0.91600000  1.0 0.1304778923
O  O48  1  0.80210000  0.93050000  0.59790000  1.0 -0.4075435389
O  O49  1  0.83150000  0.99500000  0.47770000  1.0 -0.0077895114
O  O50  1  0.72800000  0.81380000  0.92500000  1.0 -0.0630643793
O  O51  1  0.04813000  0.41943000  0.58520000  1.0 -0.5170038915
O  O52  1  0.04990000  0.35750000  0.62030000  1.0 -0.1889749227
O  O53  1  0.16799000  0.42193000  0.91840000  1.0 -0.5170038915
O  O54  1  0.13580000  0.35960000  0.84800000  1.0 -0.491468614
O  O55  1  0.08050000  0.37430000  0.58980000  1.0 -0.1493229285
O  O56  1  0.07700000  0.12600000  0.58720000  1.0 -0.1808861892
O  O57  1  0.09310000  0.26050000  0.91600000  1.0 0.1304778923
O  O58  1  0.12840000  0.19790000  0.59790000  1.0 -0.4075435389
O  O59  1  0.16350000  0.16850000  0.47770000  1.0 -0.0077895114
O  O60  1  0.08580000  0.27200000  0.92500000  1.0 -0.0630643793
O  O61  1  0.58057000  0.95187000  0.41480000  1.0 -0.5170038915
O  O62  1  0.64250000  0.95010000  0.37970000  1.0 -0.1889749227
O  O63  1  0.57807000  0.83201000  0.08160000  1.0 -0.5170038915
O  O64  1  0.64040000  0.86420000  0.15200000  1.0 -0.491468614
O  O65  1  0.62570000  0.91950000  0.41020000  1.0 -0.1493229285
O  O66  1  0.87400000  0.92300000  0.41280000  1.0 -0.1808861892
O  O67  1  0.73950000  0.90690000  0.08400000  1.0 0.1304778923
O  O68  1  0.80210000  0.87160000  0.40210000  1.0 -0.4075435389
O  O69  1  0.83150000  0.83650000  0.52230000  1.0 -0.0077895114
O  O70  1  0.72800000  0.91420000  0.07500000  1.0 -0.0630643793
O  O71  1  0.04813000  0.62870000  0.41480000  1.0 -0.5170038915
O  O72  1  0.04990000  0.69240000  0.37970000  1.0 -0.1889749227
O  O73  1  0.16799000  0.74606000  0.08160000  1.0 -0.5170038915
O  O74  1  0.13580000  0.77620000  0.15200000  1.0 -0.491468614
O  O75  1  0.08050000  0.70620000  0.41020000  1.0 -0.144233669
O  O76  1  0.07700000  0.95100000  0.41280000  1.0 -0.1808861892
O  O77  1  0.09310000  0.83260000  0.08400000  1.0 0.1304778923
O  O78  1  0.12840000  0.93050000  0.40210000  1.0 -0.4075435389
O  O79  1  0.16350000  0.99500000  0.52230000  1.0 -0.0077895114
O  O80  1  0.08580000  0.81380000  0.07500000  1.0 -0.0630643793
O  O81  1  0.37130000  0.41943000  0.41480000  1.0 -0.5170038915
O  O82  1  0.30760000  0.35750000  0.37970000  1.0 -0.1808861892
O  O83  1  0.25394000  0.42193000  0.08160000  1.0 -0.5170038915
O  O84  1  0.22380000  0.35960000  0.15200000  1.0 -0.491468614
O  O85  1  0.29380000  0.37430000  0.41020000  1.0 -0.1493229285
O  O86  1  0.04900000  0.12600000  0.41280000  1.0 -0.1808861892
O  O87  1  0.16740000  0.26050000  0.08400000  1.0 0.1304778923
O  O88  1  0.06950000  0.19790000  0.40210000  1.0 -0.4075435389
O  O89  1  0.00500000  0.16850000  0.52230000  1.0 -0.0077895114
O  O90  1  0.18620000  0.27200000  0.07500000  1.0 -0.0630643793
O  O91  1  0.41943000  0.04813000  0.41480000  1.0 -0.5170038915
O  O92  1  0.35750000  0.04990000  0.37970000  1.0 -0.1808861892
O  O93  1  0.42193000  0.16799000  0.08160000  1.0 -0.5170038915
O  O94  1  0.35960000  0.13580000  0.15200000  1.0 -0.491468614
O  O95  1  0.37430000  0.08050000  0.41020000  1.0 -0.1493229285
O  O96  1  0.12600000  0.07700000  0.41280000  1.0 -0.1808861892
O  O97  1  0.26050000  0.09310000  0.08400000  1.0 0.1230231367
O  O98  1  0.19790000  0.12840000  0.40210000  1.0 -0.4075435389
O  O99  1  0.16850000  0.16350000  0.52230000  1.0 -0.0077895114
O  O100  1  0.27200000  0.08580000  0.07500000  1.0 -0.0630643793
O  O101  1  0.95187000  0.37130000  0.41480000  1.0 -0.5170038915
O  O102  1  0.95010000  0.30760000  0.37970000  1.0 -0.1808861892
O  O103  1  0.83201000  0.25394000  0.08160000  1.0 -0.5170038915
O  O104  1  0.86420000  0.22380000  0.15200000  1.0 -0.4841555061
O  O105  1  0.91950000  0.29380000  0.41020000  1.0 -0.144233669
O  O106  1  0.92300000  0.04900000  0.41280000  1.0 -0.1808861892
O  O107  1  0.90690000  0.16740000  0.08400000  1.0 0.1304778923
O  O108  1  0.87160000  0.06950000  0.40210000  1.0 -0.4075435389
O  O109  1  0.83650000  0.00500000  0.52230000  1.0 -0.0077895114
O  O110  1  0.91420000  0.18620000  0.07500000  1.0 -0.0630643793
O  O111  1  0.62870000  0.58057000  0.41480000  1.0 -0.5170038915
O  O112  1  0.69240000  0.64250000  0.37970000  1.0 -0.1889749227
O  O113  1  0.74606000  0.57807000  0.08160000  1.0 -0.5170038915
O  O114  1  0.77620000  0.64040000  0.15200000  1.0 -0.4841555061
O  O115  1  0.70620000  0.62570000  0.41020000  1.0 -0.1493229285
O  O116  1  0.95100000  0.87400000  0.41280000  1.0 -0.1808861892
O  O117  1  0.83260000  0.73950000  0.08400000  1.0 0.1304778923
O  O118  1  0.93050000  0.80210000  0.40210000  1.0 -0.4075435389
O  O119  1  0.99500000  0.83150000  0.52230000  1.0 -0.0077895114
O  O120  1  0.81380000  0.72800000  0.07500000  1.0 -0.0630643793
O  O121  1  0.37130000  0.95187000  0.41480000  1.0 -0.5170038915
O  O122  1  0.30760000  0.95010000  0.37970000  1.0 -0.1889749227
O  O123  1  0.25394000  0.83201000  0.08160000  1.0 -0.5170038915
O  O124  1  0.22380000  0.86420000  0.15200000  1.0 -0.491468614
O  O125  1  0.29380000  0.91950000  0.41020000  1.0 -0.1493229285
O  O126  1  0.04900000  0.92300000  0.41280000  1.0 -0.1808861892
O  O127  1  0.16740000  0.90690000  0.08400000  1.0 0.1304778923
O  O128  1  0.06950000  0.87160000  0.40210000  1.0 -0.4075435389
O  O129  1  0.00500000  0.83650000  0.52230000  1.0 -0.0077895114
O  O130  1  0.18620000  0.91420000  0.07500000  1.0 -0.0630643793
O  O131  1  0.58057000  0.62870000  0.41480000  1.0 -0.5170038915
O  O132  1  0.64250000  0.69240000  0.37970000  1.0 -0.1889749227
O  O133  1  0.57807000  0.74606000  0.08160000  1.0 -0.5170038915
O  O134  1  0.64040000  0.77620000  0.15200000  1.0 -0.491468614
O  O135  1  0.62570000  0.70620000  0.41020000  1.0 -0.1493229285
O  O136  1  0.87400000  0.95100000  0.41280000  1.0 -0.1808861892
O  O137  1  0.73950000  0.83260000  0.08400000  1.0 0.1304778923
O  O138  1  0.80210000  0.93050000  0.40210000  1.0 -0.4075435389
O  O139  1  0.83150000  0.99500000  0.52230000  1.0 -0.0077895114
O  O140  1  0.72800000  0.81380000  0.07500000  1.0 -0.0630643793
O  O141  1  0.04813000  0.41943000  0.41480000  1.0 -0.5170038915
O  O142  1  0.04990000  0.35750000  0.37970000  1.0 -0.1889749227
O  O143  1  0.16799000  0.42193000  0.08160000  1.0 -0.5170038915
O  O144  1  0.13580000  0.35960000  0.15200000  1.0 -0.491468614
O  O145  1  0.08050000  0.37430000  0.41020000  1.0 -0.1493229285
O  O146  1  0.07700000  0.12600000  0.41280000  1.0 -0.1808861892
O  O147  1  0.09310000  0.26050000  0.08400000  1.0 0.1304778923
O  O148  1  0.12840000  0.19790000  0.40210000  1.0 -0.4075435389
O  O149  1  0.16350000  0.16850000  0.52230000  1.0 -0.0077895114
O  O150  1  0.08580000  0.27200000  0.07500000  1.0 -0.0630643793
O  O151  1  0.62870000  0.04813000  0.41480000  1.0 -0.5170038915
O  O152  1  0.69240000  0.04990000  0.37970000  1.0 -0.1808861892
O  O153  1  0.74606000  0.16799000  0.08160000  1.0 -0.5170038915
O  O154  1  0.77620000  0.13580000  0.15200000  1.0 -0.4841555061
O  O155  1  0.70620000  0.08050000  0.41020000  1.0 -0.1493229285
O  O156  1  0.95100000  0.07700000  0.41280000  1.0 -0.1808861892
O  O157  1  0.83260000  0.09310000  0.08400000  1.0 0.1304778923
O  O158  1  0.93050000  0.12840000  0.40210000  1.0 -0.4075435389
O  O159  1  0.99500000  0.16350000  0.52230000  1.0 -0.0077895114
O  O160  1  0.81380000  0.08580000  0.07500000  1.0 -0.0630643793
O  O161  1  0.41943000  0.37130000  0.41480000  1.0 -0.5170038915
O  O162  1  0.35750000  0.30760000  0.37970000  1.0 -0.1889749227
O  O163  1  0.42193000  0.25394000  0.08160000  1.0 -0.5170038915
O  O164  1  0.35960000  0.22380000  0.15200000  1.0 -0.491468614
O  O165  1  0.37430000  0.29380000  0.41020000  1.0 -0.144233669
O  O166  1  0.12600000  0.04900000  0.41280000  1.0 -0.1808861892
O  O167  1  0.26050000  0.16740000  0.08400000  1.0 0.1304778923
O  O168  1  0.19790000  0.06950000  0.40210000  1.0 -0.4075435389
O  O169  1  0.16850000  0.00500000  0.52230000  1.0 -0.0077895114
O  O170  1  0.27200000  0.18620000  0.07500000  1.0 -0.0630643793
O  O171  1  0.95187000  0.58057000  0.41480000  1.0 -0.5170038915
O  O172  1  0.95010000  0.64250000  0.37970000  1.0 -0.1889749227
O  O173  1  0.83201000  0.57807000  0.08160000  1.0 -0.5170038915
O  O174  1  0.86420000  0.64040000  0.15200000  1.0 -0.4841555061
O  O175  1  0.91950000  0.62570000  0.41020000  1.0 -0.1493229285
O  O176  1  0.92300000  0.87400000  0.41280000  1.0 -0.1808861892
O  O177  1  0.90690000  0.73950000  0.08400000  1.0 0.1304778923
O  O178  1  0.87160000  0.80210000  0.40210000  1.0 -0.4075435389
O  O179  1  0.83650000  0.83150000  0.52230000  1.0 -0.0077895114
O  O180  1  0.91420000  0.72800000  0.07500000  1.0 -0.0630643793
O  O181  1  0.41943000  0.04813000  0.58520000  1.0 -0.5170038915
O  O182  1  0.35750000  0.04990000  0.62030000  1.0 -0.1808861892
O  O183  1  0.42193000  0.16799000  0.91840000  1.0 -0.5170038915
O  O184  1  0.35960000  0.13580000  0.84800000  1.0 -0.4841555061
O  O185  1  0.37430000  0.08050000  0.58980000  1.0 -0.1493229285
O  O186  1  0.12600000  0.07700000  0.58720000  1.0 -0.1808861892
O  O187  1  0.26050000  0.09310000  0.91600000  1.0 0.1304778923
O  O188  1  0.19790000  0.12840000  0.59790000  1.0 -0.4075435389
O  O189  1  0.16850000  0.16350000  0.47770000  1.0 -0.0077895114
O  O190  1  0.27200000  0.08580000  0.92500000  1.0 -0.0630643793
O  O191  1  0.95187000  0.37130000  0.58520000  1.0 -0.5170038915
O  O192  1  0.95010000  0.30760000  0.62030000  1.0 -0.1808861892
O  O193  1  0.83201000  0.25394000  0.91840000  1.0 -0.5170038915
O  O194  1  0.86420000  0.22380000  0.84800000  1.0 -0.491468614
O  O195  1  0.91950000  0.29380000  0.58980000  1.0 -0.144233669
O  O196  1  0.92300000  0.04900000  0.58720000  1.0 -0.1808861892
O  O197  1  0.90690000  0.16740000  0.91600000  1.0 0.1304778923
O  O198  1  0.87160000  0.06950000  0.59790000  1.0 -0.4075435389
O  O199  1  0.83650000  0.00500000  0.47770000  1.0 -0.0077895114
O  O200  1  0.91420000  0.18620000  0.92500000  1.0 -0.0630643793
O  O201  1  0.62870000  0.58057000  0.58520000  1.0 -0.5170038915
O  O202  1  0.69240000  0.64250000  0.62030000  1.0 -0.1889749227
O  O203  1  0.74606000  0.57807000  0.91840000  1.0 -0.5170038915
O  O204  1  0.77620000  0.64040000  0.84800000  1.0 -0.4841555061
O  O205  1  0.70620000  0.62570000  0.58980000  1.0 -0.1493229285
O  O206  1  0.95100000  0.87400000  0.58720000  1.0 -0.1808861892
O  O207  1  0.83260000  0.73950000  0.91600000  1.0 0.1304778923
O  O208  1  0.93050000  0.80210000  0.59790000  1.0 -0.4075435389
O  O209  1  0.99500000  0.83150000  0.47770000  1.0 -0.0077895114
O  O210  1  0.81380000  0.72800000  0.92500000  1.0 -0.0630643793
O  O211  1  0.58057000  0.95187000  0.58520000  1.0 -0.5170038915
O  O212  1  0.64250000  0.95010000  0.62030000  1.0 -0.1889749227
O  O213  1  0.57807000  0.83201000  0.91840000  1.0 -0.5170038915
O  O214  1  0.64040000  0.86420000  0.84800000  1.0 -0.491468614
O  O215  1  0.62570000  0.91950000  0.58980000  1.0 -0.1493229285
O  O216  1  0.87400000  0.92300000  0.58720000  1.0 -0.1808861892
O  O217  1  0.73950000  0.90690000  0.91600000  1.0 0.1304778923
O  O218  1  0.80210000  0.87160000  0.59790000  1.0 -0.4075435389
O  O219  1  0.83150000  0.83650000  0.47770000  1.0 -0.0077895114
O  O220  1  0.72800000  0.91420000  0.92500000  1.0 -0.0630643793
O  O221  1  0.04813000  0.62870000  0.58520000  1.0 -0.5170038915
O  O222  1  0.04990000  0.69240000  0.62030000  1.0 -0.1889749227
O  O223  1  0.16799000  0.74606000  0.91840000  1.0 -0.5170038915
O  O224  1  0.13580000  0.77620000  0.84800000  1.0 -0.491468614
O  O225  1  0.08050000  0.70620000  0.58980000  1.0 -0.144233669
O  O226  1  0.07700000  0.95100000  0.58720000  1.0 -0.1808861892
O  O227  1  0.09310000  0.83260000  0.91600000  1.0 0.1304778923
O  O228  1  0.12840000  0.93050000  0.59790000  1.0 -0.4075435389
O  O229  1  0.16350000  0.99500000  0.47770000  1.0 -0.0077895114
O  O230  1  0.08580000  0.81380000  0.92500000  1.0 -0.0630643793
O  O231  1  0.37130000  0.41943000  0.58520000  1.0 -0.5170038915
O  O232  1  0.30760000  0.35750000  0.62030000  1.0 -0.1808861892
O  O233  1  0.25394000  0.42193000  0.91840000  1.0 -0.5170038915
O  O234  1  0.22380000  0.35960000  0.84800000  1.0 -0.491468614
O  O235  1  0.29380000  0.37430000  0.58980000  1.0 -0.1493229285
O  O236  1  0.04900000  0.12600000  0.58720000  1.0 -0.1808861892
O  O237  1  0.16740000  0.26050000  0.91600000  1.0 0.1304778923
O  O238  1  0.06950000  0.19790000  0.59790000  1.0 -0.4075435389
O  O239  1  0.00500000  0.16850000  0.47770000  1.0 -0.0077895114
O  O240  1  0.18620000  0.27200000  0.92500000  1.0 -0.0630643793
O  O241  1  0.66983000  0.00000000  0.50000000  1.0 -0.8444130769
O  O242  1  0.33017000  0.33017000  0.50000000  1.0 -0.8444130769
O  O243  1  0.00000000  0.66983000  0.50000000  1.0 -0.8444130769
O  O244  1  0.33017000  0.00000000  0.50000000  1.0 -0.8444130769
O  O245  1  0.66983000  0.66983000  0.50000000  1.0 -0.8444130769
O  O246  1  0.00000000  0.33017000  0.50000000  1.0 -0.8444130769
O  O247  1  0.82725000  0.17275000  0.00000000  1.0 -0.771105225
O  O248  1  0.34550000  0.17275000  0.00000000  1.0 -0.771105225
O  O249  1  0.82725000  0.65450000  0.00000000  1.0 -0.771105225
O  O250  1  0.17275000  0.82725000  0.00000000  1.0 -0.771105225
O  O251  1  0.65450000  0.82725000  0.00000000  1.0 -0.771105225
O  O252  1  0.17275000  0.34550000  0.00000000  1.0 -0.771105225
O  O253  1  0.85745000  0.14255000  0.78500000  1.0 -0.3285752387
O  O254  1  0.86730000  0.13270000  0.84840000  1.0 0.0978030432
O  O255  1  0.28510000  0.14255000  0.78500000  1.0 -0.3285752387
O  O256  1  0.26540000  0.13270000  0.84840000  1.0 0.0978030432
O  O257  1  0.85745000  0.71490000  0.78500000  1.0 -0.3285752387
O  O258  1  0.86730000  0.73460000  0.84840000  1.0 0.0978030432
O  O259  1  0.14255000  0.85745000  0.78500000  1.0 -0.3285752387
O  O260  1  0.13270000  0.86730000  0.84840000  1.0 0.0978030432
O  O261  1  0.71490000  0.85745000  0.78500000  1.0 -0.3285752387
O  O262  1  0.73460000  0.86730000  0.84840000  1.0 0.0978030432
O  O263  1  0.14255000  0.28510000  0.78500000  1.0 -0.3285752387
O  O264  1  0.13270000  0.26540000  0.84840000  1.0 0.0978030432
O  O265  1  0.71490000  0.85745000  0.21500000  1.0 -0.3285752387
O  O266  1  0.73460000  0.86730000  0.15160000  1.0 0.0978030432
O  O267  1  0.14255000  0.85745000  0.21500000  1.0 -0.3285752387
O  O268  1  0.13270000  0.86730000  0.15160000  1.0 0.0978030432
O  O269  1  0.14255000  0.28510000  0.21500000  1.0 -0.3285752387
O  O270  1  0.13270000  0.26540000  0.15160000  1.0 0.0978030432
O  O271  1  0.28510000  0.14255000  0.21500000  1.0 -0.3285752387
O  O272  1  0.26540000  0.13270000  0.15160000  1.0 0.0978030432
O  O273  1  0.85745000  0.14255000  0.21500000  1.0 -0.3285752387
O  O274  1  0.86730000  0.13270000  0.15160000  1.0 0.0978030432
O  O275  1  0.85745000  0.71490000  0.21500000  1.0 -0.3285752387
O  O276  1  0.86730000  0.73460000  0.15160000  1.0 0.0978030432
