# DDEC6 charges by PACMAN v1.1 (https://github.com/mtap-research/PACMAN-charge/)
data_AMUFIZ_FSR_pacman
_symmetry_space_group_name_H-M   'P 1'
_cell_length_a   9.08380000
_cell_length_b   9.61570000
_cell_length_c   12.42520000
_cell_angle_alpha   93.48800000
_cell_angle_beta   104.35700000
_cell_angle_gamma   113.99300000
_symmetry_Int_Tables_number   1
_chemical_formula_structural   CoH7C7NO5
_chemical_formula_sum   'Co4 H28 C28 N4 O20'
_cell_volume   944.40281925
_cell_formula_units_Z   4
loop_
 _symmetry_equiv_pos_site_id
 _symmetry_equiv_pos_as_xyz
  1  'x, y, z'
loop_
 _atom_site_type_symbol
 _atom_site_label
 _atom_site_symmetry_multiplicity
 _atom_site_fract_x
 _atom_site_fract_y
 _atom_site_fract_z
 _atom_site_occupancy
 _atom_site_charge
Co  Co1  1  0.86686000  0.00499000  0.20410000  1.0 0.8605731364
Co  Co2  1  0.13314000  0.99501000  0.79590000  1.0 0.8605731364
Co  Co3  1  0.50000000  0.00000000  0.00000000  1.0 1.0438532765
Co  Co4  1  0.00000000  0.50000000  0.00000000  1.0 1.0707009967
H  H1  1  0.71940000  0.37010000  0.32110000  1.0 0.1200016996
H  H2  1  0.28060000  0.62990000  0.67890000  1.0 0.1200016996
H  H3  1  0.63110000  0.46550000  0.18150000  1.0 0.1200016996
H  H4  1  0.36890000  0.53450000  0.81850000  1.0 0.1200016996
H  H5  1  0.35890000  0.37280000  0.09820000  1.0 0.1071227763
H  H6  1  0.64110000  0.62720000  0.90180000  1.0 0.1071227763
H  H7  1  0.38530000  0.34860000  0.28100000  1.0 0.0911562354
H  H8  1  0.61470000  0.65140000  0.71900000  1.0 0.0911562354
H  H9  1  0.43850000  0.07940000  0.25940000  1.0 0.1285965901
H  H10  1  0.56150000  0.92060000  0.74060000  1.0 0.1285965901
H  H11  1  0.50250000  0.20360000  0.36980000  1.0 0.1071227763
H  H12  1  0.49750000  0.79640000  0.63020000  1.0 0.1071227763
H  H13  1  0.98310000  0.88440000  0.41390000  1.0 0.1200016996
H  H14  1  0.01690000  0.11560000  0.58610000  1.0 0.1200016996
H  H15  1  0.87870000  0.72130000  0.52920000  1.0 0.1521328326
H  H16  1  0.12130000  0.27870000  0.47080000  1.0 0.1521328326
H  H17  1  0.41070000  0.61690000  0.33370000  1.0 0.1373094704
H  H18  1  0.58930000  0.38310000  0.66630000  1.0 0.1373094704
H  H19  1  0.52830000  0.79050000  0.22520000  1.0 0.1285965901
H  H20  1  0.47170000  0.20950000  0.77480000  1.0 0.1285965901
H  H21  1  0.84600000  0.19660000  0.95690000  1.0 0.4114999409
H  H22  1  0.15400000  0.80340000  0.04310000  1.0 0.4114999409
H  H23  1  0.11210000  0.37070000  0.15450000  1.0 0.3099775847
H  H24  1  0.88790000  0.62930000  0.84550000  1.0 0.3099775847
H  H25  1  0.03060000  0.24570000  0.95140000  1.0 0.4015493925
H  H26  1  0.96940000  0.75430000  0.04860000  1.0 0.4015493925
H  H27  1  0.20990000  0.43350000  0.14230000  1.0 0.3014357622
H  H28  1  0.79010000  0.56650000  0.85770000  1.0 0.3014357622
C  C1  1  0.66850000  0.34650000  0.05970000  1.0 0.5986298259
C  C2  1  0.33150000  0.65350000  0.94030000  1.0 0.5986298259
C  C3  1  0.29580000  0.14950000  0.02510000  1.0 0.6085228558
C  C4  1  0.70420000  0.85050000  0.97490000  1.0 0.6085228558
C  C5  1  0.17390000  0.14860000  0.22080000  1.0 0.5728472407
C  C6  1  0.82610000  0.85140000  0.77920000  1.0 0.5728472407
C  C7  1  0.73260000  0.18460000  0.24420000  1.0 0.5845022138
C  C8  1  0.26740000  0.81540000  0.75580000  1.0 0.5845022138
C  C9  1  0.64440000  0.28420000  0.25790000  1.0 -0.1206747655
C  C10  1  0.35560000  0.71580000  0.74210000  1.0 -0.1206747655
C  C11  1  0.58750000  0.35480000  0.15250000  1.0 -0.138914245
C  C12  1  0.41250000  0.64520000  0.84750000  1.0 -0.138914245
C  C13  1  0.39150000  0.29060000  0.11950000  1.0 -0.1491974656
C  C14  1  0.60850000  0.70940000  0.88050000  1.0 -0.1491974656
C  C15  1  0.35500000  0.25060000  0.23280000  1.0 -0.138914245
C  C16  1  0.64500000  0.74940000  0.76720000  1.0 -0.138914245
C  C17  1  0.48130000  0.18880000  0.28850000  1.0 -0.1915378187
C  C18  1  0.51870000  0.81120000  0.71150000  1.0 -0.1915378187
C  C19  1  0.86660000  0.83070000  0.39790000  1.0 0.0911562354
C  C20  1  0.13340000  0.16930000  0.60210000  1.0 0.0911562354
C  C21  1  0.80540000  0.73250000  0.46700000  1.0 -0.1750283305
C  C22  1  0.19460000  0.26750000  0.53300000  1.0 -0.1750283305
C  C23  1  0.63330000  0.64980000  0.44350000  1.0 0.1800398465
C  C24  1  0.36670000  0.35020000  0.55650000  1.0 0.1800398465
C  C25  1  0.52740000  0.67120000  0.35130000  1.0 -0.1915378187
C  C26  1  0.47260000  0.32880000  0.64870000  1.0 -0.1915378187
C  C27  1  0.59910000  0.77480000  0.28630000  1.0 0.0911562354
C  C28  1  0.40090000  0.22520000  0.71370000  1.0 0.0911562354
N  N1  1  0.57600000  0.54490000  0.51740000  1.0 -0.1206747655
N  N2  1  0.42400000  0.45510000  0.48260000  1.0 -0.1206747655
N  N3  1  0.76830000  0.85470000  0.30750000  1.0 -0.2462687407
N  N4  1  0.23170000  0.14530000  0.69250000  1.0 -0.2462687407
O  O1  1  0.60200000  0.23030000  0.98240000  1.0 -0.5707708959
O  O2  1  0.39800000  0.76970000  0.01760000  1.0 -0.5707708959
O  O3  1  0.80580000  0.46060000  0.07150000  1.0 -0.542380548
O  O4  1  0.19420000  0.53940000  0.92850000  1.0 -0.542380548
O  O5  1  0.30620000  0.02640000  0.04390000  1.0 -0.5707708959
O  O6  1  0.69380000  0.97360000  0.95610000  1.0 -0.5707708959
O  O7  1  0.21040000  0.16410000  0.93230000  1.0 -0.542380548
O  O8  1  0.78960000  0.83590000  0.06770000  1.0 -0.542380548
O  O9  1  0.06020000  0.17450000  0.15550000  1.0 -0.5477832917
O  O10  1  0.93980000  0.82550000  0.84450000  1.0 -0.5477832917
O  O11  1  0.13170000  0.04180000  0.27650000  1.0 -0.5146295492
O  O12  1  0.86830000  0.95820000  0.72350000  1.0 -0.5146295492
O  O13  1  0.66270000  0.06620000  0.16430000  1.0 -0.5865771834
O  O14  1  0.33730000  0.93380000  0.83570000  1.0 -0.5865771834
O  O15  1  0.87090000  0.21190000  0.30930000  1.0 -0.5013508265
O  O16  1  0.12910000  0.78810000  0.69070000  1.0 -0.5013508265
O  O17  1  0.93320000  0.26580000  0.92930000  1.0 -0.740633494
O  O18  1  0.06680000  0.73420000  0.07070000  1.0 -0.740633494
O  O19  1  0.13670000  0.47780000  0.15500000  1.0 -0.6911843483
O  O20  1  0.86330000  0.52220000  0.84500000  1.0 -0.6911843483
