# DDEC6 charges by PACMAN v1.1 (https://github.com/mtap-research/PACMAN-charge/)
data_AMUFEV_ASR_pacman
_symmetry_space_group_name_H-M   'P 1'
_cell_length_a   9.14610000
_cell_length_b   9.65870000
_cell_length_c   12.76170000
_cell_angle_alpha   94.66400000
_cell_angle_beta   103.83700000
_cell_angle_gamma   114.83000000
_symmetry_Int_Tables_number   1
_chemical_formula_structural   Co2H11C15NO8
_chemical_formula_sum   'Co4 H22 C30 N2 O16'
_cell_volume   972.09619640
_cell_formula_units_Z   2
loop_
 _symmetry_equiv_pos_site_id
 _symmetry_equiv_pos_as_xyz
  1  'x, y, z'
loop_
 _atom_site_type_symbol
 _atom_site_label
 _atom_site_symmetry_multiplicity
 _atom_site_fract_x
 _atom_site_fract_y
 _atom_site_fract_z
 _atom_site_occupancy
 _atom_site_charge
Co  Co1  1  0.63443000  0.48781000  0.30123000  1.0 0.8580039465
Co  Co2  1  0.36557000  0.51219000  0.69877000  1.0 0.8580039465
Co  Co3  1  0.00000000  0.50000000  0.50000000  1.0 1.0625413381
Co  Co4  1  0.50000000  0.00000000  0.50000000  1.0 0.854989978
H  H1  1  0.10960000  0.14510000  0.22550000  1.0 0.0817690738
H  H2  1  0.89040000  0.85490000  0.77450000  1.0 0.0817690738
H  H3  1  0.13690000  0.12500000  0.40260000  1.0 0.1198385493
H  H4  1  0.86310000  0.87500000  0.59740000  1.0 0.1198385493
H  H5  1  0.78330000  0.12390000  0.18510000  1.0 0.0994181507
H  H6  1  0.21670000  0.87610000  0.81490000  1.0 0.0994181507
H  H7  1  0.00250000  0.29140000  0.14030000  1.0 0.0994181507
H  H8  1  0.99750000  0.70860000  0.85970000  1.0 0.0994181507
H  H9  1  0.06730000  0.41730000  0.24930000  1.0 0.1198385493
H  H10  1  0.93270000  0.58270000  0.75070000  1.0 0.1198385493
H  H11  1  0.83930000  0.97070000  0.94460000  1.0 0.1277090931
H  H12  1  0.16070000  0.02930000  0.05540000  1.0 0.1277090931
H  H13  1  0.86510000  0.03010000  0.32000000  1.0 0.109872038
H  H14  1  0.13490000  0.96990000  0.68000000  1.0 0.109872038
H  H15  1  0.07990000  0.87790000  0.16880000  1.0 0.1369675645
H  H16  1  0.92010000  0.12210000  0.83120000  1.0 0.1369675645
H  H17  1  0.51180000  0.59690000  0.09870000  1.0 0.109872038
H  H18  1  0.48820000  0.40310000  0.90130000  1.0 0.109872038
H  H19  1  0.61000000  0.76510000  0.98760000  1.0 0.1502125733
H  H20  1  0.39000000  0.23490000  0.01240000  1.0 0.1502125733
H  H21  1  0.96980000  0.70680000  0.27570000  1.0 0.1277090931
H  H22  1  0.03020000  0.29320000  0.72430000  1.0 0.1277090931
C  C1  1  0.76800000  0.31010000  0.26072000  1.0 0.5847184383
C  C2  1  0.23200000  0.68990000  0.73928000  1.0 0.5847184383
C  C3  1  0.32720000  0.34530000  0.28450000  1.0 0.5616815411
C  C4  1  0.67280000  0.65470000  0.71550000  1.0 0.5616815411
C  C5  1  0.14340000  0.24490000  0.27324000  1.0 -0.1131146173
C  C6  1  0.85660000  0.75510000  0.72676000  1.0 -0.1131146173
C  C7  1  0.82860000  0.15280000  0.43905000  1.0 0.6022811853
C  C8  1  0.17140000  0.84720000  0.56095000  1.0 0.6022811853
C  C9  1  0.20300000  0.35010000  0.47567000  1.0 0.6169237816
C  C10  1  0.79700000  0.64990000  0.52433000  1.0 0.6169237816
C  C11  1  0.10620000  0.20720000  0.38247000  1.0 -0.1326880581
C  C12  1  0.89380000  0.79280000  0.61753000  1.0 -0.1326880581
C  C13  1  0.85790000  0.21130000  0.24751000  1.0 -0.1131146173
C  C14  1  0.14210000  0.78870000  0.75249000  1.0 -0.1131146173
C  C15  1  0.02250000  0.30700000  0.21950000  1.0 -0.1985908947
C  C16  1  0.97750000  0.69300000  0.78050000  1.0 -0.1985908947
C  C17  1  0.92000000  0.95750000  0.99700000  1.0 -0.1432657852
C  C18  1  0.08000000  0.04250000  0.00300000  1.0 -0.1432657852
C  C19  1  0.85800000  0.84430000  0.06550000  1.0 0.1579224192
C  C20  1  0.14200000  0.15570000  0.93450000  1.0 0.1579224192
C  C21  1  0.91060000  0.14190000  0.34912000  1.0 -0.1432657852
C  C22  1  0.08940000  0.85810000  0.65088000  1.0 -0.1432657852
C  C23  1  0.96330000  0.82250000  0.15310000  1.0 -0.1985908947
C  C24  1  0.03670000  0.17750000  0.84690000  1.0 -0.1985908947
C  C25  1  0.62790000  0.65460000  0.11350000  1.0 0.0994181507
C  C26  1  0.37210000  0.34540000  0.88650000  1.0 0.0994181507
C  C27  1  0.68630000  0.75610000  0.04610000  1.0 -0.192301882
C  C28  1  0.31370000  0.24390000  0.95390000  1.0 -0.192301882
C  C29  1  0.89630000  0.71900000  0.21710000  1.0 0.0881886133
C  C30  1  0.10370000  0.28100000  0.78290000  1.0 0.0881886133
N  N1  1  0.72880000  0.63490000  0.19836000  1.0 -0.2439701832
N  N2  1  0.27120000  0.36510000  0.80164000  1.0 -0.2439701832
O  O1  1  0.28890000  0.33970000  0.56498000  1.0 -0.5254262961
O  O2  1  0.71110000  0.66030000  0.43502000  1.0 -0.5254262961
O  O3  1  0.43670000  0.31550000  0.34398000  1.0 -0.4987537838
O  O4  1  0.56330000  0.68450000  0.65602000  1.0 -0.4987537838
O  O5  1  0.37200000  0.45300000  0.23420000  1.0 -0.5216103471
O  O6  1  0.62800000  0.54700000  0.76580000  1.0 -0.5216103471
O  O7  1  0.68810000  0.03980000  0.42575000  1.0 -0.5581664718
O  O8  1  0.31190000  0.96020000  0.57425000  1.0 -0.5581664718
O  O9  1  0.89820000  0.26994000  0.51672000  1.0 -0.5686862147
O  O10  1  0.10180000  0.73006000  0.48328000  1.0 -0.5686862147
O  O11  1  0.19381000  0.47430000  0.45822000  1.0 -0.5686862147
O  O12  1  0.80619000  0.52570000  0.54178000  1.0 -0.5686862147
O  O13  1  0.83620000  0.42910000  0.33900000  1.0 -0.5686862147
O  O14  1  0.16380000  0.57090000  0.66100000  1.0 -0.5686862147
O  O15  1  0.63000000  0.27960000  0.19409000  1.0 -0.5216103471
O  O16  1  0.37000000  0.72040000  0.80591000  1.0 -0.5216103471
