# DDEC6 charges by PACMAN v1.1 (https://github.com/mtap-research/PACMAN-charge/)
data_AMUPIJ_FSR_pacman
_symmetry_space_group_name_H-M   'P 1'
_cell_length_a   15.70100000
_cell_length_b   15.70100000
_cell_length_c   17.65300000
_cell_angle_alpha   63.41930000
_cell_angle_beta   116.58100000
_cell_angle_gamma   97.22200000
_symmetry_Int_Tables_number   1
_chemical_formula_structural   Zn3H36C44(NO2)8
_chemical_formula_sum   'Zn6 H72 C88 N16 O32'
_cell_volume   3465.37781700
_cell_formula_units_Z   2
loop_
 _symmetry_equiv_pos_site_id
 _symmetry_equiv_pos_as_xyz
  1  'x, y, z'
loop_
 _atom_site_type_symbol
 _atom_site_label
 _atom_site_symmetry_multiplicity
 _atom_site_fract_x
 _atom_site_fract_y
 _atom_site_fract_z
 _atom_site_occupancy
 _atom_site_charge
Zn  Zn1  1  0.16262000  0.16262000  0.75000000  1.0 0.7632819969
Zn  Zn2  1  0.83738000  0.83738000  0.25000000  1.0 0.7632819969
Zn  Zn3  1  0.69130000  0.98578000  0.83351000  1.0 0.7727573175
Zn  Zn4  1  0.98578000  0.69130000  0.66649000  1.0 0.7727573175
Zn  Zn5  1  0.30870000  0.01422000  0.16649000  1.0 0.7727573175
Zn  Zn6  1  0.01422000  0.30870000  0.33351000  1.0 0.7727573175
H  H1  1  0.89610000  0.45370000  0.57230000  1.0 0.138646366
H  H2  1  0.45370000  0.89610000  0.92770000  1.0 0.138646366
H  H3  1  0.10390000  0.54630000  0.42770000  1.0 0.138646366
H  H4  1  0.54630000  0.10390000  0.07230000  1.0 0.138646366
H  H5  1  0.93360000  0.40340000  0.53190000  1.0 0.1291598009
H  H6  1  0.40340000  0.93360000  0.96810000  1.0 0.1291598009
H  H7  1  0.06640000  0.59660000  0.46810000  1.0 0.1291598009
H  H8  1  0.59660000  0.06640000  0.03190000  1.0 0.1291598009
H  H9  1  0.74710000  0.43310000  0.49160000  1.0 0.1107238368
H  H10  1  0.43310000  0.74710000  0.00840000  1.0 0.1107238368
H  H11  1  0.25290000  0.56690000  0.50840000  1.0 0.1107238368
H  H12  1  0.56690000  0.25290000  0.99160000  1.0 0.1107238368
H  H13  1  0.77960000  0.39200000  0.44020000  1.0 0.1107238368
H  H14  1  0.39200000  0.77960000  0.05980000  1.0 0.1107238368
H  H15  1  0.22040000  0.60800000  0.55980000  1.0 0.1107238368
H  H16  1  0.60800000  0.22040000  0.94020000  1.0 0.1107238368
H  H17  1  0.82790000  0.29570000  0.64400000  1.0 0.1208434473
H  H18  1  0.29570000  0.82790000  0.85600000  1.0 0.1208434473
H  H19  1  0.17210000  0.70430000  0.35600000  1.0 0.1208434473
H  H20  1  0.70430000  0.17210000  0.14400000  1.0 0.1208434473
H  H21  1  0.90720000  0.27980000  0.61790000  1.0 0.138646366
H  H22  1  0.27980000  0.90720000  0.88210000  1.0 0.138646366
H  H23  1  0.09280000  0.72020000  0.38210000  1.0 0.138646366
H  H24  1  0.72020000  0.09280000  0.11790000  1.0 0.138646366
H  H25  1  0.71700000  0.26740000  0.51630000  1.0 0.1107238368
H  H26  1  0.26740000  0.71700000  0.98370000  1.0 0.1107238368
H  H27  1  0.28300000  0.73260000  0.48370000  1.0 0.1107238368
H  H28  1  0.73260000  0.28300000  0.01630000  1.0 0.1107238368
H  H29  1  0.80620000  0.22700000  0.51850000  1.0 0.138646366
H  H30  1  0.22700000  0.80620000  0.98150000  1.0 0.138646366
H  H31  1  0.19380000  0.77300000  0.48150000  1.0 0.138646366
H  H32  1  0.77300000  0.19380000  0.01850000  1.0 0.138646366
H  H33  1  0.91670000  0.07350000  0.68940000  1.0 0.138646366
H  H34  1  0.07350000  0.91670000  0.81060000  1.0 0.138646366
H  H35  1  0.08330000  0.92650000  0.31060000  1.0 0.138646366
H  H36  1  0.92650000  0.08330000  0.18940000  1.0 0.138646366
H  H37  1  0.68270000  0.17410000  0.65750000  1.0 0.1208434473
H  H38  1  0.17410000  0.68270000  0.84250000  1.0 0.1208434473
H  H39  1  0.31730000  0.82590000  0.34250000  1.0 0.1208434473
H  H40  1  0.82590000  0.31730000  0.15750000  1.0 0.1208434473
H  H41  1  0.86970000  0.95670000  0.80300000  1.0 0.1291598009
H  H42  1  0.95670000  0.86970000  0.69700000  1.0 0.1291598009
H  H43  1  0.13030000  0.04330000  0.19700000  1.0 0.1291598009
H  H44  1  0.04330000  0.13030000  0.30300000  1.0 0.1291598009
H  H45  1  0.37120000  0.16180000  0.57240000  1.0 0.1291598009
H  H46  1  0.16180000  0.37120000  0.92760000  1.0 0.1291598009
H  H47  1  0.62880000  0.83820000  0.42760000  1.0 0.1291598009
H  H48  1  0.83820000  0.62880000  0.07240000  1.0 0.1291598009
H  H49  1  0.40060000  0.88700000  0.74290000  1.0 0.1291598009
H  H50  1  0.88700000  0.40060000  0.75710000  1.0 0.1291598009
H  H51  1  0.59940000  0.11300000  0.25710000  1.0 0.1291598009
H  H52  1  0.11300000  0.59940000  0.24290000  1.0 0.1291598009
H  H53  1  0.23990000  0.87730000  0.67430000  1.0 0.1208434473
H  H54  1  0.87730000  0.23990000  0.82570000  1.0 0.1208434473
H  H55  1  0.76010000  0.12270000  0.32570000  1.0 0.1208434473
H  H56  1  0.12270000  0.76010000  0.17430000  1.0 0.1208434473
H  H57  1  0.10910000  0.92630000  0.48860000  1.0 0.1107238368
H  H58  1  0.92630000  0.10910000  0.01140000  1.0 0.1107238368
H  H59  1  0.89090000  0.07370000  0.51140000  1.0 0.1107238368
H  H60  1  0.07370000  0.89090000  0.98860000  1.0 0.1107238368
H  H61  1  0.88020000  0.65780000  0.24030000  1.0 0.1291598009
H  H62  1  0.65780000  0.88020000  0.25970000  1.0 0.1291598009
H  H63  1  0.11980000  0.34220000  0.75970000  1.0 0.1291598009
H  H64  1  0.34220000  0.11980000  0.74030000  1.0 0.1291598009
H  H65  1  0.85100000  0.66060000  0.44200000  1.0 0.1208434473
H  H66  1  0.66060000  0.85100000  0.05800000  1.0 0.1208434473
H  H67  1  0.14900000  0.33940000  0.55800000  1.0 0.1208434473
H  H68  1  0.33940000  0.14900000  0.94200000  1.0 0.1208434473
H  H69  1  0.88180000  0.49300000  0.34360000  1.0 0.138646366
H  H70  1  0.49300000  0.88180000  0.15640000  1.0 0.138646366
H  H71  1  0.11820000  0.50700000  0.65640000  1.0 0.138646366
H  H72  1  0.50700000  0.11820000  0.84360000  1.0 0.138646366
C  C1  1  0.88110000  0.44370000  0.51750000  1.0 -0.1924224239
C  C2  1  0.44370000  0.88110000  0.98250000  1.0 -0.1924224239
C  C3  1  0.11890000  0.55630000  0.48250000  1.0 -0.1924224239
C  C4  1  0.55630000  0.11890000  0.01750000  1.0 -0.1924224239
C  C5  1  0.79920000  0.40000000  0.49690000  1.0 -0.1473189298
C  C6  1  0.40000000  0.79920000  0.00310000  1.0 -0.1473189298
C  C7  1  0.20080000  0.60000000  0.50310000  1.0 -0.1473189298
C  C8  1  0.60000000  0.20080000  0.99690000  1.0 -0.1473189298
C  C9  1  0.83980000  0.29640000  0.59430000  1.0 -0.2059343387
C  C10  1  0.29640000  0.83980000  0.90570000  1.0 -0.2059343387
C  C11  1  0.16020000  0.70360000  0.40570000  1.0 -0.2059343387
C  C12  1  0.70360000  0.16020000  0.09430000  1.0 -0.2059343387
C  C13  1  0.78310000  0.24010000  0.55520000  1.0 -0.1193279442
C  C14  1  0.24010000  0.78310000  0.94480000  1.0 -0.1193279442
C  C15  1  0.21690000  0.75990000  0.44480000  1.0 -0.1193279442
C  C16  1  0.75990000  0.21690000  0.05520000  1.0 -0.1193279442
C  C17  1  0.86260000  0.07900000  0.69630000  1.0 -0.0805976507
C  C18  1  0.07900000  0.86260000  0.80370000  1.0 -0.0805976507
C  C19  1  0.13740000  0.92100000  0.30370000  1.0 -0.0805976507
C  C20  1  0.92100000  0.13740000  0.19630000  1.0 -0.0805976507
C  C21  1  0.73520000  0.13320000  0.67960000  1.0 0.1291598009
C  C22  1  0.13320000  0.73520000  0.82040000  1.0 0.1291598009
C  C23  1  0.26480000  0.86680000  0.32040000  1.0 0.1291598009
C  C24  1  0.86680000  0.26480000  0.17960000  1.0 0.1291598009
C  C25  1  0.83690000  0.01650000  0.75840000  1.0 -0.0299140466
C  C26  1  0.01650000  0.83690000  0.74160000  1.0 -0.0299140466
C  C27  1  0.16310000  0.98350000  0.24160000  1.0 -0.0299140466
C  C28  1  0.98350000  0.16310000  0.25840000  1.0 -0.0299140466
C  C29  1  0.50860000  0.02880000  0.71800000  1.0 0.5476240176
C  C30  1  0.02880000  0.50860000  0.78200000  1.0 0.5476240176
C  C31  1  0.49140000  0.97120000  0.28200000  1.0 0.5476240176
C  C32  1  0.97120000  0.49140000  0.21800000  1.0 0.5476240176
C  C33  1  0.40280000  0.02080000  0.67200000  1.0 -0.0299140466
C  C34  1  0.02080000  0.40280000  0.82800000  1.0 -0.0299140466
C  C35  1  0.59720000  0.97920000  0.32800000  1.0 -0.0299140466
C  C36  1  0.97920000  0.59720000  0.17200000  1.0 -0.0299140466
C  C37  1  0.34330000  0.10610000  0.59530000  1.0 -0.1087758341
C  C38  1  0.10610000  0.34330000  0.90470000  1.0 -0.1087758341
C  C39  1  0.65670000  0.89390000  0.40470000  1.0 -0.1087758341
C  C40  1  0.89390000  0.65670000  0.09530000  1.0 -0.1087758341
C  C41  1  0.36160000  0.94280000  0.69520000  1.0 -0.0872507956
C  C42  1  0.94280000  0.36160000  0.80480000  1.0 -0.0872507956
C  C43  1  0.63840000  0.05720000  0.30480000  1.0 -0.0872507956
C  C44  1  0.05720000  0.63840000  0.19520000  1.0 -0.0872507956
C  C45  1  0.26450000  0.93610000  0.65470000  1.0 -0.1473189298
C  C46  1  0.93610000  0.26450000  0.84530000  1.0 -0.1473189298
C  C47  1  0.73550000  0.06390000  0.34530000  1.0 -0.1473189298
C  C48  1  0.06390000  0.73550000  0.15470000  1.0 -0.1473189298
C  C49  1  0.20180000  0.02040000  0.58220000  1.0 0.0800126601
C  C50  1  0.02040000  0.20180000  0.91780000  1.0 0.0800126601
C  C51  1  0.79820000  0.97960000  0.41780000  1.0 0.0800126601
C  C52  1  0.97960000  0.79820000  0.08220000  1.0 0.0800126601
C  C53  1  0.24560000  0.10620000  0.55550000  1.0 -0.0805976507
C  C54  1  0.10620000  0.24560000  0.94450000  1.0 -0.0805976507
C  C55  1  0.75440000  0.89380000  0.44450000  1.0 -0.0805976507
C  C56  1  0.89380000  0.75440000  0.05550000  1.0 -0.0805976507
C  C57  1  0.18870000  0.19710000  0.48230000  1.0 0.5382680479
C  C58  1  0.19710000  0.18870000  0.01770000  1.0 0.5382680479
C  C59  1  0.81130000  0.80290000  0.51770000  1.0 0.5382680479
C  C60  1  0.80290000  0.81130000  0.98230000  1.0 0.5382680479
C  C61  1  0.09880000  0.01180000  0.54190000  1.0 0.0379126925
C  C62  1  0.01180000  0.09880000  0.95810000  1.0 0.0379126925
C  C63  1  0.90120000  0.98820000  0.45810000  1.0 0.0379126925
C  C64  1  0.98820000  0.90120000  0.04190000  1.0 0.0379126925
C  C65  1  0.06530000  0.95630000  0.49310000  1.0 -0.1600813609
C  C66  1  0.95630000  0.06530000  0.00690000  1.0 -0.1600813609
C  C67  1  0.93470000  0.04370000  0.50690000  1.0 -0.1600813609
C  C68  1  0.04370000  0.93470000  0.99310000  1.0 -0.1600813609
C  C69  1  0.03140000  0.05640000  0.54960000  1.0 -0.0635231104
C  C70  1  0.05640000  0.03140000  0.95040000  1.0 -0.0635231104
C  C71  1  0.96860000  0.94360000  0.45040000  1.0 -0.0635231104
C  C72  1  0.94360000  0.96860000  0.04960000  1.0 -0.0635231104
C  C73  1  0.05830000  0.11330000  0.60430000  1.0 0.5382680479
C  C74  1  0.11330000  0.05830000  0.89570000  1.0 0.5382680479
C  C75  1  0.94170000  0.88670000  0.39570000  1.0 0.5382680479
C  C76  1  0.88670000  0.94170000  0.10430000  1.0 0.5382680479
C  C77  1  0.87340000  0.63680000  0.29540000  1.0 -0.0130559629
C  C78  1  0.63680000  0.87340000  0.20460000  1.0 -0.0130559629
C  C79  1  0.12660000  0.36320000  0.70460000  1.0 -0.0130559629
C  C80  1  0.36320000  0.12660000  0.79540000  1.0 -0.0130559629
C  C81  1  0.85820000  0.63920000  0.40370000  1.0 0.1588440198
C  C82  1  0.63920000  0.85820000  0.09630000  1.0 0.1588440198
C  C83  1  0.14180000  0.36080000  0.59630000  1.0 0.1588440198
C  C84  1  0.36080000  0.14180000  0.90370000  1.0 0.1588440198
C  C85  1  0.87580000  0.54660000  0.35110000  1.0 -0.1087758341
C  C86  1  0.54660000  0.87580000  0.14890000  1.0 -0.1087758341
C  C87  1  0.12420000  0.45340000  0.64890000  1.0 -0.1087758341
C  C88  1  0.45340000  0.12420000  0.85110000  1.0 -0.1087758341
N  N1  1  0.79530000  0.15390000  0.64320000  1.0 0.0502868923
N  N2  1  0.15390000  0.79530000  0.85680000  1.0 0.0502868923
N  N3  1  0.20470000  0.84610000  0.35680000  1.0 0.0502868923
N  N4  1  0.84610000  0.20470000  0.14320000  1.0 0.0502868923
N  N5  1  0.75700000  0.04860000  0.75060000  1.0 -0.2903988552
N  N6  1  0.04860000  0.75700000  0.74940000  1.0 -0.2903988552
N  N7  1  0.24300000  0.95140000  0.24940000  1.0 -0.2903988552
N  N8  1  0.95140000  0.24300000  0.25060000  1.0 -0.2903988552
N  N9  1  0.86710000  0.55090000  0.42320000  1.0 0.0502868923
N  N10  1  0.55090000  0.86710000  0.07680000  1.0 0.0502868923
N  N11  1  0.13290000  0.44910000  0.57680000  1.0 0.0502868923
N  N12  1  0.44910000  0.13290000  0.92320000  1.0 0.0502868923
N  N13  1  0.86040000  0.69420000  0.32520000  1.0 -0.2605537218
N  N14  1  0.69420000  0.86040000  0.17480000  1.0 -0.2605537218
N  N15  1  0.13960000  0.30580000  0.67480000  1.0 -0.2605537218
N  N16  1  0.30580000  0.13960000  0.82520000  1.0 -0.2605537218
O  O1  1  0.55850000  0.95030000  0.78180000  1.0 -0.5308084678
O  O2  1  0.95030000  0.55850000  0.71820000  1.0 -0.5308084678
O  O3  1  0.44150000  0.04970000  0.21820000  1.0 -0.5308084678
O  O4  1  0.04970000  0.44150000  0.28180000  1.0 -0.5308084678
O  O5  1  0.54320000  0.10480000  0.69400000  1.0 -0.5234098923
O  O6  1  0.10480000  0.54320000  0.80600000  1.0 -0.5234098923
O  O7  1  0.45680000  0.89520000  0.30600000  1.0 -0.5234098923
O  O8  1  0.89520000  0.45680000  0.19400000  1.0 -0.5234098923
O  O9  1  0.11650000  0.21290000  0.43630000  1.0 -0.1431092773
O  O10  1  0.21290000  0.11650000  0.06370000  1.0 -0.1431092773
O  O11  1  0.88350000  0.78710000  0.56370000  1.0 -0.1431092773
O  O12  1  0.78710000  0.88350000  0.93630000  1.0 -0.1431092773
O  O13  1  0.21570000  0.26970000  0.50980000  1.0 -0.437839624
O  O14  1  0.26970000  0.21570000  0.99020000  1.0 -0.437839624
O  O15  1  0.78430000  0.73030000  0.49020000  1.0 -0.437839624
O  O16  1  0.73030000  0.78430000  0.00980000  1.0 -0.437839624
O  O17  1  0.13690000  0.08770000  0.67910000  1.0 -0.5414174241
O  O18  1  0.08770000  0.13690000  0.82090000  1.0 -0.5414174241
O  O19  1  0.86310000  0.91230000  0.32090000  1.0 -0.5414174241
O  O20  1  0.91230000  0.86310000  0.17910000  1.0 -0.5414174241
O  O21  1  0.00080000  0.18080000  0.57720000  1.0 -0.5098763448
O  O22  1  0.18080000  0.00080000  0.92280000  1.0 -0.5098763448
O  O23  1  0.99920000  0.81920000  0.42280000  1.0 -0.5098763448
O  O24  1  0.81920000  0.99920000  0.07720000  1.0 -0.5098763448
O  O25  1  0.69540000  0.06920000  0.89550000  1.0 -0.4032801282
O  O26  1  0.06920000  0.69540000  0.60450000  1.0 -0.4083506953
O  O27  1  0.30460000  0.93080000  0.10450000  1.0 -0.4083506953
O  O28  1  0.93080000  0.30460000  0.39550000  1.0 -0.4032801282
O  O29  1  0.20790000  0.22870000  0.39640000  1.0 -0.3323234808
O  O30  1  0.22870000  0.20790000  0.10360000  1.0 -0.3323234808
O  O31  1  0.79210000  0.77130000  0.60360000  1.0 -0.3323234808
O  O32  1  0.77130000  0.79210000  0.89640000  1.0 -0.3323234808
