# DDEC6 charges by PACMAN v1.1 (https://github.com/mtap-research/PACMAN-charge/)
data_AMUWUB_ASR_pacman
_symmetry_space_group_name_H-M   'P 1'
_cell_length_a   10.03580000
_cell_length_b   15.97280000
_cell_length_c   21.55900000
_cell_angle_alpha   98.33300000
_cell_angle_beta   93.78200000
_cell_angle_gamma   107.75900000
_symmetry_Int_Tables_number   1
_chemical_formula_structural   Cu3H21C37(NO4)3
_chemical_formula_sum   'Cu6 H42 C74 N6 O24'
_cell_volume   3234.14392939
_cell_formula_units_Z   2
loop_
 _symmetry_equiv_pos_site_id
 _symmetry_equiv_pos_as_xyz
  1  'x, y, z'
loop_
 _atom_site_type_symbol
 _atom_site_label
 _atom_site_symmetry_multiplicity
 _atom_site_fract_x
 _atom_site_fract_y
 _atom_site_fract_z
 _atom_site_occupancy
 _atom_site_charge
Cu  Cu1  1  0.62647000  0.70005000  0.45814000  1.0 0.720691374
Cu  Cu2  1  0.37353000  0.29995000  0.54186000  1.0 0.720691374
Cu  Cu3  1  0.95006000  0.59228000  0.36693000  1.0 0.8033293993
Cu  Cu4  1  0.04994000  0.40772000  0.63307000  1.0 0.8050130517
Cu  Cu5  1  0.06656000  0.41343000  0.20136000  1.0 0.7564900429
Cu  Cu6  1  0.93344000  0.58657000  0.79864000  1.0 0.7500374825
H  H1  1  0.12040000  0.42770000  0.43150000  1.0 0.1501175449
H  H2  1  0.87960000  0.57230000  0.56850000  1.0 0.1501175449
H  H3  1  0.84980000  0.79430000  0.55700000  1.0 0.1214871489
H  H4  1  0.15020000  0.20570000  0.44300000  1.0 0.1214871489
H  H5  1  0.07310000  0.89400000  0.57100000  1.0 0.1378613398
H  H6  1  0.92690000  0.10600000  0.42900000  1.0 0.1378613398
H  H7  1  0.02790000  0.91610000  0.39100000  1.0 0.1501175449
H  H8  1  0.97210000  0.08390000  0.60900000  1.0 0.1501175449
H  H9  1  0.80770000  0.81460000  0.38190000  1.0 0.1277132666
H  H10  1  0.19230000  0.18540000  0.61810000  1.0 0.1277132666
H  H11  1  0.24960000  0.00860000  0.45370000  1.0 0.1277132666
H  H12  1  0.75040000  0.99140000  0.54630000  1.0 0.1277132666
H  H13  1  0.27230000  0.98540000  0.57390000  1.0 0.1094991178
H  H14  1  0.72770000  0.01460000  0.42610000  1.0 0.1094991178
H  H15  1  0.48360000  0.06030000  0.63900000  1.0 0.1214871489
H  H16  1  0.51640000  0.93970000  0.36100000  1.0 0.1214871489
H  H17  1  0.70410000  0.16700000  0.66360000  1.0 0.1277132666
H  H18  1  0.29590000  0.83300000  0.33640000  1.0 0.1277132666
H  H19  1  0.66980000  0.23330000  0.49300000  1.0 0.1277132666
H  H20  1  0.33020000  0.76670000  0.50700000  1.0 0.1277132666
H  H21  1  0.44770000  0.12470000  0.46910000  1.0 0.1214871489
H  H22  1  0.55230000  0.87530000  0.53090000  1.0 0.1214871489
H  H23  1  0.93850000  0.63950000  0.24510000  1.0 0.1277132666
H  H24  1  0.06150000  0.36050000  0.75490000  1.0 0.1277132666
H  H25  1  0.78120000  0.62470000  0.15860000  1.0 0.1378613398
H  H26  1  0.21880000  0.37530000  0.84140000  1.0 0.1378613398
H  H27  1  0.48640000  0.46890000  0.23990000  1.0 0.1501175449
H  H28  1  0.51360000  0.53110000  0.76010000  1.0 0.1501175449
H  H29  1  0.64700000  0.49130000  0.32540000  1.0 0.1214871489
H  H30  1  0.35300000  0.50870000  0.67460000  1.0 0.1214871489
H  H31  1  0.42230000  0.48640000  0.13290000  1.0 0.1214871489
H  H32  1  0.57770000  0.51360000  0.86710000  1.0 0.1214871489
H  H33  1  0.60470000  0.62030000  0.09020000  1.0 0.1214871489
H  H34  1  0.39530000  0.37970000  0.90980000  1.0 0.1214871489
H  H35  1  0.51640000  0.66900000  0.99880000  1.0 0.1378613398
H  H36  1  0.48360000  0.33100000  0.00120000  1.0 0.1378613398
H  H37  1  0.29610000  0.64870000  0.92020000  1.0 0.1378613398
H  H38  1  0.70390000  0.35130000  0.07980000  1.0 0.1378613398
H  H39  1  0.09380000  0.41690000  0.97640000  1.0 0.1277132666
H  H40  1  0.90620000  0.58310000  0.02360000  1.0 0.1277132666
H  H41  1  0.26860000  0.46100000  0.06320000  1.0 0.1214871489
H  H42  1  0.73140000  0.53900000  0.93680000  1.0 0.1214871489
C  C1  1  0.44490000  0.63830000  0.34520000  1.0 0.5247240773
C  C2  1  0.55510000  0.36170000  0.65480000  1.0 0.5247240773
C  C3  1  0.37550000  0.58310000  0.39230000  1.0 0.084849617
C  C4  1  0.62450000  0.41690000  0.60770000  1.0 0.084849617
C  C5  1  0.24820000  0.51260000  0.38470000  1.0 -0.0266415826
C  C6  1  0.75180000  0.48740000  0.61530000  1.0 -0.0266415826
C  C7  1  0.15630000  0.47960000  0.32130000  1.0 0.6029522927
C  C8  1  0.84370000  0.52040000  0.67870000  1.0 0.6029522927
C  C9  1  0.20380000  0.47520000  0.43640000  1.0 -0.0813635304
C  C10  1  0.79620000  0.52480000  0.56360000  1.0 -0.0813635304
C  C11  1  0.27990000  0.50650000  0.49554000  1.0 -0.0216536359
C  C12  1  0.72010000  0.49350000  0.50446000  1.0 -0.0216536359
C  C13  1  0.22360000  0.46340000  0.55060000  1.0 0.5764202685
C  C14  1  0.77640000  0.53660000  0.44940000  1.0 0.5764202685
C  C15  1  0.40690000  0.57620000  0.50090000  1.0 0.0734056704
C  C16  1  0.59310000  0.42380000  0.49910000  1.0 0.0734056704
C  C17  1  0.50800000  0.62280000  0.55920000  1.0 0.5277137668
C  C18  1  0.49200000  0.37720000  0.44080000  1.0 0.5277137668
C  C19  1  0.88570000  0.81910000  0.52270000  1.0 0.0895855059
C  C20  1  0.11430000  0.18090000  0.47730000  1.0 0.0895855059
C  C21  1  0.02070000  0.87950000  0.53150000  1.0 -0.2012631634
C  C22  1  0.97930000  0.12050000  0.46850000  1.0 -0.2012631634
C  C23  1  0.07750000  0.91810000  0.48270000  1.0 0.1501175449
C  C24  1  0.92250000  0.08190000  0.51730000  1.0 0.1501175449
C  C25  1  0.99470000  0.89250000  0.42610000  1.0 -0.2012631634
C  C26  1  0.00530000  0.10750000  0.57390000  1.0 -0.2012631634
C  C27  1  0.86160000  0.83130000  0.42110000  1.0 0.0895855059
C  C28  1  0.13840000  0.16870000  0.57890000  1.0 0.0895855059
C  C29  1  0.21990000  0.98490000  0.48920000  1.0 -0.13211959
C  C30  1  0.78010000  0.01510000  0.51080000  1.0 -0.13211959
C  C31  1  0.30400000  0.01180000  0.53970000  1.0 -0.1195310256
C  C32  1  0.69600000  0.98820000  0.46030000  1.0 -0.1195310256
C  C33  1  0.44610000  0.07950000  0.55190000  1.0 0.1094991178
C  C34  1  0.55390000  0.92050000  0.44810000  1.0 0.1094991178
C  C35  1  0.52120000  0.09430000  0.60900000  1.0 -0.1491239308
C  C36  1  0.47880000  0.90570000  0.39100000  1.0 -0.1491239308
C  C37  1  0.65340000  0.15900000  0.62430000  1.0 -0.0861202865
C  C38  1  0.34660000  0.84100000  0.37570000  1.0 -0.0861202865
C  C39  1  0.70790000  0.21090000  0.58060000  1.0 -0.0216536359
C  C40  1  0.29210000  0.78910000  0.41940000  1.0 -0.0216536359
C  C41  1  0.63280000  0.19840000  0.52260000  1.0 -0.108501612
C  C42  1  0.36720000  0.80160000  0.47740000  1.0 -0.108501612
C  C43  1  0.49970000  0.13260000  0.50810000  1.0 -0.1777541428
C  C44  1  0.50030000  0.86740000  0.49190000  1.0 -0.1777541428
C  C45  1  0.84650000  0.28400000  0.59850000  1.0 0.5277137668
C  C46  1  0.15350000  0.71600000  0.40150000  1.0 0.5247240773
C  C47  1  0.84500000  0.60530000  0.24490000  1.0 0.1094991178
C  C48  1  0.15500000  0.39470000  0.75510000  1.0 0.1094991178
C  C49  1  0.75120000  0.59580000  0.19200000  1.0 -0.1872973605
C  C50  1  0.24880000  0.40420000  0.80800000  1.0 -0.1872973605
C  C51  1  0.61430000  0.54340000  0.18970000  1.0 0.1561047197
C  C52  1  0.38570000  0.45660000  0.81030000  1.0 0.1561047197
C  C53  1  0.57850000  0.50520000  0.23980000  1.0 -0.1574182748
C  C54  1  0.42150000  0.49480000  0.76020000  1.0 -0.1574182748
C  C55  1  0.67610000  0.51870000  0.29120000  1.0 0.1094991178
C  C56  1  0.32390000  0.48130000  0.70880000  1.0 0.1094991178
C  C57  1  0.50710000  0.53200000  0.13480000  1.0 -0.1195310256
C  C58  1  0.49290000  0.46800000  0.86520000  1.0 -0.1195310256
C  C59  1  0.51860000  0.57720000  0.09110000  1.0 -0.108501612
C  C60  1  0.48140000  0.42280000  0.90890000  1.0 -0.108501612
C  C61  1  0.40210000  0.56540000  0.04060000  1.0 0.1094991178
C  C62  1  0.59790000  0.43460000  0.95940000  1.0 0.1094991178
C  C63  1  0.43020000  0.62510000  0.99810000  1.0 -0.1574182748
C  C64  1  0.56980000  0.37490000  0.00190000  1.0 -0.1574182748
C  C65  1  0.29490000  0.60860000  0.94750000  1.0 -0.0813635304
C  C66  1  0.70510000  0.39140000  0.05250000  1.0 -0.0813635304
C  C67  1  0.17650000  0.53440000  0.94490000  1.0 -0.0089787706
C  C68  1  0.82350000  0.46560000  0.05510000  1.0 -0.0089787706
C  C69  1  0.16660000  0.47090000  0.98260000  1.0 -0.108501612
C  C70  1  0.83340000  0.52910000  0.01740000  1.0 -0.108501612
C  C71  1  0.28010000  0.49670000  0.03220000  1.0 -0.1382496296
C  C72  1  0.71990000  0.50330000  0.96780000  1.0 -0.1382496296
C  C73  1  0.04540000  0.50470000  0.89190000  1.0 0.5451865108
C  C74  1  0.95460000  0.49530000  0.10810000  1.0 0.5443056137
N  N1  1  0.44740000  0.60980000  0.44987000  1.0 -0.2754123151
N  N2  1  0.55260000  0.39020000  0.55013000  1.0 -0.2754123151
N  N3  1  0.80630000  0.79530000  0.46850000  1.0 -0.2012631634
N  N4  1  0.19370000  0.20470000  0.53150000  1.0 -0.2012631634
N  N5  1  0.80910000  0.56880000  0.29442000  1.0 -0.2280552774
N  N6  1  0.19090000  0.43120000  0.70558000  1.0 -0.2280552774
O  O1  1  0.38380000  0.62850000  0.29195000  1.0 -0.4593414455
O  O2  1  0.61620000  0.37150000  0.70805000  1.0 -0.4593414455
O  O3  1  0.56540000  0.69600000  0.36685000  1.0 -0.5307604759
O  O4  1  0.43460000  0.30400000  0.63315000  1.0 -0.5307604759
O  O5  1  0.05460000  0.50710000  0.31373000  1.0 -0.5687585413
O  O6  1  0.94540000  0.49290000  0.68627000  1.0 -0.5687585413
O  O7  1  0.18840000  0.42780000  0.28094000  1.0 -0.5192898303
O  O8  1  0.81160000  0.57220000  0.71906000  1.0 -0.5192898303
O  O9  1  0.24520000  0.39360000  0.55853000  1.0 -0.5687585413
O  O10  1  0.75480000  0.60640000  0.44147000  1.0 -0.5687585413
O  O11  1  0.14830000  0.49787000  0.58304000  1.0 -0.4828638672
O  O12  1  0.85170000  0.50213000  0.41696000  1.0 -0.4828638672
O  O13  1  0.48680000  0.59740000  0.60918000  1.0 -0.4593414455
O  O14  1  0.51320000  0.40260000  0.39082000  1.0 -0.4593414455
O  O15  1  0.61150000  0.68848000  0.54975000  1.0 -0.5358236521
O  O16  1  0.38850000  0.31152000  0.45025000  1.0 -0.5358236521
O  O17  1  0.91670000  0.29210000  0.65140000  1.0 -0.5063194721
O  O18  1  0.08330000  0.70790000  0.34860000  1.0 -0.5063194721
O  O19  1  0.89240000  0.33978000  0.56330000  1.0 -0.4828638672
O  O20  1  0.10760000  0.66022000  0.43670000  1.0 -0.4828638672
O  O21  1  0.95250000  0.42450000  0.87900000  1.0 -0.5490787714
O  O22  1  0.04750000  0.57550000  0.12100000  1.0 -0.5490787714
O  O23  1  0.06290000  0.58470000  0.86815000  1.0 -0.6283534854
O  O24  1  0.93710000  0.41530000  0.13185000  1.0 -0.6283534854
