# DDEC6 charges by PACMAN v1.1 (https://github.com/mtap-research/PACMAN-charge/)
data_ANOMOG_ASR_pacman
_symmetry_space_group_name_H-M   'P 1'
_cell_length_a   18.56460000
_cell_length_b   18.56460000
_cell_length_c   19.74800000
_cell_angle_alpha   64.10910000
_cell_angle_beta   115.89100000
_cell_angle_gamma   121.91700000
_symmetry_Int_Tables_number   1
_chemical_formula_structural   Cu3H17C51N3O20
_chemical_formula_sum   'Cu6 H34 C102 N6 O40'
_cell_volume   5004.89421431
_cell_formula_units_Z   2
loop_
 _symmetry_equiv_pos_site_id
 _symmetry_equiv_pos_as_xyz
  1  'x, y, z'
loop_
 _atom_site_type_symbol
 _atom_site_label
 _atom_site_symmetry_multiplicity
 _atom_site_fract_x
 _atom_site_fract_y
 _atom_site_fract_z
 _atom_site_occupancy
 _atom_site_charge
Cu  Cu1  1  0.00400000  0.99600000  0.93671000  1.0 0.933752912
Cu  Cu2  1  0.99600000  0.00400000  0.06329000  1.0 0.933752912
Cu  Cu3  1  0.56870000  0.00886000  0.06166000  1.0 0.910800266
Cu  Cu4  1  0.00886000  0.56870000  0.93834000  1.0 0.910800266
Cu  Cu5  1  0.43130000  0.99114000  0.93834000  1.0 0.910800266
Cu  Cu6  1  0.99114000  0.43130000  0.06166000  1.0 0.910800266
H  H1  1  0.73030000  0.96890000  0.99060000  1.0 0.1402303398
H  H2  1  0.96890000  0.73030000  0.00940000  1.0 0.1402303398
H  H3  1  0.26970000  0.03110000  0.00940000  1.0 0.1402303398
H  H4  1  0.03110000  0.26970000  0.99060000  1.0 0.1402303398
H  H5  1  0.52850000  0.96990000  0.79030000  1.0 0.1493196484
H  H6  1  0.96990000  0.52850000  0.20970000  1.0 0.1493196484
H  H7  1  0.47150000  0.03010000  0.20970000  1.0 0.1493196484
H  H8  1  0.03010000  0.47150000  0.79030000  1.0 0.1493196484
H  H9  1  0.74730000  0.96410000  0.79360000  1.0 0.1493196484
H  H10  1  0.96410000  0.74730000  0.20640000  1.0 0.1493196484
H  H11  1  0.25270000  0.03590000  0.20640000  1.0 0.1493196484
H  H12  1  0.03590000  0.25270000  0.79360000  1.0 0.1493196484
H  H13  1  0.35170000  0.81470000  0.59780000  1.0 0.1402303398
H  H14  1  0.81470000  0.35170000  0.40220000  1.0 0.1402303398
H  H15  1  0.64830000  0.18530000  0.40220000  1.0 0.1402303398
H  H16  1  0.18530000  0.64830000  0.59780000  1.0 0.1402303398
H  H17  1  0.71290000  0.15610000  0.54280000  1.0 0.1301743564
H  H18  1  0.15610000  0.71290000  0.45720000  1.0 0.1301743564
H  H19  1  0.28710000  0.84390000  0.45720000  1.0 0.1301743564
H  H20  1  0.84390000  0.28710000  0.54280000  1.0 0.1301743564
H  H21  1  0.72440000  0.27560000  0.97840000  1.0 0.1493196484
H  H22  1  0.27560000  0.72440000  0.02160000  1.0 0.1493196484
H  H23  1  0.51180000  0.26960000  0.78870000  1.0 0.1402303398
H  H24  1  0.26960000  0.51180000  0.21130000  1.0 0.1402303398
H  H25  1  0.48820000  0.73040000  0.21130000  1.0 0.1402303398
H  H26  1  0.73040000  0.48820000  0.78870000  1.0 0.1402303398
H  H27  1  0.39230000  0.48610000  0.60940000  1.0 0.1130721298
H  H28  1  0.48610000  0.39230000  0.39060000  1.0 0.1130721298
H  H29  1  0.60770000  0.51390000  0.39060000  1.0 0.1130721298
H  H30  1  0.51390000  0.60770000  0.60940000  1.0 0.1130721298
H  H31  1  0.53070000  0.31630000  0.52600000  1.0 0.1301743564
H  H32  1  0.31630000  0.53070000  0.47400000  1.0 0.1301743564
H  H33  1  0.46930000  0.68370000  0.47400000  1.0 0.1301743564
H  H34  1  0.68370000  0.46930000  0.52600000  1.0 0.1301743564
C  C1  1  0.83290000  0.96730000  0.93860000  1.0 0.5122223821
C  C2  1  0.96730000  0.83290000  0.06140000  1.0 0.5122223821
C  C3  1  0.16710000  0.03270000  0.06140000  1.0 0.5122223821
C  C4  1  0.03270000  0.16710000  0.93860000  1.0 0.5122223821
C  C5  1  0.75050000  0.96250000  0.90130000  1.0 -0.0517447913
C  C6  1  0.96250000  0.75050000  0.09870000  1.0 -0.0517447913
C  C7  1  0.24950000  0.03750000  0.09870000  1.0 -0.0517447913
C  C8  1  0.03750000  0.24950000  0.90130000  1.0 -0.0517447913
C  C9  1  0.70480000  0.96480000  0.93820000  1.0 -0.0612782679
C  C10  1  0.96480000  0.70480000  0.06180000  1.0 -0.0612782679
C  C11  1  0.29520000  0.03520000  0.06180000  1.0 -0.0612782679
C  C12  1  0.03520000  0.29520000  0.93820000  1.0 -0.0612782679
C  C13  1  0.61900000  0.96080000  0.89770000  1.0 -0.0423582728
C  C14  1  0.96080000  0.61900000  0.10230000  1.0 -0.0423582728
C  C15  1  0.38100000  0.03920000  0.10230000  1.0 -0.0423582728
C  C16  1  0.03920000  0.38100000  0.89770000  1.0 -0.0423582728
C  C17  1  0.57540000  0.97060000  0.93360000  1.0 0.5482592461
C  C18  1  0.97060000  0.57540000  0.06640000  1.0 0.5482592461
C  C19  1  0.42460000  0.02940000  0.06640000  1.0 0.5482592461
C  C20  1  0.02940000  0.42460000  0.93360000  1.0 0.5482592461
C  C21  1  0.58370000  0.96710000  0.81920000  1.0 -0.1192464485
C  C22  1  0.96710000  0.58370000  0.18080000  1.0 -0.1192464485
C  C23  1  0.41630000  0.03290000  0.18080000  1.0 -0.1192464485
C  C24  1  0.03290000  0.41630000  0.81920000  1.0 -0.1192464485
C  C25  1  0.63790000  0.96890000  0.78600000  1.0 0.1839250576
C  C26  1  0.96890000  0.63790000  0.21400000  1.0 0.1839250576
C  C27  1  0.36210000  0.03110000  0.21400000  1.0 0.1839250576
C  C28  1  0.03110000  0.36210000  0.78600000  1.0 0.1839250576
C  C29  1  0.71650000  0.96510000  0.82090000  1.0 -0.1271806817
C  C30  1  0.96510000  0.71650000  0.17910000  1.0 -0.1271806817
C  C31  1  0.28350000  0.03490000  0.17910000  1.0 -0.1271806817
C  C32  1  0.03490000  0.28350000  0.82090000  1.0 -0.1271806817
C  C33  1  0.47100000  0.91740000  0.59210000  1.0 -0.0178012565
C  C34  1  0.91740000  0.47100000  0.40790000  1.0 -0.0178012565
C  C35  1  0.52900000  0.08260000  0.40790000  1.0 -0.0178012565
C  C36  1  0.08260000  0.52900000  0.59210000  1.0 -0.0178012565
C  C37  1  0.51500000  0.99140000  0.54010000  1.0 0.027313911
C  C38  1  0.99140000  0.51500000  0.45990000  1.0 0.027313911
C  C39  1  0.48500000  0.00860000  0.45990000  1.0 0.027313911
C  C40  1  0.00860000  0.48500000  0.54010000  1.0 0.027313911
C  C41  1  0.59970000  0.04670000  0.56770000  1.0 -0.0517447913
C  C42  1  0.04670000  0.59970000  0.43230000  1.0 -0.0517447913
C  C43  1  0.40030000  0.95330000  0.43230000  1.0 -0.0517447913
C  C44  1  0.95330000  0.40030000  0.56770000  1.0 -0.0517447913
C  C45  1  0.38520000  0.86300000  0.56320000  1.0 -0.0861594961
C  C46  1  0.86300000  0.38520000  0.43680000  1.0 -0.0861594961
C  C47  1  0.61480000  0.13700000  0.43680000  1.0 -0.0861594961
C  C48  1  0.13700000  0.61480000  0.56320000  1.0 -0.0861594961
C  C49  1  0.65390000  0.11990000  0.52070000  1.0 -0.09722297
C  C50  1  0.11990000  0.65390000  0.47930000  1.0 -0.09722297
C  C51  1  0.34610000  0.88010000  0.47930000  1.0 -0.09722297
C  C52  1  0.88010000  0.34610000  0.52070000  1.0 -0.09722297
C  C53  1  0.69660000  0.30340000  0.92830000  1.0 -0.0844360414
C  C54  1  0.30340000  0.69660000  0.07170000  1.0 -0.0844360414
C  C55  1  0.51980000  0.90920000  0.67990000  1.0 0.4330764663
C  C56  1  0.90920000  0.51980000  0.32010000  1.0 0.4330764663
C  C57  1  0.48020000  0.09080000  0.32010000  1.0 0.4330764663
C  C58  1  0.09080000  0.48020000  0.67990000  1.0 0.4330764663
C  C59  1  0.57230000  0.29750000  0.81410000  1.0 -0.1192464485
C  C60  1  0.29750000  0.57230000  0.18590000  1.0 -0.1192464485
C  C61  1  0.42770000  0.70250000  0.18590000  1.0 -0.1192464485
C  C62  1  0.70250000  0.42770000  0.81410000  1.0 -0.1192464485
C  C63  1  0.62520000  0.37480000  0.77880000  1.0 0.1598104414
C  C64  1  0.37480000  0.62520000  0.22120000  1.0 0.1598104414
C  C65  1  0.61170000  0.25730000  0.89350000  1.0 -0.0071247091
C  C66  1  0.25730000  0.61170000  0.10650000  1.0 -0.0071247091
C  C67  1  0.38830000  0.74270000  0.10650000  1.0 -0.0071247091
C  C68  1  0.74270000  0.38830000  0.89350000  1.0 -0.0071247091
C  C69  1  0.64890000  0.04350000  0.65340000  1.0 0.4465081793
C  C70  1  0.04350000  0.64890000  0.34660000  1.0 0.4465081793
C  C71  1  0.35110000  0.95650000  0.34660000  1.0 0.4465081793
C  C72  1  0.95650000  0.35110000  0.65340000  1.0 0.4465081793
C  C73  1  0.56250000  0.16450000  0.93170000  1.0 0.5944329974
C  C74  1  0.16450000  0.56250000  0.06830000  1.0 0.5944329974
C  C75  1  0.43750000  0.83550000  0.06830000  1.0 0.5944329974
C  C76  1  0.83550000  0.43750000  0.93170000  1.0 0.5944329974
C  C77  1  0.53710000  0.41290000  0.56340000  1.0 0.027313911
C  C78  1  0.41290000  0.53710000  0.43660000  1.0 0.027313911
C  C79  1  0.46290000  0.58710000  0.43660000  1.0 0.027313911
C  C80  1  0.58710000  0.46290000  0.56340000  1.0 0.027313911
C  C81  1  0.51800000  0.48200000  0.54080000  1.0 0.0219678421
C  C82  1  0.48200000  0.51800000  0.45920000  1.0 0.0219678421
C  C83  1  0.48620000  0.47040000  0.59710000  1.0 0.027313911
C  C84  1  0.47040000  0.48620000  0.40290000  1.0 0.027313911
C  C85  1  0.51380000  0.52960000  0.40290000  1.0 0.027313911
C  C86  1  0.52960000  0.51380000  0.59710000  1.0 0.027313911
C  C87  1  0.41340000  0.49200000  0.57030000  1.0 -0.0612782679
C  C88  1  0.49200000  0.41340000  0.42970000  1.0 -0.0612782679
C  C89  1  0.58660000  0.50800000  0.42970000  1.0 -0.0612782679
C  C90  1  0.50800000  0.58660000  0.57030000  1.0 -0.0612782679
C  C91  1  0.52200000  0.36800000  0.51010000  1.0 -0.1514796439
C  C92  1  0.36800000  0.52200000  0.48990000  1.0 -0.1514796439
C  C93  1  0.47800000  0.63200000  0.48990000  1.0 -0.1514796439
C  C94  1  0.63200000  0.47800000  0.51010000  1.0 -0.1514796439
C  C95  1  0.62460000  0.43600000  0.64000000  1.0 0.1402303398
C  C96  1  0.43600000  0.62460000  0.36000000  1.0 0.1402303398
C  C97  1  0.37540000  0.56400000  0.36000000  1.0 0.1402303398
C  C98  1  0.56400000  0.37540000  0.64000000  1.0 0.1402303398
C  C99  1  0.52070000  0.43730000  0.68120000  1.0 0.2332117324
C  C100  1  0.43730000  0.52070000  0.31880000  1.0 0.2332117324
C  C101  1  0.47930000  0.56270000  0.31880000  1.0 0.2332117324
C  C102  1  0.56270000  0.47930000  0.68120000  1.0 0.2332117324
N  N1  1  0.59700000  0.96880000  0.70040000  1.0 -0.2173393267
N  N2  1  0.96880000  0.59700000  0.29960000  1.0 -0.2173393267
N  N3  1  0.40300000  0.03120000  0.29960000  1.0 -0.2173393267
N  N4  1  0.03120000  0.40300000  0.70040000  1.0 -0.2173393267
N  N5  1  0.58510000  0.41490000  0.69550000  1.0 -0.0861594961
N  N6  1  0.41490000  0.58510000  0.30450000  1.0 -0.0861594961
O  O1  1  0.60840000  0.13240000  0.00040000  1.0 -0.5392277661
O  O2  1  0.13240000  0.60840000  0.99960000  1.0 -0.5392277661
O  O3  1  0.39160000  0.86760000  0.99960000  1.0 -0.5392277661
O  O4  1  0.86760000  0.39160000  0.00040000  1.0 -0.5392277661
O  O5  1  0.61590000  0.99090000  0.00300000  1.0 -0.5591802123
O  O6  1  0.99090000  0.61590000  0.99700000  1.0 -0.5591802123
O  O7  1  0.38410000  0.00910000  0.99700000  1.0 -0.5591802123
O  O8  1  0.00910000  0.38410000  0.00300000  1.0 -0.5591802123
O  O9  1  0.87990000  0.97070000  0.90350000  1.0 -0.4969273034
O  O10  1  0.97070000  0.87990000  0.09650000  1.0 -0.4969273034
O  O11  1  0.12010000  0.02930000  0.09650000  1.0 -0.4969273034
O  O12  1  0.02930000  0.12010000  0.90350000  1.0 -0.4969273034
O  O13  1  0.87590000  0.98250000  0.01100000  1.0 -0.5392277661
O  O14  1  0.98250000  0.87590000  0.98900000  1.0 -0.5392277661
O  O15  1  0.12410000  0.01750000  0.98900000  1.0 -0.5392277661
O  O16  1  0.01750000  0.12410000  0.01100000  1.0 -0.5392277661
O  O17  1  0.49950000  0.97590000  0.89920000  1.0 -0.5260456029
O  O18  1  0.97590000  0.49950000  0.10080000  1.0 -0.5260456029
O  O19  1  0.50050000  0.02410000  0.10080000  1.0 -0.5260456029
O  O20  1  0.02410000  0.50050000  0.89920000  1.0 -0.5260456029
O  O21  1  0.49190000  0.12010000  0.89370000  1.0 -0.4645071152
O  O22  1  0.12010000  0.49190000  0.10630000  1.0 -0.4645071152
O  O23  1  0.50810000  0.87990000  0.10630000  1.0 -0.4645071152
O  O24  1  0.87990000  0.50810000  0.89370000  1.0 -0.4645071152
O  O25  1  0.47810000  0.84170000  0.72280000  1.0 -0.4236774865
O  O26  1  0.84170000  0.47810000  0.27720000  1.0 -0.4236774865
O  O27  1  0.52190000  0.15830000  0.27720000  1.0 -0.4236774865
O  O28  1  0.15830000  0.52190000  0.72280000  1.0 -0.4236774865
O  O29  1  0.72170000  0.08490000  0.68200000  1.0 -0.3629775319
O  O30  1  0.08490000  0.72170000  0.31800000  1.0 -0.3629775319
O  O31  1  0.27830000  0.91510000  0.31800000  1.0 -0.3629775319
O  O32  1  0.91510000  0.27830000  0.68200000  1.0 -0.3629775319
O  O33  1  0.69730000  0.40890000  0.67110000  1.0 -0.3326793435
O  O34  1  0.40890000  0.69730000  0.32890000  1.0 -0.3326793435
O  O35  1  0.30270000  0.59110000  0.32890000  1.0 -0.3326793435
O  O36  1  0.59110000  0.30270000  0.67110000  1.0 -0.3326793435
O  O37  1  0.47520000  0.41800000  0.72570000  1.0 -0.2688317123
O  O38  1  0.41800000  0.47520000  0.27430000  1.0 -0.2688317123
O  O39  1  0.52480000  0.58200000  0.27430000  1.0 -0.2688317123
O  O40  1  0.58200000  0.52480000  0.72570000  1.0 -0.2688317123
