# DDEC6 charges by PACMAN v1.1 (https://github.com/mtap-research/PACMAN-charge/)
data_ANUGIA_ASR_pacman
_symmetry_space_group_name_H-M   'P 1'
_cell_length_a   17.58380000
_cell_length_b   17.58380000
_cell_length_c   17.58380000
_cell_angle_alpha   96.82990000
_cell_angle_beta   96.82990000
_cell_angle_gamma   96.82990000
_symmetry_Int_Tables_number   1
_chemical_formula_structural   CuH7(C7O2)2
_chemical_formula_sum   'Cu6 H42 C84 O24'
_cell_volume   5310.79981095
_cell_formula_units_Z   6
loop_
 _symmetry_equiv_pos_site_id
 _symmetry_equiv_pos_as_xyz
  1  'x, y, z'
loop_
 _atom_site_type_symbol
 _atom_site_label
 _atom_site_symmetry_multiplicity
 _atom_site_fract_x
 _atom_site_fract_y
 _atom_site_fract_z
 _atom_site_occupancy
 _atom_site_charge
Cu  Cu1  1  0.09534000  0.69283000  0.09534000  1.0 0.8501293735
Cu  Cu2  1  0.69283000  0.09534000  0.09534000  1.0 0.8501293735
Cu  Cu3  1  0.09534000  0.09534000  0.69283000  1.0 0.8501293735
Cu  Cu4  1  0.83683000  0.14822000  0.14822000  1.0 0.8714800155
Cu  Cu5  1  0.14822000  0.14822000  0.83683000  1.0 0.8714800155
Cu  Cu6  1  0.14822000  0.83683000  0.14822000  1.0 0.8714800155
H  H1  1  0.51190000  0.78690000  0.16160000  1.0 0.1211359179
H  H2  1  0.78690000  0.16160000  0.51190000  1.0 0.1211359179
H  H3  1  0.16160000  0.51190000  0.78690000  1.0 0.1211359179
H  H4  1  0.78690000  0.51190000  0.16160000  1.0 0.1211359179
H  H5  1  0.16160000  0.78690000  0.51190000  1.0 0.1211359179
H  H6  1  0.51190000  0.16160000  0.78690000  1.0 0.1211359179
H  H7  1  0.39140000  0.81640000  0.16980000  1.0 0.1330073266
H  H8  1  0.81640000  0.16980000  0.39140000  1.0 0.1330073266
H  H9  1  0.16980000  0.39140000  0.81640000  1.0 0.1330073266
H  H10  1  0.81640000  0.39140000  0.16980000  1.0 0.1330073266
H  H11  1  0.16980000  0.81640000  0.39140000  1.0 0.1330073266
H  H12  1  0.39140000  0.16980000  0.81640000  1.0 0.1330073266
H  H13  1  0.43250000  0.57460000  0.07290000  1.0 0.1139884716
H  H14  1  0.57460000  0.07290000  0.43250000  1.0 0.1139884716
H  H15  1  0.07290000  0.43250000  0.57460000  1.0 0.1139884716
H  H16  1  0.57460000  0.43250000  0.07290000  1.0 0.1139884716
H  H17  1  0.07290000  0.57460000  0.43250000  1.0 0.1139884716
H  H18  1  0.43250000  0.07290000  0.57460000  1.0 0.1139884716
H  H19  1  0.30800000  0.60470000  0.07280000  1.0 0.1330073266
H  H20  1  0.60470000  0.07280000  0.30800000  1.0 0.1330073266
H  H21  1  0.07280000  0.30800000  0.60470000  1.0 0.1330073266
H  H22  1  0.60470000  0.30800000  0.07280000  1.0 0.1330073266
H  H23  1  0.07280000  0.60470000  0.30800000  1.0 0.1330073266
H  H24  1  0.30800000  0.07280000  0.60470000  1.0 0.1330073266
H  H25  1  0.54615000  0.54615000  0.11640000  1.0 0.1139884716
H  H26  1  0.54615000  0.11640000  0.54615000  1.0 0.1139884716
H  H27  1  0.11640000  0.54615000  0.54615000  1.0 0.1139884716
H  H28  1  0.61350000  0.76470000  0.10350000  1.0 0.1139884716
H  H29  1  0.76470000  0.10350000  0.61350000  1.0 0.1139884716
H  H30  1  0.10350000  0.61350000  0.76470000  1.0 0.1139884716
H  H31  1  0.76470000  0.61350000  0.10350000  1.0 0.1139884716
H  H32  1  0.10350000  0.76470000  0.61350000  1.0 0.1139884716
H  H33  1  0.61350000  0.10350000  0.76470000  1.0 0.1139884716
H  H34  1  0.92985000  0.92985000  0.12630000  1.0 0.1372640755
H  H35  1  0.92985000  0.12630000  0.92985000  1.0 0.1372640755
H  H36  1  0.12630000  0.92985000  0.92985000  1.0 0.1372640755
H  H37  1  0.70200000  0.85290000  0.11190000  1.0 0.1211359179
H  H38  1  0.85290000  0.11190000  0.70200000  1.0 0.1211359179
H  H39  1  0.11190000  0.70200000  0.85290000  1.0 0.1211359179
H  H40  1  0.85290000  0.70200000  0.11190000  1.0 0.1211359179
H  H41  1  0.11190000  0.85290000  0.70200000  1.0 0.1211359179
H  H42  1  0.70200000  0.11190000  0.85290000  1.0 0.1211359179
C  C1  1  0.33600000  0.71270000  0.11710000  1.0 -0.0144154868
C  C2  1  0.71270000  0.11710000  0.33600000  1.0 -0.0144154868
C  C3  1  0.11710000  0.33600000  0.71270000  1.0 -0.0144154868
C  C4  1  0.71270000  0.33600000  0.11710000  1.0 -0.0144154868
C  C5  1  0.11710000  0.71270000  0.33600000  1.0 -0.0144154868
C  C6  1  0.33600000  0.11710000  0.71270000  1.0 -0.0144154868
C  C7  1  0.47050000  0.74860000  0.14290000  1.0 -0.1775355102
C  C8  1  0.74860000  0.14290000  0.47050000  1.0 -0.1775355102
C  C9  1  0.14290000  0.47050000  0.74860000  1.0 -0.1775355102
C  C10  1  0.74860000  0.47050000  0.14290000  1.0 -0.1775355102
C  C11  1  0.14290000  0.74860000  0.47050000  1.0 -0.1775355102
C  C12  1  0.47050000  0.14290000  0.74860000  1.0 -0.1748428815
C  C13  1  0.39850000  0.76770000  0.14720000  1.0 -0.0955854281
C  C14  1  0.76770000  0.14720000  0.39850000  1.0 -0.0955854281
C  C15  1  0.14720000  0.39850000  0.76770000  1.0 -0.0955854281
C  C16  1  0.76770000  0.39850000  0.14720000  1.0 -0.0955854281
C  C17  1  0.14720000  0.76770000  0.39850000  1.0 -0.0955854281
C  C18  1  0.39850000  0.14720000  0.76770000  1.0 -0.0955854281
C  C19  1  0.48830000  0.67620000  0.11260000  1.0 0.0756995565
C  C20  1  0.67620000  0.11260000  0.48830000  1.0 0.0756995565
C  C21  1  0.11260000  0.48830000  0.67620000  1.0 0.0756995565
C  C22  1  0.67620000  0.48830000  0.11260000  1.0 0.0748086995
C  C23  1  0.11260000  0.67620000  0.48830000  1.0 0.0756995565
C  C24  1  0.48830000  0.11260000  0.67620000  1.0 0.0748086995
C  C25  1  0.42600000  0.62520000  0.09030000  1.0 -0.1619894752
C  C26  1  0.62520000  0.09030000  0.42600000  1.0 -0.1619894752
C  C27  1  0.09030000  0.42600000  0.62520000  1.0 -0.1619894752
C  C28  1  0.62520000  0.42600000  0.09030000  1.0 -0.1619894752
C  C29  1  0.09030000  0.62520000  0.42600000  1.0 -0.1619894752
C  C30  1  0.42600000  0.09030000  0.62520000  1.0 -0.1619894752
C  C31  1  0.34940000  0.64310000  0.09110000  1.0 -0.0910776976
C  C32  1  0.64310000  0.09110000  0.34940000  1.0 -0.0910776976
C  C33  1  0.09110000  0.34940000  0.64310000  1.0 -0.0910776976
C  C34  1  0.64310000  0.34940000  0.09110000  1.0 -0.0910776976
C  C35  1  0.09110000  0.64310000  0.34940000  1.0 -0.0910776976
C  C36  1  0.34940000  0.09110000  0.64310000  1.0 -0.0910776976
C  C37  1  0.25390000  0.72900000  0.11930000  1.0 0.5726876434
C  C38  1  0.72900000  0.11930000  0.25390000  1.0 0.5726876434
C  C39  1  0.11930000  0.25390000  0.72900000  1.0 0.5726876434
C  C40  1  0.72900000  0.25390000  0.11930000  1.0 0.5726876434
C  C41  1  0.11930000  0.72900000  0.25390000  1.0 0.5726876434
C  C42  1  0.25390000  0.11930000  0.72900000  1.0 0.5726876434
C  C43  1  0.79650000  0.98580000  0.11970000  1.0 0.5845550573
C  C44  1  0.98580000  0.11970000  0.79650000  1.0 0.5845550573
C  C45  1  0.11970000  0.79650000  0.98580000  1.0 0.5845550573
C  C46  1  0.98580000  0.79650000  0.11970000  1.0 0.5845550573
C  C47  1  0.11970000  0.98580000  0.79650000  1.0 0.5845550573
C  C48  1  0.79650000  0.11970000  0.98580000  1.0 0.5845550573
C  C49  1  0.58575000  0.58575000  0.11460000  1.0 -0.1775355102
C  C50  1  0.58575000  0.11460000  0.58575000  1.0 -0.1775355102
C  C51  1  0.11460000  0.58575000  0.58575000  1.0 -0.1775355102
C  C52  1  0.56740000  0.65700000  0.11330000  1.0 0.0756995565
C  C53  1  0.65700000  0.11330000  0.56740000  1.0 0.0756995565
C  C54  1  0.11330000  0.56740000  0.65700000  1.0 0.0756995565
C  C55  1  0.65700000  0.56740000  0.11330000  1.0 0.0756995565
C  C56  1  0.11330000  0.65700000  0.56740000  1.0 0.0756995565
C  C57  1  0.56740000  0.11330000  0.65700000  1.0 0.0756995565
C  C58  1  0.62610000  0.71520000  0.10710000  1.0 -0.2186851972
C  C59  1  0.71520000  0.10710000  0.62610000  1.0 -0.2186851972
C  C60  1  0.10710000  0.62610000  0.71520000  1.0 -0.2186851972
C  C61  1  0.71520000  0.62610000  0.10710000  1.0 -0.2186851972
C  C62  1  0.10710000  0.71520000  0.62610000  1.0 -0.2186851972
C  C63  1  0.62610000  0.10710000  0.71520000  1.0 -0.2186851972
C  C64  1  0.70345000  0.70345000  0.10600000  1.0 0.0952490991
C  C65  1  0.70345000  0.10600000  0.70345000  1.0 0.0952490991
C  C66  1  0.10600000  0.70345000  0.70345000  1.0 0.0947914696
C  C67  1  0.76765000  0.76765000  0.10780000  1.0 0.0447367369
C  C68  1  0.76765000  0.10780000  0.76765000  1.0 0.0455284095
C  C69  1  0.10780000  0.76765000  0.76765000  1.0 0.0455284095
C  C70  1  0.88950000  0.88951000  0.12059000  1.0 -0.1160179
C  C71  1  0.88950000  0.12059000  0.88951000  1.0 -0.1148264059
C  C72  1  0.12059000  0.88951000  0.88951000  1.0 -0.1160179
C  C73  1  0.80900000  0.90220000  0.11580000  1.0 -0.0158422147
C  C74  1  0.90220000  0.11580000  0.80900000  1.0 -0.0158422147
C  C75  1  0.11580000  0.80900000  0.90220000  1.0 -0.0158422147
C  C76  1  0.90220000  0.80900000  0.11580000  1.0 -0.0158422147
C  C77  1  0.11580000  0.90220000  0.80900000  1.0 -0.0158422147
C  C78  1  0.80900000  0.11580000  0.90220000  1.0 -0.0158422147
C  C79  1  0.75280000  0.84290000  0.11190000  1.0 -0.1160179
C  C80  1  0.84290000  0.11190000  0.75280000  1.0 -0.1160179
C  C81  1  0.11190000  0.75280000  0.84290000  1.0 -0.1160179
C  C82  1  0.84290000  0.75280000  0.11190000  1.0 -0.1160179
C  C83  1  0.11190000  0.84290000  0.75280000  1.0 -0.1160179
C  C84  1  0.75280000  0.11190000  0.84290000  1.0 -0.1160179
O  O1  1  0.20040000  0.67670000  0.09880000  1.0 -0.4730094397
O  O2  1  0.67670000  0.09880000  0.20040000  1.0 -0.4730094397
O  O3  1  0.09880000  0.20040000  0.67670000  1.0 -0.4730094397
O  O4  1  0.67670000  0.20040000  0.09880000  1.0 -0.4730094397
O  O5  1  0.09880000  0.67670000  0.20040000  1.0 -0.4730094397
O  O6  1  0.20040000  0.09880000  0.67670000  1.0 -0.4730094397
O  O7  1  0.85090000  0.04020000  0.14290000  1.0 -0.5138370717
O  O8  1  0.04020000  0.14290000  0.85090000  1.0 -0.5138370717
O  O9  1  0.14290000  0.85090000  0.04020000  1.0 -0.5138370717
O  O10  1  0.04020000  0.85090000  0.14290000  1.0 -0.5138370717
O  O11  1  0.14290000  0.04020000  0.85090000  1.0 -0.5138370717
O  O12  1  0.85090000  0.14290000  0.04020000  1.0 -0.5138370717
O  O13  1  0.72605000  0.99372000  0.09928000  1.0 -0.5314230645
O  O14  1  0.99372000  0.09928000  0.72605000  1.0 -0.5314230645
O  O15  1  0.09928000  0.72605000  0.99372000  1.0 -0.5314230645
O  O16  1  0.99372000  0.72605000  0.09928000  1.0 -0.5314230645
O  O17  1  0.09928000  0.99372000  0.72605000  1.0 -0.5314230645
O  O18  1  0.72605000  0.09928000  0.99372000  1.0 -0.5314230645
O  O19  1  0.24755000  0.80131000  0.14358000  1.0 -0.5456719621
O  O20  1  0.80131000  0.14358000  0.24755000  1.0 -0.5456719621
O  O21  1  0.14358000  0.24755000  0.80131000  1.0 -0.5456719621
O  O22  1  0.80131000  0.24755000  0.14358000  1.0 -0.5456719621
O  O23  1  0.14358000  0.80131000  0.24755000  1.0 -0.5456719621
O  O24  1  0.24755000  0.14358000  0.80131000  1.0 -0.5456719621
