# DDEC6 charges by PACMAN v1.1 (https://github.com/mtap-research/PACMAN-charge/)
data_ANUGEW_ASR_pacman
_symmetry_space_group_name_H-M   'P 1'
_cell_length_a   26.54880000
_cell_length_b   26.54880000
_cell_length_c   26.54880000
_cell_angle_alpha   124.78600000
_cell_angle_beta   102.40000000
_cell_angle_gamma   102.40000000
_symmetry_Int_Tables_number   1
_chemical_formula_structural   Cu3H22(C7O2)6
_chemical_formula_sum   'Cu12 H88 C168 O48'
_cell_volume   13618.86153017
_cell_formula_units_Z   4
loop_
 _symmetry_equiv_pos_site_id
 _symmetry_equiv_pos_as_xyz
  1  'x, y, z'
loop_
 _atom_site_type_symbol
 _atom_site_label
 _atom_site_symmetry_multiplicity
 _atom_site_fract_x
 _atom_site_fract_y
 _atom_site_fract_z
 _atom_site_occupancy
 _atom_site_charge
Cu  Cu1  1  0.53981000  0.53981000  0.00000000  1.0 0.851097189
Cu  Cu2  1  0.46019000  0.46019000  0.00000000  1.0 0.851097189
Cu  Cu3  1  0.50749000  0.44525000  0.46184000  1.0 0.8628170565
Cu  Cu4  1  0.98341000  0.04565000  0.53816000  1.0 0.8628170565
Cu  Cu5  1  0.49251000  0.95435000  0.93776000  1.0 0.8628170565
Cu  Cu6  1  0.01659000  0.55475000  0.06224000  1.0 0.8628170565
Cu  Cu7  1  0.49251000  0.55475000  0.53816000  1.0 0.8628170565
Cu  Cu8  1  0.01659000  0.95435000  0.46184000  1.0 0.8628170565
Cu  Cu9  1  0.50749000  0.04565000  0.06224000  1.0 0.8628170565
Cu  Cu10  1  0.98341000  0.44525000  0.93776000  1.0 0.8628170565
Cu  Cu11  1  0.03987000  0.00000000  0.03987000  1.0 0.8778829203
Cu  Cu12  1  0.96013000  0.00000000  0.96013000  1.0 0.8778829203
H  H1  1  0.46350000  0.44990000  0.79500000  1.0 0.1306040744
H  H2  1  0.65490000  0.66850000  0.20500000  1.0 0.1306040744
H  H3  1  0.53650000  0.33150000  0.98640000  1.0 0.1306040744
H  H4  1  0.34510000  0.55010000  0.01360000  1.0 0.1306040744
H  H5  1  0.53650000  0.55010000  0.20500000  1.0 0.1306040744
H  H6  1  0.34510000  0.33150000  0.79500000  1.0 0.1306040744
H  H7  1  0.46350000  0.66850000  0.01360000  1.0 0.1306040744
H  H8  1  0.65490000  0.44990000  0.98640000  1.0 0.1306040744
H  H9  1  0.32350000  0.29200000  0.61550000  1.0 0.112586828
H  H10  1  0.67650000  0.70800000  0.38450000  1.0 0.112586828
H  H11  1  0.67650000  0.29200000  0.96850000  1.0 0.112586828
H  H12  1  0.32350000  0.70800000  0.03150000  1.0 0.112586828
H  H13  1  0.40320000  0.30360000  0.57820000  1.0 0.1185635958
H  H14  1  0.72540000  0.82500000  0.42180000  1.0 0.1185635958
H  H15  1  0.59680000  0.17500000  0.90040000  1.0 0.1185635958
H  H16  1  0.27460000  0.69640000  0.09960000  1.0 0.1185635958
H  H17  1  0.59680000  0.69640000  0.42180000  1.0 0.1185635958
H  H18  1  0.27460000  0.17500000  0.57820000  1.0 0.1185635958
H  H19  1  0.40320000  0.82500000  0.09960000  1.0 0.1185635958
H  H20  1  0.72540000  0.30360000  0.90040000  1.0 0.1185635958
H  H21  1  0.43510000  0.33860000  0.52550000  1.0 0.1306040744
H  H22  1  0.81310000  0.90960000  0.47450000  1.0 0.1306040744
H  H23  1  0.56490000  0.09040000  0.90350000  1.0 0.1306040744
H  H24  1  0.18690000  0.66140000  0.09650000  1.0 0.1306040744
H  H25  1  0.56490000  0.66140000  0.47450000  1.0 0.1306040744
H  H26  1  0.18690000  0.09040000  0.52550000  1.0 0.1306040744
H  H27  1  0.43510000  0.90960000  0.09650000  1.0 0.1306040744
H  H28  1  0.81310000  0.33860000  0.90350000  1.0 0.1306040744
H  H29  1  0.46660000  0.52720000  0.67680000  1.0 0.1306040744
H  H30  1  0.85040000  0.78980000  0.32320000  1.0 0.1306040744
H  H31  1  0.53340000  0.21020000  0.06060000  1.0 0.1306040744
H  H32  1  0.14960000  0.47280000  0.93940000  1.0 0.1306040744
H  H33  1  0.53340000  0.47280000  0.32320000  1.0 0.1306040744
H  H34  1  0.14960000  0.21020000  0.67680000  1.0 0.1306040744
H  H35  1  0.46660000  0.78980000  0.93940000  1.0 0.1306040744
H  H36  1  0.85040000  0.52720000  0.06060000  1.0 0.1306040744
H  H37  1  0.43260000  0.49090000  0.73170000  1.0 0.112586828
H  H38  1  0.75920000  0.70090000  0.26830000  1.0 0.112586828
H  H39  1  0.56740000  0.29910000  0.05830000  1.0 0.112586828
H  H40  1  0.24080000  0.50910000  0.94170000  1.0 0.112586828
H  H41  1  0.56740000  0.50910000  0.26830000  1.0 0.112586828
H  H42  1  0.24080000  0.29910000  0.73170000  1.0 0.112586828
H  H43  1  0.43260000  0.70090000  0.94170000  1.0 0.112586828
H  H44  1  0.75920000  0.49090000  0.05830000  1.0 0.112586828
H  H45  1  0.34080000  0.31270000  0.29770000  1.0 0.1306040744
H  H46  1  0.01500000  0.04310000  0.70230000  1.0 0.1306040744
H  H47  1  0.65920000  0.95690000  0.97190000  1.0 0.1306040744
H  H48  1  0.98500000  0.68730000  0.02810000  1.0 0.1306040744
H  H49  1  0.65920000  0.68730000  0.70230000  1.0 0.1306040744
H  H50  1  0.98500000  0.95690000  0.29770000  1.0 0.1306040744
H  H51  1  0.34080000  0.04310000  0.02810000  1.0 0.1306040744
H  H52  1  0.01500000  0.31270000  0.97190000  1.0 0.1306040744
H  H53  1  0.25180000  0.25850000  0.21230000  1.0 0.1185635958
H  H54  1  0.04620000  0.03950000  0.78770000  1.0 0.1185635958
H  H55  1  0.74820000  0.96050000  0.00670000  1.0 0.1185635958
H  H56  1  0.95380000  0.74150000  0.99330000  1.0 0.1185635958
H  H57  1  0.74820000  0.74150000  0.78770000  1.0 0.1185635958
H  H58  1  0.95380000  0.96050000  0.21230000  1.0 0.1185635958
H  H59  1  0.25180000  0.03950000  0.99330000  1.0 0.1185635958
H  H60  1  0.04620000  0.25850000  0.00670000  1.0 0.1185635958
H  H61  1  0.22693000  0.42853000  0.32220000  1.0 0.112586828
H  H62  1  0.10633000  0.90473000  0.67780000  1.0 0.112586828
H  H63  1  0.77307000  0.09527000  0.20160000  1.0 0.112586828
H  H64  1  0.89367000  0.57147000  0.79840000  1.0 0.112586828
H  H65  1  0.77307000  0.57147000  0.67780000  1.0 0.112586828
H  H66  1  0.89367000  0.09527000  0.32220000  1.0 0.112586828
H  H67  1  0.22693000  0.90473000  0.79840000  1.0 0.112586828
H  H68  1  0.10633000  0.42853000  0.20160000  1.0 0.112586828
H  H69  1  0.31830000  0.48260000  0.40470000  1.0 0.1306040744
H  H70  1  0.07790000  0.91360000  0.59530000  1.0 0.1306040744
H  H71  1  0.68170000  0.08640000  0.16430000  1.0 0.1306040744
H  H72  1  0.92210000  0.51740000  0.83570000  1.0 0.1306040744
H  H73  1  0.68170000  0.51740000  0.59530000  1.0 0.1306040744
H  H74  1  0.92210000  0.08640000  0.40470000  1.0 0.1306040744
H  H75  1  0.31830000  0.91360000  0.83570000  1.0 0.1306040744
H  H76  1  0.07790000  0.48260000  0.16430000  1.0 0.1306040744
H  H77  1  0.17550000  0.38190000  0.20640000  1.0 0.112586828
H  H78  1  0.17550000  0.96910000  0.79360000  1.0 0.112586828
H  H79  1  0.82450000  0.03090000  0.20640000  1.0 0.112586828
H  H80  1  0.82450000  0.61810000  0.79360000  1.0 0.112586828
H  H81  1  0.15090000  0.21020000  0.17790000  1.0 0.1306040744
H  H82  1  0.03230000  0.97300000  0.82210000  1.0 0.1306040744
H  H83  1  0.84910000  0.02700000  0.05930000  1.0 0.1306040744
H  H84  1  0.96770000  0.78980000  0.94070000  1.0 0.1306040744
H  H85  1  0.84910000  0.78980000  0.82210000  1.0 0.1306040744
H  H86  1  0.96770000  0.02700000  0.17790000  1.0 0.1306040744
H  H87  1  0.15090000  0.97300000  0.94070000  1.0 0.1306040744
H  H88  1  0.03230000  0.21020000  0.05930000  1.0 0.1306040744
C  C1  1  0.44530000  0.42900000  0.87430000  1.0 0.5714228616
C  C2  1  0.55470000  0.57100000  0.12570000  1.0 0.5714228616
C  C3  1  0.55470000  0.42900000  0.98370000  1.0 0.5714228616
C  C4  1  0.44530000  0.57100000  0.01630000  1.0 0.5714228616
C  C5  1  0.41090000  0.39110000  0.80200000  1.0 -0.0080432938
C  C6  1  0.58910000  0.60890000  0.19800000  1.0 -0.0080432938
C  C7  1  0.58910000  0.39110000  0.98020000  1.0 -0.0080432938
C  C8  1  0.41090000  0.60890000  0.01980000  1.0 -0.0080432938
C  C9  1  0.42980000  0.41058000  0.77022000  1.0 -0.1714967283
C  C10  1  0.64036000  0.65958000  0.22978000  1.0 -0.1714967283
C  C11  1  0.57020000  0.34042000  0.98078000  1.0 -0.1714967283
C  C12  1  0.35964000  0.58942000  0.01922000  1.0 -0.1714967283
C  C13  1  0.57020000  0.58942000  0.22978000  1.0 -0.1714967283
C  C14  1  0.35964000  0.34042000  0.77022000  1.0 -0.1714967283
C  C15  1  0.42980000  0.65958000  0.01922000  1.0 -0.1714967283
C  C16  1  0.64036000  0.41058000  0.98078000  1.0 -0.1714967283
C  C17  1  0.39877000  0.37158000  0.69759000  1.0 0.0951813311
C  C18  1  0.67399000  0.70118000  0.30241000  1.0 0.0942263976
C  C19  1  0.60123000  0.29882000  0.97281000  1.0 0.0951813311
C  C20  1  0.32601000  0.62842000  0.02719000  1.0 0.0942263976
C  C21  1  0.60123000  0.62842000  0.30241000  1.0 0.0942263976
C  C22  1  0.32601000  0.29882000  0.69759000  1.0 0.0951813311
C  C23  1  0.39877000  0.70118000  0.02719000  1.0 0.0942263976
C  C24  1  0.67399000  0.37158000  0.97281000  1.0 0.0951813311
C  C25  1  0.34530000  0.31630000  0.66160000  1.0 -0.2323127165
C  C26  1  0.65470000  0.68370000  0.33840000  1.0 -0.2323127165
C  C27  1  0.65470000  0.31630000  0.97100000  1.0 -0.2323127165
C  C28  1  0.34530000  0.68370000  0.02900000  1.0 -0.2323127165
C  C29  1  0.41860000  0.39140000  0.66020000  1.0 0.0553216898
C  C30  1  0.73120000  0.75840000  0.33980000  1.0 0.0553216898
C  C31  1  0.58140000  0.24160000  0.97280000  1.0 0.0553216898
C  C32  1  0.26880000  0.60860000  0.02720000  1.0 0.0553216898
C  C33  1  0.58140000  0.60860000  0.33980000  1.0 0.0553216898
C  C34  1  0.26880000  0.24160000  0.66020000  1.0 0.0553216898
C  C35  1  0.41860000  0.75840000  0.02720000  1.0 0.0553216898
C  C36  1  0.73120000  0.39140000  0.97280000  1.0 0.0553216898
C  C37  1  0.41720000  0.34990000  0.60010000  1.0 -0.1326243914
C  C38  1  0.74980000  0.81710000  0.39990000  1.0 -0.1326243914
C  C39  1  0.58280000  0.18290000  0.93270000  1.0 -0.1326243914
C  C40  1  0.25020000  0.65010000  0.06730000  1.0 -0.1326243914
C  C41  1  0.58280000  0.65010000  0.39990000  1.0 -0.1326243914
C  C42  1  0.25020000  0.18290000  0.60010000  1.0 -0.1326243914
C  C43  1  0.41720000  0.81710000  0.06730000  1.0 -0.1326243914
C  C44  1  0.74980000  0.34990000  0.93270000  1.0 -0.1326243914
C  C45  1  0.43480000  0.37010000  0.56750000  1.0 -0.0988577967
C  C46  1  0.80260000  0.86730000  0.43250000  1.0 -0.0988577967
C  C47  1  0.56520000  0.13270000  0.93530000  1.0 -0.0988577967
C  C48  1  0.19740000  0.62990000  0.06470000  1.0 -0.0988577967
C  C49  1  0.56520000  0.62990000  0.43250000  1.0 -0.0988577967
C  C50  1  0.19740000  0.13270000  0.56750000  1.0 -0.0988577967
C  C51  1  0.43480000  0.86730000  0.06470000  1.0 -0.0988577967
C  C52  1  0.80260000  0.37010000  0.93530000  1.0 -0.0988577967
C  C53  1  0.45180000  0.43590000  0.59570000  1.0 -0.0080432938
C  C54  1  0.84020000  0.85610000  0.40430000  1.0 -0.0080432938
C  C55  1  0.54820000  0.14390000  0.98410000  1.0 -0.0046800143
C  C56  1  0.15980000  0.56410000  0.01590000  1.0 -0.0080432938
C  C57  1  0.54820000  0.56410000  0.40430000  1.0 -0.0080432938
C  C58  1  0.15980000  0.14390000  0.59570000  1.0 -0.0080432938
C  C59  1  0.45180000  0.85610000  0.01590000  1.0 -0.0080432938
C  C60  1  0.84020000  0.43590000  0.98410000  1.0 -0.0046800143
C  C61  1  0.45330000  0.48130000  0.65660000  1.0 -0.0988577967
C  C62  1  0.82470000  0.79670000  0.34340000  1.0 -0.0988577967
C  C63  1  0.54670000  0.20330000  0.02800000  1.0 -0.0988577967
C  C64  1  0.17530000  0.51870000  0.97200000  1.0 -0.0988577967
C  C65  1  0.54670000  0.51870000  0.34340000  1.0 -0.0988577967
C  C66  1  0.17530000  0.20330000  0.65660000  1.0 -0.0988577967
C  C67  1  0.45330000  0.79670000  0.97200000  1.0 -0.0988577967
C  C68  1  0.82470000  0.48130000  0.02800000  1.0 -0.0988577967
C  C69  1  0.43450000  0.46030000  0.69060000  1.0 -0.1596482712
C  C70  1  0.76970000  0.74390000  0.30940000  1.0 -0.1596482712
C  C71  1  0.56550000  0.25610000  0.02580000  1.0 -0.1596482712
C  C72  1  0.23030000  0.53970000  0.97420000  1.0 -0.1596482712
C  C73  1  0.56550000  0.53970000  0.30940000  1.0 -0.1596482712
C  C74  1  0.23030000  0.25610000  0.69060000  1.0 -0.1596482712
C  C75  1  0.43450000  0.74390000  0.97420000  1.0 -0.1596482712
C  C76  1  0.76970000  0.46030000  0.02580000  1.0 -0.1596482712
C  C77  1  0.47242000  0.45610000  0.55712000  1.0 0.5714228616
C  C78  1  0.89898000  0.91530000  0.44288000  1.0 0.5714228616
C  C79  1  0.52758000  0.08470000  0.98368000  1.0 0.5714228616
C  C80  1  0.10102000  0.54390000  0.01632000  1.0 0.5714228616
C  C81  1  0.52758000  0.54390000  0.44288000  1.0 0.5714228616
C  C82  1  0.10102000  0.08470000  0.55712000  1.0 0.5714228616
C  C83  1  0.47242000  0.91530000  0.01632000  1.0 0.5714228616
C  C84  1  0.89898000  0.45610000  0.98368000  1.0 0.5714228616
C  C85  1  0.39820000  0.43620000  0.41100000  1.0 0.5714228616
C  C86  1  0.02520000  0.98720000  0.58900000  1.0 0.5714228616
C  C87  1  0.60180000  0.01280000  0.03800000  1.0 0.5714228616
C  C88  1  0.97480000  0.56380000  0.96200000  1.0 0.5714228616
C  C89  1  0.60180000  0.56380000  0.58900000  1.0 0.5714228616
C  C90  1  0.97480000  0.01280000  0.41100000  1.0 0.5714228616
C  C91  1  0.39820000  0.98720000  0.96200000  1.0 0.5714228616
C  C92  1  0.02520000  0.43620000  0.03800000  1.0 0.5714228616
C  C93  1  0.33810000  0.40210000  0.35820000  1.0 -0.0307825116
C  C94  1  0.04390000  0.97990000  0.64180000  1.0 -0.0307825116
C  C95  1  0.66190000  0.02010000  0.06400000  1.0 -0.0307825116
C  C96  1  0.95610000  0.59790000  0.93600000  1.0 -0.0307825116
C  C97  1  0.66190000  0.59790000  0.64180000  1.0 -0.0307825116
C  C98  1  0.95610000  0.02010000  0.35820000  1.0 -0.0307825116
C  C99  1  0.33810000  0.97990000  0.93600000  1.0 -0.0307825116
C  C100  1  0.04390000  0.40210000  0.06400000  1.0 -0.0307825116
C  C101  1  0.31790000  0.33620000  0.30190000  1.0 -0.0988577967
C  C102  1  0.03430000  0.01600000  0.69810000  1.0 -0.0988577967
C  C103  1  0.68210000  0.98400000  0.01830000  1.0 -0.0988577967
C  C104  1  0.96570000  0.66380000  0.98170000  1.0 -0.0988577967
C  C105  1  0.68210000  0.66380000  0.69810000  1.0 -0.0988577967
C  C106  1  0.96570000  0.98400000  0.30190000  1.0 -0.0988577967
C  C107  1  0.31790000  0.01600000  0.98170000  1.0 -0.0988577967
C  C108  1  0.03430000  0.33620000  0.01830000  1.0 -0.0988577967
C  C109  1  0.26490000  0.30370000  0.25140000  1.0 -0.1503235622
C  C110  1  0.05230000  0.01350000  0.74860000  1.0 -0.1503235622
C  C111  1  0.73510000  0.98650000  0.03880000  1.0 -0.1503235622
C  C112  1  0.94770000  0.69630000  0.96120000  1.0 -0.1503235622
C  C113  1  0.73510000  0.69630000  0.74860000  1.0 -0.1503235622
C  C114  1  0.94770000  0.98650000  0.25140000  1.0 -0.1503235622
C  C115  1  0.26490000  0.01350000  0.96120000  1.0 -0.1503235622
C  C116  1  0.05230000  0.30370000  0.03880000  1.0 -0.1503235622
C  C117  1  0.23065000  0.33790000  0.25815000  1.0 0.0788167697
C  C118  1  0.07975000  0.97250000  0.74185000  1.0 0.0788167697
C  C119  1  0.76935000  0.02750000  0.10725000  1.0 0.0788167697
C  C120  1  0.92025000  0.66210000  0.89275000  1.0 0.0788167697
C  C121  1  0.76935000  0.66210000  0.74185000  1.0 0.0788167697
C  C122  1  0.92025000  0.02750000  0.25815000  1.0 0.0788167697
C  C123  1  0.23065000  0.97250000  0.89275000  1.0 0.0788167697
C  C124  1  0.07975000  0.33790000  0.10725000  1.0 0.0788167697
C  C125  1  0.25025000  0.40540000  0.31665000  1.0 -0.1596482712
C  C126  1  0.08875000  0.93360000  0.68335000  1.0 -0.1596482712
C  C127  1  0.74975000  0.06640000  0.15515000  1.0 -0.1596482712
C  C128  1  0.91125000  0.59460000  0.84485000  1.0 -0.1596482712
C  C129  1  0.74975000  0.59460000  0.68335000  1.0 -0.1596482712
C  C130  1  0.91125000  0.06640000  0.31665000  1.0 -0.1596482712
C  C131  1  0.25025000  0.93360000  0.84485000  1.0 -0.1596482712
C  C132  1  0.08875000  0.40540000  0.15515000  1.0 -0.1596482712
C  C133  1  0.30430000  0.43710000  0.36580000  1.0 -0.0906210485
C  C134  1  0.07130000  0.93850000  0.63420000  1.0 -0.0906210485
C  C135  1  0.69570000  0.06150000  0.13280000  1.0 -0.0906210485
C  C136  1  0.92870000  0.56290000  0.86720000  1.0 -0.0906210485
C  C137  1  0.69570000  0.56290000  0.63420000  1.0 -0.0906210485
C  C138  1  0.92870000  0.06150000  0.36580000  1.0 -0.0906210485
C  C139  1  0.30430000  0.93850000  0.86720000  1.0 -0.0906210485
C  C140  1  0.07130000  0.43710000  0.13280000  1.0 -0.0906210485
C  C141  1  0.15310000  0.33640000  0.18330000  1.0 -0.2092528305
C  C142  1  0.15310000  0.96980000  0.81670000  1.0 -0.2092528305
C  C143  1  0.84690000  0.03020000  0.18330000  1.0 -0.2092528305
C  C144  1  0.84690000  0.66360000  0.81670000  1.0 -0.2092528305
C  C145  1  0.17271000  0.30040000  0.20231000  1.0 0.0697604176
C  C146  1  0.09809000  0.97040000  0.79769000  1.0 0.0697604176
C  C147  1  0.82729000  0.02960000  0.12769000  1.0 0.0697604176
C  C148  1  0.90191000  0.69960000  0.87231000  1.0 0.0697604176
C  C149  1  0.82729000  0.69960000  0.79769000  1.0 0.0697604176
C  C150  1  0.90191000  0.02960000  0.20231000  1.0 0.0697604176
C  C151  1  0.17271000  0.97040000  0.87231000  1.0 0.0697604176
C  C152  1  0.09809000  0.30040000  0.12769000  1.0 0.0697604176
C  C153  1  0.13865000  0.23391000  0.16554000  1.0 -0.1596482712
C  C154  1  0.06837000  0.97311000  0.83446000  1.0 -0.1596482712
C  C155  1  0.86135000  0.02689000  0.09526000  1.0 -0.1596482712
C  C156  1  0.93163000  0.76609000  0.90474000  1.0 -0.1596482712
C  C157  1  0.86135000  0.76609000  0.83446000  1.0 -0.1596482712
C  C158  1  0.93163000  0.02689000  0.16554000  1.0 -0.1596482712
C  C159  1  0.13865000  0.97311000  0.90474000  1.0 -0.1596482712
C  C160  1  0.06837000  0.23391000  0.09526000  1.0 -0.1596482712
C  C161  1  0.08810000  0.20020000  0.11210000  1.0 -0.0080432938
C  C162  1  0.08810000  0.97600000  0.88790000  1.0 -0.0080432938
C  C163  1  0.91190000  0.02400000  0.11210000  1.0 -0.0080432938
C  C164  1  0.91190000  0.79980000  0.88790000  1.0 -0.0080432938
C  C165  1  0.05260000  0.12670000  0.07410000  1.0 0.5826353357
C  C166  1  0.05260000  0.97850000  0.92590000  1.0 0.5826353357
C  C167  1  0.94740000  0.02150000  0.07410000  1.0 0.5826353357
C  C168  1  0.94740000  0.87330000  0.92590000  1.0 0.5826353357
O  O1  1  0.49157000  0.47815000  0.90188000  1.0 -0.5100709796
O  O2  1  0.57627000  0.58969000  0.09812000  1.0 -0.5100709796
O  O3  1  0.50843000  0.41031000  0.98658000  1.0 -0.5100709796
O  O4  1  0.42373000  0.52185000  0.01342000  1.0 -0.5100709796
O  O5  1  0.50843000  0.52185000  0.09812000  1.0 -0.5100709796
O  O6  1  0.42373000  0.41031000  0.90188000  1.0 -0.5100709796
O  O7  1  0.49157000  0.58969000  0.01342000  1.0 -0.5100709796
O  O8  1  0.57627000  0.47815000  0.98658000  1.0 -0.5100709796
O  O9  1  0.48259000  0.41904000  0.50955000  1.0 -0.4709806099
O  O10  1  0.90949000  0.97304000  0.49045000  1.0 -0.4709806099
O  O11  1  0.51741000  0.02696000  0.93645000  1.0 -0.4709806099
O  O12  1  0.09051000  0.58096000  0.06355000  1.0 -0.4709806099
O  O13  1  0.51741000  0.58096000  0.49045000  1.0 -0.4709806099
O  O14  1  0.09051000  0.02696000  0.50955000  1.0 -0.4709806099
O  O15  1  0.48259000  0.97304000  0.06355000  1.0 -0.4709806099
O  O16  1  0.90949000  0.41904000  0.93645000  1.0 -0.4709806099
O  O17  1  0.42879000  0.40692000  0.39927000  1.0 -0.4765516693
O  O18  1  0.00765000  0.02952000  0.60073000  1.0 -0.4709806099
O  O19  1  0.57121000  0.97048000  0.97813000  1.0 -0.4765516693
O  O20  1  0.99235000  0.59308000  0.02187000  1.0 -0.4765516693
O  O21  1  0.57121000  0.59308000  0.60073000  1.0 -0.4765516693
O  O22  1  0.99235000  0.97048000  0.39927000  1.0 -0.4765516693
O  O23  1  0.42879000  0.02952000  0.02187000  1.0 -0.4765516693
O  O24  1  0.00765000  0.40692000  0.97813000  1.0 -0.4709806099
O  O25  1  0.47115000  0.51468000  0.57827000  1.0 -0.560229361
O  O26  1  0.93641000  0.89288000  0.42173000  1.0 -0.560229361
O  O27  1  0.52885000  0.10712000  0.04353000  1.0 -0.560229361
O  O28  1  0.06359000  0.48532000  0.95647000  1.0 -0.560229361
O  O29  1  0.52885000  0.48532000  0.42173000  1.0 -0.560229361
O  O30  1  0.06359000  0.10712000  0.57827000  1.0 -0.560229361
O  O31  1  0.47115000  0.89288000  0.95647000  1.0 -0.560229361
O  O32  1  0.93641000  0.51468000  0.04353000  1.0 -0.560229361
O  O33  1  0.41503000  0.49773000  0.46390000  1.0 -0.533300431
O  O34  1  0.03383000  0.95113000  0.53610000  1.0 -0.5354551846
O  O35  1  0.58497000  0.04887000  0.08270000  1.0 -0.5354551846
O  O36  1  0.96617000  0.50227000  0.91730000  1.0 -0.5354551846
O  O37  1  0.58497000  0.50227000  0.53610000  1.0 -0.533300431
O  O38  1  0.96617000  0.04887000  0.46390000  1.0 -0.5354551846
O  O39  1  0.41503000  0.95113000  0.91730000  1.0 -0.5354551846
O  O40  1  0.03383000  0.49773000  0.08270000  1.0 -0.5354551846
O  O41  1  0.07633000  0.09675000  0.08858000  1.0 -0.533300431
O  O42  1  0.00817000  0.98775000  0.91142000  1.0 -0.533300431
O  O43  1  0.92367000  0.01225000  0.02042000  1.0 -0.533300431
O  O44  1  0.99183000  0.90325000  0.97958000  1.0 -0.533300431
O  O45  1  0.92367000  0.90325000  0.91142000  1.0 -0.533300431
O  O46  1  0.99183000  0.01225000  0.08858000  1.0 -0.533300431
O  O47  1  0.07633000  0.98775000  0.97958000  1.0 -0.533300431
O  O48  1  0.00817000  0.09675000  0.02042000  1.0 -0.533300431
