# DDEC6 charges by PACMAN v1.1 (https://github.com/mtap-research/PACMAN-charge/)
data_AQEGUY_ASR_pacman
_symmetry_space_group_name_H-M   'P 1'
_cell_length_a   13.98400000
_cell_length_b   14.79200000
_cell_length_c   15.36400000
_cell_angle_alpha   75.43000000
_cell_angle_beta   82.74000000
_cell_angle_gamma   77.74000000
_symmetry_Int_Tables_number   1
_chemical_formula_structural   Ba2H37C40(S2O13)2
_chemical_formula_sum   'Ba4 H74 C80 S8 O52'
_cell_volume   2996.75724033
_cell_formula_units_Z   2
loop_
 _symmetry_equiv_pos_site_id
 _symmetry_equiv_pos_as_xyz
  1  'x, y, z'
loop_
 _atom_site_type_symbol
 _atom_site_label
 _atom_site_symmetry_multiplicity
 _atom_site_fract_x
 _atom_site_fract_y
 _atom_site_fract_z
 _atom_site_occupancy
 _atom_site_charge
Ba  Ba1  1  0.18762000  0.07141000  0.05853000  1.0 1.5032441764
Ba  Ba2  1  0.81238000  0.92859000  0.94147000  1.0 1.5032441764
Ba  Ba3  1  0.97085000  0.19068000  0.83363000  1.0 1.4017224459
Ba  Ba4  1  0.02915000  0.80932000  0.16637000  1.0 1.3947402386
H  H1  1  0.49610000  0.50550000  0.72450000  1.0 0.0994727964
H  H2  1  0.50390000  0.49450000  0.27550000  1.0 0.0994727964
H  H3  1  0.52180000  0.48390000  0.62850000  1.0 0.1094320102
H  H4  1  0.47820000  0.51610000  0.37150000  1.0 0.1094320102
H  H5  1  0.38870000  0.52860000  0.51890000  1.0 0.1094320102
H  H6  1  0.61130000  0.47140000  0.48110000  1.0 0.1094320102
H  H7  1  0.28310000  0.57810000  0.54850000  1.0 0.0994727964
H  H8  1  0.71690000  0.42190000  0.45150000  1.0 0.0994727964
H  H9  1  0.25170000  0.74550000  0.56790000  1.0 0.0911779092
H  H10  1  0.74830000  0.25450000  0.43210000  1.0 0.0911779092
H  H11  1  0.33840000  0.80120000  0.55270000  1.0 0.1094320102
H  H12  1  0.66160000  0.19880000  0.44730000  1.0 0.1094320102
H  H13  1  0.46610000  0.66990000  0.74360000  1.0 0.0994727964
H  H14  1  0.53390000  0.33010000  0.25640000  1.0 0.0994727964
H  H15  1  0.46920000  0.75550000  0.65960000  1.0 0.0994727964
H  H16  1  0.53080000  0.24450000  0.34040000  1.0 0.0994727964
H  H17  1  0.51010000  0.72330000  0.50250000  1.0 0.0994727964
H  H18  1  0.48990000  0.27670000  0.49750000  1.0 0.0994727964
H  H19  1  0.52960000  0.61810000  0.49160000  1.0 0.1094320102
H  H20  1  0.47040000  0.38190000  0.50840000  1.0 0.1094320102
H  H21  1  0.32910000  0.57910000  0.77170000  1.0 0.119818615
H  H22  1  0.67090000  0.42090000  0.22830000  1.0 0.119818615
H  H23  1  0.24480000  0.60680000  0.70600000  1.0 0.0911779092
H  H24  1  0.75520000  0.39320000  0.29400000  1.0 0.0911779092
H  H25  1  0.61000000  0.56750000  0.77410000  1.0 0.119818615
H  H26  1  0.39000000  0.43250000  0.22590000  1.0 0.119818615
H  H27  1  0.77480000  0.54850000  0.79640000  1.0 0.0396418477
H  H28  1  0.22520000  0.45150000  0.20360000  1.0 0.0396418477
H  H29  1  0.83520000  0.63520000  0.52920000  1.0 0.0732836889
H  H30  1  0.16480000  0.36480000  0.47080000  1.0 0.0732836889
H  H31  1  0.67040000  0.65430000  0.50690000  1.0 0.119818615
H  H32  1  0.32960000  0.34570000  0.49310000  1.0 0.119818615
H  H33  1  0.46750000  0.36190000  0.73960000  1.0 0.119818615
H  H34  1  0.53250000  0.63810000  0.26040000  1.0 0.119818615
H  H35  1  0.40800000  0.22430000  0.80910000  1.0 0.1373607441
H  H36  1  0.59200000  0.77570000  0.19090000  1.0 0.1373607441
H  H37  1  0.14460000  0.34660000  0.71730000  1.0 0.051505539
H  H38  1  0.85540000  0.65340000  0.28270000  1.0 0.051505539
H  H39  1  0.20570000  0.48020000  0.64680000  1.0 0.0821164845
H  H40  1  0.79430000  0.51980000  0.35320000  1.0 0.0821164845
H  H41  1  0.42010000  0.82760000  0.40190000  1.0 0.119818615
H  H42  1  0.57990000  0.17240000  0.59810000  1.0 0.119818615
H  H43  1  0.39140000  0.89370000  0.25290000  1.0 0.1276255696
H  H44  1  0.60860000  0.10630000  0.74710000  1.0 0.1276255696
H  H45  1  0.27930000  0.67040000  0.24350000  1.0 0.0994727964
H  H46  1  0.72070000  0.32960000  0.75650000  1.0 0.0994727964
H  H47  1  0.29970000  0.60900000  0.39700000  1.0 0.0994727964
H  H48  1  0.70030000  0.39100000  0.60300000  1.0 0.0994727964
H  H49  1  0.37860000  0.79580000  0.79340000  1.0 0.119818615
H  H50  1  0.62140000  0.20420000  0.20660000  1.0 0.119818615
H  H51  1  0.27510000  0.88360000  0.88330000  1.0 0.1498703136
H  H52  1  0.72490000  0.11640000  0.11670000  1.0 0.1498703136
H  H53  1  0.04360000  0.84490000  0.77620000  1.0 0.1094320102
H  H54  1  0.95640000  0.15510000  0.22380000  1.0 0.1094320102
H  H55  1  0.14930000  0.75730000  0.68630000  1.0 0.0911779092
H  H56  1  0.85070000  0.24270000  0.31370000  1.0 0.0911779092
H  H57  1  0.16100000  0.91790000  0.47850000  1.0 0.119818615
H  H58  1  0.83900000  0.08210000  0.52150000  1.0 0.119818615
H  H59  1  0.97860000  0.04860000  0.38400000  1.0 0.119818615
H  H60  1  0.02140000  0.95140000  0.61600000  1.0 0.119818615
H  H61  1  0.87860000  0.02560000  0.43480000  1.0 0.119818615
H  H62  1  0.12140000  0.97440000  0.56520000  1.0 0.119818615
H  H63  1  0.11440000  0.62790000  0.31410000  1.0 0.220236644
H  H64  1  0.88560000  0.37210000  0.68590000  1.0 0.220236644
H  H65  1  0.03260000  0.59590000  0.27420000  1.0 0.2803244738
H  H66  1  0.96740000  0.40410000  0.72580000  1.0 0.2803244738
H  H67  1  0.00400000  0.65500000  0.34830000  1.0 0.1706568722
H  H68  1  0.99600000  0.34500000  0.65170000  1.0 0.1706568722
H  H69  1  0.04510000  0.96150000  0.46200000  1.0 0.2460202424
H  H70  1  0.95490000  0.03850000  0.53800000  1.0 0.2460202424
H  H71  1  0.11890000  0.74280000  0.54090000  1.0 0.0994727964
H  H72  1  0.88110000  0.25720000  0.45910000  1.0 0.0994727964
H  H73  1  0.00260000  0.78650000  0.52430000  1.0 0.1624601482
H  H74  1  0.99740000  0.21350000  0.47570000  1.0 0.1624601482
C  C1  1  0.51340000  0.62560000  0.62540000  1.0 0.1624601482
C  C2  1  0.48660000  0.37440000  0.37460000  1.0 0.1624601482
C  C3  1  0.48280000  0.52880000  0.66140000  1.0 -0.3084219972
C  C4  1  0.51720000  0.47120000  0.33860000  1.0 -0.3084219972
C  C5  1  0.37400000  0.53400000  0.65240000  1.0 0.1804482563
C  C6  1  0.62600000  0.46600000  0.34760000  1.0 0.1804482563
C  C7  1  0.35250000  0.57270000  0.55400000  1.0 -0.3332969547
C  C8  1  0.64750000  0.42730000  0.44600000  1.0 -0.3332969547
C  C9  1  0.38130000  0.67070000  0.51610000  1.0 0.1804482563
C  C10  1  0.61870000  0.32930000  0.48390000  1.0 0.1804482563
C  C11  1  0.32110000  0.73880000  0.57450000  1.0 -0.3084219972
C  C12  1  0.67890000  0.26120000  0.42550000  1.0 -0.3084219972
C  C13  1  0.33980000  0.70250000  0.67380000  1.0 0.1706568722
C  C14  1  0.66020000  0.29750000  0.32620000  1.0 0.1706568722
C  C15  1  0.45160000  0.69330000  0.68090000  1.0 -0.3032194427
C  C16  1  0.54840000  0.30670000  0.31910000  1.0 -0.3032194427
C  C17  1  0.49130000  0.66180000  0.52620000  1.0 -0.3212205024
C  C18  1  0.50870000  0.33820000  0.47380000  1.0 -0.3212205024
C  C19  1  0.31440000  0.60300000  0.70910000  1.0 -0.3084219972
C  C20  1  0.68560000  0.39700000  0.29090000  1.0 -0.3084219972
C  C21  1  0.62380000  0.61280000  0.63830000  1.0 0.0732836889
C  C22  1  0.37620000  0.38720000  0.36170000  1.0 0.0732836889
C  C23  1  0.65510000  0.58110000  0.72500000  1.0 -0.1187570366
C  C24  1  0.34490000  0.41890000  0.27500000  1.0 -0.1187570366
C  C25  1  0.75380000  0.56970000  0.73840000  1.0 -0.1688808539
C  C26  1  0.24620000  0.43030000  0.26160000  1.0 -0.1688808539
C  C27  1  0.82130000  0.59000000  0.66500000  1.0 -0.293109283
C  C28  1  0.17870000  0.41000000  0.33500000  1.0 -0.293109283
C  C29  1  0.79010000  0.62170000  0.57830000  1.0 -0.1886172991
C  C30  1  0.20990000  0.37830000  0.42170000  1.0 -0.1954624356
C  C31  1  0.69130000  0.63310000  0.56490000  1.0 -0.1363486366
C  C32  1  0.30870000  0.36690000  0.43510000  1.0 -0.1363486366
C  C33  1  0.34220000  0.43840000  0.69130000  1.0 0.0396418477
C  C34  1  0.65780000  0.56160000  0.30870000  1.0 0.0396418477
C  C35  1  0.40210000  0.36000000  0.73610000  1.0 -0.1363486366
C  C36  1  0.59790000  0.64000000  0.26390000  1.0 -0.1363486366
C  C37  1  0.36630000  0.27640000  0.77710000  1.0 -0.0793240966
C  C38  1  0.63370000  0.72360000  0.22290000  1.0 -0.0793240966
C  C39  1  0.27190000  0.27020000  0.77100000  1.0 -0.0906149914
C  C40  1  0.72810000  0.72980000  0.22900000  1.0 -0.0906149914
C  C41  1  0.20960000  0.34910000  0.72210000  1.0 -0.1506598239
C  C42  1  0.79040000  0.65090000  0.27790000  1.0 -0.1506598239
C  C43  1  0.24600000  0.42940000  0.68190000  1.0 -0.1886172991
C  C44  1  0.75400000  0.57060000  0.31810000  1.0 -0.1886172991
C  C45  1  0.36300000  0.71030000  0.41640000  1.0 0.051505539
C  C46  1  0.63700000  0.28970000  0.58360000  1.0 0.051505539
C  C47  1  0.39040000  0.79580000  0.37100000  1.0 -0.1506598239
C  C48  1  0.60960000  0.20420000  0.62900000  1.0 -0.1506598239
C  C49  1  0.37470000  0.83510000  0.28120000  1.0 -0.0793240966
C  C50  1  0.62530000  0.16490000  0.71880000  1.0 -0.0793240966
C  C51  1  0.33500000  0.78790000  0.23460000  1.0 -0.1004114897
C  C52  1  0.66500000  0.21210000  0.76540000  1.0 -0.1004114897
C  C53  1  0.30670000  0.70270000  0.27580000  1.0 -0.1187570366
C  C54  1  0.69330000  0.29730000  0.72420000  1.0 -0.1187570366
C  C55  1  0.32030000  0.66560000  0.36800000  1.0 -0.1954624356
C  C56  1  0.67970000  0.33440000  0.63200000  1.0 -0.1954624356
C  C57  1  0.27580000  0.76590000  0.72990000  1.0 0.051505539
C  C58  1  0.72420000  0.23410000  0.27010000  1.0 0.051505539
C  C59  1  0.31110000  0.80530000  0.78970000  1.0 -0.1506598239
C  C60  1  0.68890000  0.19470000  0.21030000  1.0 -0.1506598239
C  C61  1  0.24940000  0.85820000  0.84380000  1.0 -0.0646220018
C  C62  1  0.75060000  0.14180000  0.15620000  1.0 -0.0646220018
C  C63  1  0.14990000  0.87300000  0.83890000  1.0 -0.0906149914
C  C64  1  0.85010000  0.12700000  0.16110000  1.0 -0.0906149914
C  C65  1  0.11110000  0.83500000  0.77970000  1.0 -0.1187570366
C  C66  1  0.88890000  0.16500000  0.22030000  1.0 -0.1187570366
C  C67  1  0.17500000  0.78240000  0.72610000  1.0 -0.1826499031
C  C68  1  0.82500000  0.21760000  0.27390000  1.0 -0.1826499031
C  C69  1  0.09980000  0.84180000  0.41020000  1.0 0.051505539
C  C70  1  0.90020000  0.15820000  0.58980000  1.0 0.051505539
C  C71  1  0.09900000  0.90700000  0.46590000  1.0 -0.1644391195
C  C72  1  0.90100000  0.09300000  0.53410000  1.0 -0.1644391195
C  C73  1  0.94550000  0.99770000  0.41780000  1.0 -0.1363486366
C  C74  1  0.05450000  0.00230000  0.58220000  1.0 -0.1363486366
C  C75  1  0.94510000  0.92880000  0.36060000  1.0 0.119818615
C  C76  1  0.05490000  0.07120000  0.63940000  1.0 0.119818615
C  C77  1  0.07100000  0.79200000  0.50800000  1.0 -0.0476277155
C  C78  1  0.92900000  0.20800000  0.49200000  1.0 -0.0476277155
C  C79  1  0.05200000  0.73200000  0.47600000  1.0 -0.1187570366
C  C80  1  0.94800000  0.26800000  0.52400000  1.0 -0.1187570366
S  S1  1  0.94000000  0.60150000  0.70010000  1.0 0.3744098096
S  S2  1  0.06000000  0.39850000  0.29990000  1.0 0.3792340903
S  S3  1  0.22030000  0.17123000  0.82804000  1.0 1.1678202896
S  S4  1  0.77970000  0.82877000  0.17196000  1.0 1.1678202896
S  S5  1  0.30780000  0.83870000  0.12026000  1.0 1.1857115178
S  S6  1  0.69220000  0.16130000  0.87974000  1.0 1.1857115178
S  S7  1  0.06819000  0.93346000  0.91148000  1.0 1.2213392405
S  S8  1  0.93181000  0.06654000  0.08852000  1.0 1.2213392405
O  O1  1  0.97360000  0.60260000  0.62020000  1.0 0.0312027055
O  O2  1  0.02640000  0.39740000  0.37980000  1.0 0.0312027055
O  O3  1  0.92100000  0.64000000  0.79200000  1.0 -0.1363486366
O  O4  1  0.07900000  0.36000000  0.20800000  1.0 -0.1363486366
O  O5  1  0.29680000  0.09990000  0.86870000  1.0 -0.5726123901
O  O6  1  0.70320000  0.90010000  0.13130000  1.0 -0.5726123901
O  O7  1  0.17030000  0.14820000  0.76260000  1.0 -0.61591886
O  O8  1  0.82970000  0.85180000  0.23740000  1.0 -0.61591886
O  O9  1  0.14590000  0.20470000  0.89800000  1.0 -0.7653409691
O  O10  1  0.85410000  0.79530000  0.10200000  1.0 -0.7653409691
O  O11  1  0.20210000  0.87010000  0.12700000  1.0 -0.71841608
O  O12  1  0.79790000  0.12990000  0.87300000  1.0 -0.71841608
O  O13  1  0.35430000  0.92310000  0.08800000  1.0 -0.6709802003
O  O14  1  0.64570000  0.07690000  0.91200000  1.0 -0.6709802003
O  O15  1  0.34460000  0.76910000  0.07110000  1.0 -0.5396026821
O  O16  1  0.65540000  0.23090000  0.92890000  1.0 -0.5396026821
O  O17  1  0.02690000  0.86210000  0.98140000  1.0 -0.6841887982
O  O18  1  0.97310000  0.13790000  0.01860000  1.0 -0.6841887982
O  O19  1  0.99120000  0.99590000  0.85670000  1.0 -0.6841887982
O  O20  1  0.00880000  0.00410000  0.14330000  1.0 -0.6841887982
O  O21  1  0.12320000  0.98600000  0.94590000  1.0 -0.6458997579
O  O22  1  0.87680000  0.01400000  0.05410000  1.0 -0.6449218841
O  O23  1  0.95190000  0.35440000  0.70320000  1.0 -0.4296420069
O  O24  1  0.04810000  0.64560000  0.29680000  1.0 -0.4296420069
O  O25  1  0.95700000  0.49800000  0.78000000  1.0 -0.0204008931
O  O26  1  0.04300000  0.50200000  0.22000000  1.0 -0.0204008931
O  O27  1  0.99600000  0.94740000  0.49830000  1.0 0.0229963696
O  O28  1  0.00400000  0.05260000  0.50170000  1.0 0.0229963696
O  O29  1  0.04100000  0.88160000  0.33200000  1.0 -0.3084219972
O  O30  1  0.95900000  0.11840000  0.66800000  1.0 -0.3032194427
O  O31  1  0.01100000  0.32300000  0.36800000  1.0 -0.1506598239
O  O32  1  0.98900000  0.67700000  0.63200000  1.0 -0.1506598239
O  O33  1  0.06380000  0.30700000  0.26500000  1.0 -0.1363486366
O  O34  1  0.93620000  0.69300000  0.73500000  1.0 -0.1363486366
O  O35  1  0.99200000  0.35400000  0.45800000  1.0 -0.1688808539
O  O36  1  0.00800000  0.64600000  0.54200000  1.0 -0.1688808539
O  O37  1  0.95900000  0.82500000  0.49400000  1.0 -0.2265468911
O  O38  1  0.04100000  0.17500000  0.50600000  1.0 -0.2265468911
O  O39  1  0.01250000  0.48980000  0.31400000  1.0 0.2418838291
O  O40  1  0.98750000  0.51020000  0.68600000  1.0 0.2418838291
O  O41  1  0.98900000  0.49700000  0.37200000  1.0 0.057028856
O  O42  1  0.01100000  0.50300000  0.62800000  1.0 0.057028856
O  O43  1  0.00100000  0.51900000  0.41400000  1.0 -0.1122194083
O  O44  1  0.99900000  0.48100000  0.58600000  1.0 -0.1122194083
O  O45  1  0.09100000  0.57600000  0.48000000  1.0 -0.489987299
O  O46  1  0.90900000  0.42400000  0.52000000  1.0 -0.489987299
O  O47  1  0.01750000  0.48580000  0.26500000  1.0 0.1498703136
O  O48  1  0.98250000  0.51420000  0.73500000  1.0 0.1498703136
O  O49  1  0.05160000  0.52690000  0.32330000  1.0 0.1706568722
O  O50  1  0.94840000  0.47310000  0.67670000  1.0 0.1706568722
O  O51  1  0.05000000  0.51810000  0.29000000  1.0 0.1862813158
O  O52  1  0.95000000  0.48190000  0.71000000  1.0 0.1862813158
