# DDEC6 charges by PACMAN v1.1 (https://github.com/mtap-research/PACMAN-charge/)
data_AQERUL_ASR_pacman
_symmetry_space_group_name_H-M   'P 1'
_cell_length_a   25.56900000
_cell_length_b   25.56900000
_cell_length_c   16.70700000
_cell_angle_alpha   90.00000000
_cell_angle_beta   90.00000000
_cell_angle_gamma   90.00000000
_symmetry_Int_Tables_number   1
_chemical_formula_structural   Co16H141C164(N3O13)4
_chemical_formula_sum   'Co32 H282 C328 N24 O104'
_cell_volume   10922.59822503
_cell_formula_units_Z   2
loop_
 _symmetry_equiv_pos_site_id
 _symmetry_equiv_pos_as_xyz
  1  'x, y, z'
loop_
 _atom_site_type_symbol
 _atom_site_label
 _atom_site_symmetry_multiplicity
 _atom_site_fract_x
 _atom_site_fract_y
 _atom_site_fract_z
 _atom_site_occupancy
 _atom_site_charge
Co  Co1  1  0.06748000  0.66092000  0.60055000  1.0 0.8842845011
Co  Co2  1  0.93252000  0.33909000  0.39945000  1.0 0.8842845011
Co  Co3  1  0.93268000  0.33886000  0.60069000  1.0 0.8903025378
Co  Co4  1  0.06732000  0.66114000  0.39930000  1.0 0.8903025378
Co  Co5  1  0.33955000  0.06767000  0.10224000  1.0 0.8639372934
Co  Co6  1  0.66045000  0.93233000  0.89777000  1.0 0.866391604
Co  Co7  1  0.66045000  0.93233000  0.10223000  1.0 0.866391604
Co  Co8  1  0.33955000  0.06767000  0.89777000  1.0 0.8639372934
Co  Co9  1  0.43266000  0.16112000  0.39923000  1.0 0.8903025378
Co  Co10  1  0.56749000  0.83909000  0.60060000  1.0 0.8903025378
Co  Co11  1  0.56734000  0.83888000  0.39924000  1.0 0.8903025378
Co  Co12  1  0.43251000  0.16091000  0.60060000  1.0 0.8903025378
Co  Co13  1  0.16092000  0.56748000  0.89940000  1.0 0.8903025378
Co  Co14  1  0.83887000  0.43267000  0.10076000  1.0 0.8903025378
Co  Co15  1  0.83908000  0.43251000  0.89939000  1.0 0.8903025378
Co  Co16  1  0.16113000  0.56733000  0.10077000  1.0 0.8903025378
Co  Co17  1  0.00379000  0.56405000  0.68833000  1.0 0.9784338783
Co  Co18  1  0.99622000  0.43595000  0.31167000  1.0 0.9784338783
Co  Co19  1  0.99622000  0.43593000  0.68833000  1.0 0.9784338783
Co  Co20  1  0.00378000  0.56406000  0.31167000  1.0 0.9784338783
Co  Co21  1  0.43603000  0.00380000  0.18841000  1.0 0.9784338783
Co  Co22  1  0.56397000  0.99620000  0.81158000  1.0 0.9784338783
Co  Co23  1  0.56397000  0.99620000  0.18842000  1.0 0.9784338783
Co  Co24  1  0.43603000  0.00380000  0.81158000  1.0 0.9784338783
Co  Co25  1  0.49621000  0.06405000  0.31171000  1.0 0.9784338783
Co  Co26  1  0.50379000  0.93596000  0.68831000  1.0 0.9784338783
Co  Co27  1  0.50379000  0.93595000  0.31170000  1.0 0.9784338783
Co  Co28  1  0.49621000  0.06404000  0.68831000  1.0 0.9784338783
Co  Co29  1  0.06404000  0.50378000  0.81169000  1.0 0.9784338783
Co  Co30  1  0.93595000  0.49622000  0.18831000  1.0 0.9784338783
Co  Co31  1  0.93596000  0.49622000  0.81169000  1.0 0.9784338783
Co  Co32  1  0.06405000  0.50378000  0.18830000  1.0 0.9784338783
H  H1  1  0.97612000  0.53348000  0.50000000  1.0 -0.1736398887
H  H2  1  0.02388000  0.46652000  0.50000000  1.0 -0.1736398887
H  H3  1  0.46653000  0.97613000  0.00000000  1.0 -0.1764292655
H  H4  1  0.53347000  0.02387000  0.00000000  1.0 -0.1764292655
H  H5  1  0.52388000  0.03348000  0.50000000  1.0 -0.1736398887
H  H6  1  0.47612000  0.96652000  0.50000000  1.0 -0.1764292655
H  H7  1  0.03348000  0.47612000  0.00000000  1.0 -0.1736398887
H  H8  1  0.96652000  0.52388000  0.00000000  1.0 -0.1736398887
H  H9  1  0.89678000  0.65634000  0.81713000  1.0 0.1594267303
H  H10  1  0.10322000  0.34366000  0.18287000  1.0 0.1594267303
H  H11  1  0.10322000  0.34366000  0.81713000  1.0 0.1594267303
H  H12  1  0.89677000  0.65634000  0.18287000  1.0 0.1594267303
H  H13  1  0.34366000  0.89679000  0.31712000  1.0 0.1594267303
H  H14  1  0.65634000  0.10321000  0.68288000  1.0 0.1594267303
H  H15  1  0.65634000  0.10322000  0.31712000  1.0 0.1594267303
H  H16  1  0.34365000  0.89679000  0.68288000  1.0 0.1594267303
H  H17  1  0.60321000  0.15634000  0.18287000  1.0 0.1594267303
H  H18  1  0.39679000  0.84366000  0.81713000  1.0 0.1594267303
H  H19  1  0.39679000  0.84366000  0.18287000  1.0 0.1594267303
H  H20  1  0.60321000  0.15635000  0.81713000  1.0 0.1594267303
H  H21  1  0.15634000  0.39678000  0.68288000  1.0 0.1594267303
H  H22  1  0.84366000  0.60322000  0.31713000  1.0 0.1594267303
H  H23  1  0.84366000  0.60322000  0.68287000  1.0 0.1594267303
H  H24  1  0.15634000  0.39678000  0.31713000  1.0 0.1594267303
H  H25  1  0.87889000  0.84102000  0.68620000  1.0 0.0798193485
H  H26  1  0.12111000  0.15898000  0.31380000  1.0 0.0798193485
H  H27  1  0.12111000  0.15898000  0.68620000  1.0 0.0798193485
H  H28  1  0.87889000  0.84102000  0.31380000  1.0 0.0880579971
H  H29  1  0.15897000  0.87886000  0.18625000  1.0 0.0798193485
H  H30  1  0.84103000  0.12114000  0.81375000  1.0 0.0798193485
H  H31  1  0.84103000  0.12114000  0.18625000  1.0 0.0880579971
H  H32  1  0.15897000  0.87886000  0.81375000  1.0 0.0880579971
H  H33  1  0.62112000  0.34101000  0.31377000  1.0 0.0798193485
H  H34  1  0.37888000  0.65899000  0.68623000  1.0 0.0798193485
H  H35  1  0.37888000  0.65899000  0.31377000  1.0 0.0798193485
H  H36  1  0.62112000  0.34101000  0.68623000  1.0 0.0798193485
H  H37  1  0.34102000  0.37888000  0.81377000  1.0 0.0798193485
H  H38  1  0.65899000  0.62112000  0.18623000  1.0 0.0798193485
H  H39  1  0.65898000  0.62112000  0.81377000  1.0 0.0798193485
H  H40  1  0.34101000  0.37888000  0.18623000  1.0 0.0798193485
H  H41  1  0.19805000  0.56262000  0.36401000  1.0 0.0880579971
H  H42  1  0.80195000  0.43737000  0.63598000  1.0 0.0880579971
H  H43  1  0.80195000  0.43738000  0.36401000  1.0 0.0880579971
H  H44  1  0.19805000  0.56262000  0.63598000  1.0 0.0880579971
H  H45  1  0.43738000  0.19805000  0.86401000  1.0 0.0880579971
H  H46  1  0.56262000  0.80195000  0.13599000  1.0 0.0880579971
H  H47  1  0.56262000  0.80195000  0.86401000  1.0 0.0880579971
H  H48  1  0.43738000  0.19805000  0.13599000  1.0 0.0880579971
H  H49  1  0.30196000  0.06263000  0.63598000  1.0 0.0880579971
H  H50  1  0.69804000  0.93737000  0.36402000  1.0 0.0880579971
H  H51  1  0.69804000  0.93737000  0.63598000  1.0 0.0880579971
H  H52  1  0.30196000  0.06263000  0.36402000  1.0 0.0880579971
H  H53  1  0.06262000  0.69805000  0.13599000  1.0 0.0880579971
H  H54  1  0.93738000  0.30195000  0.86401000  1.0 0.0880579971
H  H55  1  0.93738000  0.30195000  0.13599000  1.0 0.0880579971
H  H56  1  0.06262000  0.69805000  0.86401000  1.0 0.0880579971
H  H57  1  0.96431000  0.23537000  0.42759000  1.0 -0.0203569774
H  H58  1  0.03569000  0.76463000  0.57241000  1.0 -0.0203569774
H  H59  1  0.23307000  0.03429000  0.93063000  1.0 -0.0110530349
H  H60  1  0.76693000  0.96571000  0.06937000  1.0 -0.0110530349
H  H61  1  0.76693000  0.96570000  0.93063000  1.0 -0.0110530349
H  H62  1  0.23307000  0.03430000  0.06937000  1.0 -0.0110530349
H  H63  1  0.46431000  0.26463000  0.57240000  1.0 -0.0203569774
H  H64  1  0.53569000  0.73537000  0.57240000  1.0 -0.0203569774
H  H65  1  0.73537000  0.46431000  0.92760000  1.0 -0.0203569774
H  H66  1  0.26463000  0.53569000  0.92760000  1.0 -0.0203569774
H  H67  1  0.97808000  0.76488000  0.49059000  1.0 0.3891054192
H  H68  1  0.02191000  0.23512000  0.50941000  1.0 0.3891054192
H  H69  1  0.23551000  0.97659000  0.00000000  1.0 0.2462056328
H  H70  1  0.76449000  0.02341000  0.00000000  1.0 0.2462056328
H  H71  1  0.52191000  0.26488000  0.49059000  1.0 0.3891054192
H  H72  1  0.47809000  0.73512000  0.49059000  1.0 0.3891054192
H  H73  1  0.26488000  0.47809000  0.00941000  1.0 0.3891054192
H  H74  1  0.73512000  0.52191000  0.00941000  1.0 0.3891054192
H  H75  1  0.08507000  0.78211000  0.49393000  1.0 -0.1556079339
H  H76  1  0.91493000  0.21789000  0.50607000  1.0 -0.1547290932
H  H77  1  0.21774000  0.08613000  0.00000000  1.0 -0.1081779141
H  H78  1  0.78226000  0.91387000  0.00000000  1.0 -0.1081779141
H  H79  1  0.41493000  0.28211000  0.49393000  1.0 -0.1547290932
H  H80  1  0.58507000  0.71789000  0.49393000  1.0 -0.1547290932
H  H81  1  0.28211000  0.58507000  0.00607000  1.0 -0.1556079339
H  H82  1  0.71789000  0.41493000  0.00607000  1.0 -0.1547290932
H  H83  1  0.95338000  0.77786000  0.63769000  1.0 0.0985543466
H  H84  1  0.04662000  0.22214000  0.36231000  1.0 0.0985543466
H  H85  1  0.04659000  0.22215000  0.63767000  1.0 0.051385937
H  H86  1  0.95341000  0.77785000  0.36233000  1.0 0.051385937
H  H87  1  0.22211000  0.95338000  0.13775000  1.0 0.0880579971
H  H88  1  0.77789000  0.04662000  0.86225000  1.0 0.0880579971
H  H89  1  0.77790000  0.04662000  0.13775000  1.0 0.0880579971
H  H90  1  0.22210000  0.95338000  0.86225000  1.0 0.0798193485
H  H91  1  0.54659000  0.27785000  0.36232000  1.0 0.051385937
H  H92  1  0.45339000  0.72214000  0.63770000  1.0 0.0985543466
H  H93  1  0.45341000  0.72216000  0.36232000  1.0 0.051385937
H  H94  1  0.54661000  0.27786000  0.63770000  1.0 0.0985543466
H  H95  1  0.27786000  0.45338000  0.86230000  1.0 0.0985543466
H  H96  1  0.72215000  0.54659000  0.13767000  1.0 0.0550149504
H  H97  1  0.72214000  0.54662000  0.86230000  1.0 0.0985543466
H  H98  1  0.27785000  0.45341000  0.13767000  1.0 0.051385937
H  H99  1  0.03313000  0.62225000  0.85717000  1.0 -0.0017238221
H  H100  1  0.96687000  0.37775000  0.14283000  1.0 -0.0017238221
H  H101  1  0.96687000  0.37775000  0.85717000  1.0 -0.0017238221
H  H102  1  0.03313000  0.62225000  0.14283000  1.0 -0.0017238221
H  H103  1  0.37775000  0.03313000  0.35718000  1.0 0.0006032212
H  H104  1  0.62225000  0.96687000  0.64282000  1.0 0.0006032212
H  H105  1  0.62225000  0.96687000  0.35718000  1.0 0.0006032212
H  H106  1  0.37775000  0.03313000  0.64282000  1.0 0.0006032212
H  H107  1  0.46688000  0.12225000  0.14283000  1.0 0.0006032212
H  H108  1  0.53313000  0.87775000  0.85718000  1.0 0.0006032212
H  H109  1  0.53312000  0.87775000  0.14283000  1.0 0.0006032212
H  H110  1  0.46687000  0.12225000  0.85718000  1.0 0.0006032212
H  H111  1  0.12225000  0.53313000  0.64283000  1.0 0.0006032212
H  H112  1  0.87775000  0.46687000  0.35717000  1.0 -0.0017238221
H  H113  1  0.87775000  0.46687000  0.64283000  1.0 0.0006032212
H  H114  1  0.12225000  0.53313000  0.35717000  1.0 -0.0017238221
H  H115  1  0.95520000  0.62159000  0.84612000  1.0 -0.0432238919
H  H116  1  0.04480000  0.37841000  0.15388000  1.0 -0.0432238919
H  H117  1  0.04480000  0.37841000  0.84612000  1.0 -0.0432238919
H  H118  1  0.95520000  0.62159000  0.15388000  1.0 -0.0432238919
H  H119  1  0.37841000  0.95519000  0.34614000  1.0 -0.0432238919
H  H120  1  0.62159000  0.04481000  0.65386000  1.0 -0.0432238919
H  H121  1  0.62159000  0.04481000  0.34614000  1.0 -0.0432238919
H  H122  1  0.37841000  0.95519000  0.65386000  1.0 -0.0432238919
H  H123  1  0.54480000  0.12160000  0.15388000  1.0 -0.0432238919
H  H124  1  0.45520000  0.87840000  0.84613000  1.0 -0.0432238919
H  H125  1  0.45520000  0.87840000  0.15388000  1.0 -0.0432238919
H  H126  1  0.54480000  0.12160000  0.84613000  1.0 -0.0432238919
H  H127  1  0.12159000  0.45520000  0.65387000  1.0 -0.0432238919
H  H128  1  0.87841000  0.54480000  0.34613000  1.0 -0.0432238919
H  H129  1  0.87841000  0.54480000  0.65387000  1.0 -0.0432238919
H  H130  1  0.12159000  0.45520000  0.34613000  1.0 -0.0432238919
H  H131  1  0.98973000  0.58158000  0.93476000  1.0 -0.0500569074
H  H132  1  0.01027000  0.41842000  0.06524000  1.0 -0.0500569074
H  H133  1  0.01027000  0.41842000  0.93476000  1.0 -0.0500569074
H  H134  1  0.98973000  0.58158000  0.06524000  1.0 -0.0500569074
H  H135  1  0.41841000  0.98973000  0.43475000  1.0 -0.0500569074
H  H136  1  0.58159000  0.01027000  0.56525000  1.0 -0.0500569074
H  H137  1  0.58159000  0.01027000  0.43475000  1.0 -0.0500569074
H  H138  1  0.41841000  0.98973000  0.56525000  1.0 -0.0500569074
H  H139  1  0.51026000  0.08158000  0.06524000  1.0 -0.0500569074
H  H140  1  0.48974000  0.91841000  0.93476000  1.0 -0.0500569074
H  H141  1  0.48974000  0.91842000  0.06524000  1.0 -0.0500569074
H  H142  1  0.51026000  0.08159000  0.93476000  1.0 -0.0500569074
H  H143  1  0.08158000  0.48973000  0.56525000  1.0 -0.0500569074
H  H144  1  0.91842000  0.51027000  0.43475000  1.0 -0.0500569074
H  H145  1  0.91842000  0.51027000  0.56525000  1.0 -0.0500569074
H  H146  1  0.08158000  0.48973000  0.43475000  1.0 -0.0500569074
H  H147  1  0.14118000  0.64118000  0.75000000  1.0 -0.1081779141
H  H148  1  0.85882000  0.35882000  0.25000000  1.0 -0.104978795
H  H149  1  0.85882000  0.35882000  0.74999000  1.0 -0.1081779141
H  H150  1  0.14118000  0.64118000  0.25000000  1.0 -0.104978795
H  H151  1  0.35882000  0.14119000  0.25000000  1.0 -0.1081779141
H  H152  1  0.64118000  0.85881000  0.75000000  1.0 -0.1081779141
H  H153  1  0.64118000  0.85881000  0.25000000  1.0 -0.1081779141
H  H154  1  0.35882000  0.14119000  0.75000000  1.0 -0.1081779141
H  H155  1  0.26786000  0.49835000  0.36775000  1.0 0.1090849542
H  H156  1  0.73214000  0.50166000  0.63225000  1.0 0.1090849542
H  H157  1  0.73214000  0.50165000  0.36776000  1.0 0.1090849542
H  H158  1  0.26786000  0.49834000  0.63225000  1.0 0.1090849542
H  H159  1  0.50166000  0.26786000  0.86775000  1.0 0.1090849542
H  H160  1  0.49835000  0.73214000  0.13224000  1.0 0.1090849542
H  H161  1  0.49834000  0.73214000  0.86775000  1.0 0.1090849542
H  H162  1  0.50165000  0.26786000  0.13224000  1.0 0.1090849542
H  H163  1  0.23214000  0.99834000  0.63224000  1.0 0.1090849542
H  H164  1  0.76786000  0.00166000  0.36776000  1.0 0.1090849542
H  H165  1  0.76786000  0.00166000  0.63224000  1.0 0.1090849542
H  H166  1  0.23214000  0.99834000  0.36776000  1.0 0.1090849542
H  H167  1  0.99834000  0.76785000  0.13226000  1.0 0.1090849542
H  H168  1  0.00166000  0.23215000  0.86774000  1.0 0.1090849542
H  H169  1  0.00166000  0.23215000  0.13226000  1.0 0.1090849542
H  H170  1  0.99834000  0.76785000  0.86774000  1.0 0.1090849542
H  H171  1  0.68186000  0.81355000  0.89627000  1.0 0.0388906123
H  H172  1  0.31814000  0.18645000  0.10373000  1.0 0.0388906123
H  H173  1  0.31814000  0.18645000  0.89627000  1.0 0.0388906123
H  H174  1  0.68186000  0.81355000  0.10373000  1.0 0.0388906123
H  H175  1  0.18645000  0.68187000  0.39628000  1.0 0.0388906123
H  H176  1  0.81355000  0.31813000  0.60372000  1.0 0.0388906123
H  H177  1  0.81355000  0.31813000  0.39628000  1.0 0.0388906123
H  H178  1  0.18645000  0.68187000  0.60372000  1.0 0.0388906123
H  H179  1  0.81813000  0.31356000  0.10371000  1.0 0.0388906123
H  H180  1  0.18187000  0.68644000  0.89629000  1.0 0.0388906123
H  H181  1  0.18187000  0.68644000  0.10371000  1.0 0.0388906123
H  H182  1  0.81813000  0.31356000  0.89629000  1.0 0.0388906123
H  H183  1  0.31356000  0.18187000  0.60371000  1.0 0.0388906123
H  H184  1  0.68644000  0.81813000  0.39629000  1.0 0.0388906123
H  H185  1  0.68644000  0.81813000  0.60371000  1.0 0.0388906123
H  H186  1  0.31356000  0.18187000  0.39629000  1.0 0.0388906123
H  H187  1  0.75618000  0.75119000  0.85169000  1.0 0.051385937
H  H188  1  0.24382000  0.24881000  0.14832000  1.0 0.051385937
H  H189  1  0.24382000  0.24881000  0.85169000  1.0 0.051385937
H  H190  1  0.75618000  0.75119000  0.14832000  1.0 0.051385937
H  H191  1  0.24881000  0.75619000  0.35171000  1.0 0.051385937
H  H192  1  0.75119000  0.24381000  0.64829000  1.0 0.051385937
H  H193  1  0.75120000  0.24381000  0.35171000  1.0 0.051385937
H  H194  1  0.24880000  0.75619000  0.64829000  1.0 0.051385937
H  H195  1  0.74380000  0.25119000  0.14830000  1.0 0.051385937
H  H196  1  0.25620000  0.74880000  0.85171000  1.0 0.051385937
H  H197  1  0.25620000  0.74881000  0.14830000  1.0 0.051385937
H  H198  1  0.74381000  0.25120000  0.85171000  1.0 0.051385937
H  H199  1  0.25119000  0.25620000  0.64829000  1.0 0.051385937
H  H200  1  0.74881000  0.74380000  0.35171000  1.0 0.051385937
H  H201  1  0.74881000  0.74380000  0.64829000  1.0 0.051385937
H  H202  1  0.25119000  0.25620000  0.35171000  1.0 0.051385937
H  H203  1  0.84187000  0.89249000  0.74775000  1.0 0.0880579971
H  H204  1  0.15813000  0.10751000  0.25225000  1.0 0.0880579971
H  H205  1  0.15813000  0.10751000  0.74775000  1.0 0.0880579971
H  H206  1  0.84187000  0.89249000  0.25225000  1.0 0.0880579971
H  H207  1  0.10749000  0.84186000  0.24779000  1.0 0.0798193485
H  H208  1  0.89251000  0.15814000  0.75221000  1.0 0.0880579971
H  H209  1  0.89250000  0.15814000  0.24778000  1.0 0.0798193485
H  H210  1  0.10750000  0.84186000  0.75222000  1.0 0.0798193485
H  H211  1  0.65814000  0.39250000  0.25221000  1.0 0.0880579971
H  H212  1  0.34186000  0.60750000  0.74778000  1.0 0.0798193485
H  H213  1  0.34186000  0.60750000  0.25221000  1.0 0.0798193485
H  H214  1  0.65814000  0.39250000  0.74778000  1.0 0.0798193485
H  H215  1  0.39250000  0.34186000  0.75222000  1.0 0.0798193485
H  H216  1  0.60750000  0.65814000  0.24779000  1.0 0.0880579971
H  H217  1  0.60750000  0.65814000  0.75222000  1.0 0.0798193485
H  H218  1  0.39250000  0.34186000  0.24779000  1.0 0.0798193485
H  H219  1  0.76103000  0.95050000  0.79166000  1.0 0.1090849542
H  H220  1  0.23897000  0.04950000  0.20834000  1.0 0.1090849542
H  H221  1  0.23897000  0.04950000  0.79166000  1.0 0.1090849542
H  H222  1  0.76103000  0.95050000  0.20833000  1.0 0.1090849542
H  H223  1  0.04952000  0.76109000  0.29201000  1.0 0.1090849542
H  H224  1  0.95048000  0.23891000  0.70799000  1.0 0.1090849542
H  H225  1  0.95047000  0.23893000  0.29191000  1.0 0.0880579971
H  H226  1  0.04953000  0.76107000  0.70809000  1.0 0.0880579971
H  H227  1  0.73891000  0.45047000  0.20799000  1.0 0.1090849542
H  H228  1  0.26107000  0.54953000  0.79191000  1.0 0.0880579971
H  H229  1  0.26109000  0.54953000  0.20799000  1.0 0.1090849542
H  H230  1  0.73893000  0.45047000  0.79191000  1.0 0.0880579971
H  H231  1  0.45047000  0.26107000  0.70809000  1.0 0.0880579971
H  H232  1  0.54952000  0.73891000  0.29201000  1.0 0.1090849542
H  H233  1  0.54953000  0.73893000  0.70809000  1.0 0.0880579971
H  H234  1  0.45048000  0.26109000  0.29201000  1.0 0.1090849542
H  H235  1  0.81890000  0.71705000  0.85553000  1.0 0.0798193485
H  H236  1  0.18110000  0.28295000  0.14447000  1.0 0.0798193485
H  H237  1  0.18110000  0.28295000  0.85553000  1.0 0.0798193485
H  H238  1  0.81890000  0.71705000  0.14447000  1.0 0.0798193485
H  H239  1  0.28293000  0.81891000  0.35552000  1.0 0.0798193485
H  H240  1  0.71707000  0.18109000  0.64448000  1.0 0.0798193485
H  H241  1  0.71706000  0.18109000  0.35552000  1.0 0.0798193485
H  H242  1  0.28294000  0.81891000  0.64447000  1.0 0.0798193485
H  H243  1  0.68110000  0.21707000  0.14447000  1.0 0.0798193485
H  H244  1  0.31890000  0.78293000  0.85553000  1.0 0.0798193485
H  H245  1  0.31890000  0.78293000  0.14447000  1.0 0.0798193485
H  H246  1  0.68110000  0.21707000  0.85553000  1.0 0.0798193485
H  H247  1  0.21706000  0.31891000  0.64447000  1.0 0.0798193485
H  H248  1  0.78294000  0.68110000  0.35553000  1.0 0.0798193485
H  H249  1  0.78294000  0.68109000  0.64447000  1.0 0.0798193485
H  H250  1  0.21706000  0.31890000  0.35553000  1.0 0.0798193485
H  H251  1  0.35917000  0.56661000  0.50000000  1.0 0.4079155921
H  H252  1  0.64083000  0.43339000  0.50000000  1.0 0.4079155921
H  H253  1  0.43339000  0.35917000  0.00000000  1.0 0.4079155921
H  H254  1  0.56661000  0.64083000  0.00000000  1.0 0.4079155921
H  H255  1  0.14084000  0.06662000  0.50000000  1.0 0.4033241171
H  H256  1  0.85916000  0.93338000  0.50000000  1.0 0.4033241171
H  H257  1  0.06665000  0.85919000  0.00000000  1.0 0.4079155921
H  H258  1  0.93335000  0.14081000  0.00000000  1.0 0.4079155921
H  H259  1  0.52581000  0.47354000  0.50000000  1.0 -0.0017238221
H  H260  1  0.47419000  0.52646000  0.50000000  1.0 -0.0017238221
H  H261  1  0.52646000  0.52581000  0.00000000  1.0 -0.0017238221
H  H262  1  0.47354000  0.47419000  0.00000000  1.0 -0.0017238221
H  H263  1  0.97418000  0.97354000  0.50001000  1.0 -0.0017238221
H  H264  1  0.02582000  0.02646000  0.49999000  1.0 -0.0017238221
H  H265  1  0.97351000  0.02579000  0.00000000  1.0 0.0126324475
H  H266  1  0.02649000  0.97421000  0.00000000  1.0 0.0126324475
H  H267  1  0.37877000  0.28278000  0.49998000  1.0 0.0798193485
H  H268  1  0.62123000  0.71723000  0.49998000  1.0 0.0798193485
H  H269  1  0.71723000  0.37877000  0.00002000  1.0 0.0798193485
H  H270  1  0.28277000  0.62123000  0.00002000  1.0 0.0798193485
H  H271  1  0.12124000  0.78278000  0.49998000  1.0 0.0798193485
H  H272  1  0.87876000  0.21722000  0.50002000  1.0 0.0798193485
H  H273  1  0.78281000  0.87876000  0.00000000  1.0 0.0798193485
H  H274  1  0.21719000  0.12124000  0.00000000  1.0 0.0798193485
H  H275  1  0.21353000  0.37933000  0.50000000  1.0 0.2397434574
H  H276  1  0.78647000  0.62067000  0.50000000  1.0 0.2397434574
H  H277  1  0.62066000  0.21353000  0.00000000  1.0 0.2397434574
H  H278  1  0.37934000  0.78647000  0.00000000  1.0 0.2397434574
H  H279  1  0.28646000  0.87933000  0.50000000  1.0 0.2397434574
H  H280  1  0.71354000  0.12067000  0.50000000  1.0 0.2397434574
H  H281  1  0.87927000  0.71354000  0.00000000  1.0 0.2397434574
H  H282  1  0.12073000  0.28646000  0.00000000  1.0 0.2397434574
C  C1  1  0.01143000  0.57932000  0.49999000  1.0 0.6669053143
C  C2  1  0.98857000  0.42069000  0.50001000  1.0 0.6669053143
C  C3  1  0.42077000  0.01143000  0.00000000  1.0 0.6669053143
C  C4  1  0.57923000  0.98857000  0.00000000  1.0 0.6669053143
C  C5  1  0.48857000  0.07932000  0.49999000  1.0 0.6641476799
C  C6  1  0.51143000  0.92069000  0.49999000  1.0 0.6669053143
C  C7  1  0.07931000  0.51143000  0.00001000  1.0 0.6669053143
C  C8  1  0.92069000  0.48857000  0.00001000  1.0 0.6669053143
C  C9  1  0.84271000  0.78268000  0.77349000  1.0 -0.0500569074
C  C10  1  0.15728000  0.21733000  0.22652000  1.0 -0.0500569074
C  C11  1  0.15726000  0.21735000  0.77347000  1.0 -0.0500569074
C  C12  1  0.84275000  0.78264000  0.22654000  1.0 -0.0500569074
C  C13  1  0.21748000  0.84288000  0.27339000  1.0 -0.0432238919
C  C14  1  0.78253000  0.15713000  0.72660000  1.0 -0.0432238919
C  C15  1  0.78257000  0.15717000  0.27341000  1.0 -0.0432238919
C  C16  1  0.21743000  0.84282000  0.72658000  1.0 -0.0432238919
C  C17  1  0.65699000  0.28240000  0.22669000  1.0 -0.0432238919
C  C18  1  0.34296000  0.71755000  0.77335000  1.0 -0.0432238919
C  C19  1  0.34301000  0.71760000  0.22669000  1.0 -0.0432238919
C  C20  1  0.65704000  0.28245000  0.77334000  1.0 -0.0432238919
C  C21  1  0.28244000  0.34298000  0.72666000  1.0 -0.0432238919
C  C22  1  0.71761000  0.65698000  0.27331000  1.0 -0.0432238919
C  C23  1  0.71756000  0.65703000  0.72666000  1.0 -0.0432238919
C  C24  1  0.28239000  0.34302000  0.27331000  1.0 -0.0432238919
C  C25  1  0.88560000  0.70731000  0.77000000  1.0 -0.0203569774
C  C26  1  0.11439000  0.29269000  0.23000000  1.0 -0.0203569774
C  C27  1  0.11438000  0.29270000  0.76999000  1.0 -0.0203569774
C  C28  1  0.88562000  0.70730000  0.23000000  1.0 -0.0203569774
C  C29  1  0.29269000  0.88562000  0.26996000  1.0 -0.0203569774
C  C30  1  0.70731000  0.11438000  0.73004000  1.0 -0.0203569774
C  C31  1  0.70732000  0.11440000  0.26998000  1.0 -0.0203569774
C  C32  1  0.29268000  0.88560000  0.73002000  1.0 -0.0203569774
C  C33  1  0.61431000  0.20727000  0.23011000  1.0 -0.0287196919
C  C34  1  0.38567000  0.79272000  0.76991000  1.0 -0.0203569774
C  C35  1  0.38569000  0.79273000  0.23011000  1.0 -0.0287196919
C  C36  1  0.61433000  0.20729000  0.76991000  1.0 -0.0203569774
C  C37  1  0.20728000  0.38569000  0.73009000  1.0 -0.0203569774
C  C38  1  0.79273000  0.61429000  0.26989000  1.0 -0.0287196919
C  C39  1  0.79272000  0.61431000  0.73009000  1.0 -0.0203569774
C  C40  1  0.20727000  0.38571000  0.26989000  1.0 -0.0287196919
C  C41  1  0.92449000  0.71115000  0.71758000  1.0 -0.1764292655
C  C42  1  0.07551000  0.28885000  0.28242000  1.0 -0.1764292655
C  C43  1  0.07555000  0.28882000  0.71761000  1.0 -0.1764292655
C  C44  1  0.92444000  0.71119000  0.28239000  1.0 -0.1764292655
C  C45  1  0.28887000  0.92452000  0.21756000  1.0 -0.1764292655
C  C46  1  0.71113000  0.07547000  0.78244000  1.0 -0.1764292655
C  C47  1  0.71111000  0.07545000  0.21754000  1.0 -0.1764292655
C  C48  1  0.28890000  0.92455000  0.78246000  1.0 -0.1764292655
C  C49  1  0.57568000  0.21132000  0.28232000  1.0 -0.1736398887
C  C50  1  0.42438000  0.78873000  0.71765000  1.0 -0.1736398887
C  C51  1  0.42432000  0.78868000  0.28232000  1.0 -0.1736398887
C  C52  1  0.57562000  0.21127000  0.71765000  1.0 -0.1736398887
C  C53  1  0.21128000  0.42436000  0.78233000  1.0 -0.1736398887
C  C54  1  0.78867000  0.57570000  0.21770000  1.0 -0.1736398887
C  C55  1  0.78872000  0.57564000  0.78233000  1.0 -0.1736398887
C  C56  1  0.21133000  0.42430000  0.21769000  1.0 -0.1736398887
C  C57  1  0.15103000  0.60345000  0.49999000  1.0 0.589374751
C  C58  1  0.84897000  0.39655000  0.50001000  1.0 0.589374751
C  C59  1  0.39667000  0.15114000  0.00001000  1.0 0.589374751
C  C60  1  0.60333000  0.84886000  0.00000000  1.0 0.589374751
C  C61  1  0.34899000  0.10347000  0.49999000  1.0 0.5830456782
C  C62  1  0.65101000  0.89653000  0.49999000  1.0 0.589374751
C  C63  1  0.10350000  0.65097000  0.00001000  1.0 0.589374751
C  C64  1  0.89650000  0.34903000  0.00002000  1.0 0.589374751
C  C65  1  0.88309000  0.78819000  0.71918000  1.0 -0.0615412788
C  C66  1  0.11691000  0.21181000  0.28082000  1.0 -0.0615412788
C  C67  1  0.11693000  0.21182000  0.71921000  1.0 -0.0615412788
C  C68  1  0.88306000  0.78818000  0.28078000  1.0 -0.0615412788
C  C69  1  0.21180000  0.88301000  0.21920000  1.0 -0.0615412788
C  C70  1  0.78820000  0.11698000  0.78081000  1.0 -0.0615412788
C  C71  1  0.78820000  0.11696000  0.21918000  1.0 -0.0615412788
C  C72  1  0.21180000  0.88304000  0.78083000  1.0 -0.0615412788
C  C73  1  0.61708000  0.28817000  0.28066000  1.0 -0.0615412788
C  C74  1  0.38295000  0.71182000  0.71929000  1.0 -0.0615412788
C  C75  1  0.38291000  0.71183000  0.28065000  1.0 -0.0615412788
C  C76  1  0.61705000  0.28818000  0.71930000  1.0 -0.0615412788
C  C77  1  0.28819000  0.38295000  0.78071000  1.0 -0.0615412788
C  C78  1  0.71182000  0.61709000  0.21934000  1.0 -0.0615412788
C  C79  1  0.71181000  0.61705000  0.78071000  1.0 -0.0615412788
C  C80  1  0.28818000  0.38291000  0.21934000  1.0 -0.0615412788
C  C81  1  0.80685000  0.81902000  0.79438000  1.0 -0.0287196919
C  C82  1  0.19317000  0.18097000  0.20562000  1.0 -0.0287196919
C  C83  1  0.19318000  0.18096000  0.79440000  1.0 -0.0287196919
C  C84  1  0.80680000  0.81905000  0.20560000  1.0 -0.0287196919
C  C85  1  0.18068000  0.80645000  0.29468000  1.0 -0.0287196919
C  C86  1  0.81932000  0.19354000  0.70533000  1.0 -0.0287196919
C  C87  1  0.81926000  0.19348000  0.29463000  1.0 -0.0287196919
C  C88  1  0.18075000  0.80653000  0.70537000  1.0 -0.0287196919
C  C89  1  0.69365000  0.31939000  0.20525000  1.0 -0.0203569774
C  C90  1  0.30642000  0.68067000  0.79470000  1.0 -0.0203569774
C  C91  1  0.30635000  0.68060000  0.20525000  1.0 -0.0203569774
C  C92  1  0.69358000  0.31933000  0.79470000  1.0 -0.0203569774
C  C93  1  0.31934000  0.30642000  0.70529000  1.0 -0.0203569774
C  C94  1  0.68060000  0.69365000  0.29475000  1.0 -0.0203569774
C  C95  1  0.68066000  0.69358000  0.70529000  1.0 -0.0203569774
C  C96  1  0.31940000  0.30635000  0.29475000  1.0 -0.0203569774
C  C97  1  0.22034000  0.54343000  0.44222000  1.0 -0.0432238919
C  C98  1  0.77966000  0.45657000  0.55778000  1.0 -0.0432238919
C  C99  1  0.77966000  0.45657000  0.44222000  1.0 -0.0432238919
C  C100  1  0.22035000  0.54343000  0.55778000  1.0 -0.0432238919
C  C101  1  0.45657000  0.22035000  0.94222000  1.0 -0.0432238919
C  C102  1  0.54343000  0.77965000  0.05778000  1.0 -0.0432238919
C  C103  1  0.54343000  0.77965000  0.94222000  1.0 -0.0432238919
C  C104  1  0.45657000  0.22035000  0.05778000  1.0 -0.0432238919
C  C105  1  0.27965000  0.04343000  0.55778000  1.0 -0.0432238919
C  C106  1  0.72035000  0.95657000  0.44222000  1.0 -0.0432238919
C  C107  1  0.72035000  0.95657000  0.55778000  1.0 -0.0432238919
C  C108  1  0.27965000  0.04343000  0.44222000  1.0 -0.0432238919
C  C109  1  0.04343000  0.72035000  0.05776000  1.0 -0.0432238919
C  C110  1  0.95657000  0.27965000  0.94224000  1.0 -0.0432238919
C  C111  1  0.95657000  0.27965000  0.05776000  1.0 -0.0432238919
C  C112  1  0.04343000  0.72035000  0.94224000  1.0 -0.0432238919
C  C113  1  0.05890000  0.73475000  0.49825000  1.0 0.1898258079
C  C114  1  0.94110000  0.26525000  0.50175000  1.0 0.1898258079
C  C115  1  0.27135000  0.06212000  0.00000000  1.0 0.0880579971
C  C116  1  0.72865000  0.93788000  0.00000000  1.0 0.0880579971
C  C117  1  0.44110000  0.23476000  0.49825000  1.0 0.1898258079
C  C118  1  0.55890000  0.76524000  0.49825000  1.0 0.1898258079
C  C119  1  0.23476000  0.55890000  0.00175000  1.0 0.1898258079
C  C120  1  0.76524000  0.44110000  0.00175000  1.0 0.1898258079
C  C121  1  0.91150000  0.76052000  0.70113000  1.0 -0.0110530349
C  C122  1  0.08849000  0.23948000  0.29887000  1.0 -0.0110530349
C  C123  1  0.08846000  0.23948000  0.70108000  1.0 -0.0110530349
C  C124  1  0.91154000  0.76051000  0.29892000  1.0 -0.0110530349
C  C125  1  0.23957000  0.91143000  0.20124000  1.0 -0.0110530349
C  C126  1  0.76044000  0.08857000  0.79876000  1.0 -0.0110530349
C  C127  1  0.76046000  0.08858000  0.20124000  1.0 -0.0110530349
C  C128  1  0.23954000  0.91142000  0.79876000  1.0 -0.0110530349
C  C129  1  0.58841000  0.26040000  0.29891000  1.0 -0.0110530349
C  C130  1  0.41155000  0.73959000  0.70113000  1.0 -0.0203569774
C  C131  1  0.41159000  0.73960000  0.29891000  1.0 -0.0110530349
C  C132  1  0.58845000  0.26041000  0.70113000  1.0 -0.0203569774
C  C133  1  0.26041000  0.41155000  0.79887000  1.0 -0.0203569774
C  C134  1  0.73960000  0.58840000  0.20108000  1.0 -0.0110530349
C  C135  1  0.73959000  0.58845000  0.79887000  1.0 -0.0203569774
C  C136  1  0.26040000  0.41160000  0.20108000  1.0 -0.0110530349
C  C137  1  0.96207000  0.67437000  0.68949000  1.0 0.589374751
C  C138  1  0.03793000  0.32564000  0.31051000  1.0 0.589374751
C  C139  1  0.03772000  0.32557000  0.68933000  1.0 0.589374751
C  C140  1  0.96228000  0.67442000  0.31067000  1.0 0.589374751
C  C141  1  0.32589000  0.96147000  0.18997000  1.0 0.5830456782
C  C142  1  0.67412000  0.03853000  0.81003000  1.0 0.5830456782
C  C143  1  0.67413000  0.03855000  0.18999000  1.0 0.5830456782
C  C144  1  0.32586000  0.96144000  0.81001000  1.0 0.5830456782
C  C145  1  0.53760000  0.17435000  0.31076000  1.0 0.589374751
C  C146  1  0.46218000  0.82570000  0.68941000  1.0 0.589374751
C  C147  1  0.46240000  0.82565000  0.31076000  1.0 0.589374751
C  C148  1  0.53782000  0.17430000  0.68941000  1.0 0.589374751
C  C149  1  0.17427000  0.46218000  0.81059000  1.0 0.589374751
C  C150  1  0.82567000  0.53761000  0.18924000  1.0 0.589374751
C  C151  1  0.82573000  0.53782000  0.81059000  1.0 0.589374751
C  C152  1  0.17433000  0.46239000  0.18924000  1.0 0.589374751
C  C153  1  0.99431000  0.58883000  0.85657000  1.0 0.0798193485
C  C154  1  0.00569000  0.41117000  0.14343000  1.0 0.0798193485
C  C155  1  0.00569000  0.41117000  0.85657000  1.0 0.0798193485
C  C156  1  0.99431000  0.58883000  0.14343000  1.0 0.0798193485
C  C157  1  0.41118000  0.99432000  0.35657000  1.0 0.0798193485
C  C158  1  0.58882000  0.00568000  0.64343000  1.0 0.0798193485
C  C159  1  0.58882000  0.00568000  0.35657000  1.0 0.0798193485
C  C160  1  0.41118000  0.99431000  0.64343000  1.0 0.0798193485
C  C161  1  0.50569000  0.08883000  0.14343000  1.0 0.0798193485
C  C162  1  0.49431000  0.91117000  0.85656000  1.0 0.0798193485
C  C163  1  0.49431000  0.91117000  0.14344000  1.0 0.0798193485
C  C164  1  0.50569000  0.08883000  0.85656000  1.0 0.0798193485
C  C165  1  0.08883000  0.49431000  0.64342000  1.0 0.0798193485
C  C166  1  0.91116000  0.50569000  0.35658000  1.0 0.0798193485
C  C167  1  0.91117000  0.50569000  0.64342000  1.0 0.0798193485
C  C168  1  0.08884000  0.49431000  0.35658000  1.0 0.0798193485
C  C169  1  0.10157000  0.60157000  0.74999000  1.0 0.6079465795
C  C170  1  0.89843000  0.39843000  0.25000000  1.0 0.6079465795
C  C171  1  0.89843000  0.39843000  0.74999000  1.0 0.6079465795
C  C172  1  0.10157000  0.60158000  0.25001000  1.0 0.6079465795
C  C173  1  0.39846000  0.10157000  0.25004000  1.0 0.6079465795
C  C174  1  0.60153000  0.89843000  0.74997000  1.0 0.6079465795
C  C175  1  0.60154000  0.89843000  0.25004000  1.0 0.6079465795
C  C176  1  0.39847000  0.10157000  0.74997000  1.0 0.6079465795
C  C177  1  0.25604000  0.51175000  0.42466000  1.0 -0.1237166616
C  C178  1  0.74396000  0.48825000  0.57533000  1.0 -0.1237166616
C  C179  1  0.74396000  0.48825000  0.42466000  1.0 -0.1237166616
C  C180  1  0.25604000  0.51175000  0.57533000  1.0 -0.1237166616
C  C181  1  0.48825000  0.25604000  0.92466000  1.0 -0.1237166616
C  C182  1  0.51175000  0.74396000  0.07535000  1.0 -0.1237166616
C  C183  1  0.51175000  0.74396000  0.92466000  1.0 -0.1237166616
C  C184  1  0.48825000  0.25604000  0.07535000  1.0 -0.1237166616
C  C185  1  0.24396000  0.01176000  0.57531000  1.0 -0.1237166616
C  C186  1  0.75604000  0.98824000  0.42469000  1.0 -0.1237166616
C  C187  1  0.75604000  0.98824000  0.57531000  1.0 -0.1237166616
C  C188  1  0.24396000  0.01176000  0.42469000  1.0 -0.1237166616
C  C189  1  0.01173000  0.75608000  0.07536000  1.0 -0.1237166616
C  C190  1  0.98827000  0.24392000  0.92464000  1.0 -0.1237166616
C  C191  1  0.98827000  0.24392000  0.07536000  1.0 -0.1237166616
C  C192  1  0.01173000  0.75608000  0.92464000  1.0 -0.1237166616
C  C193  1  0.27835000  0.49216000  0.50000000  1.0 0.0231950736
C  C194  1  0.72165000  0.50784000  0.50000000  1.0 0.0231950736
C  C195  1  0.50785000  0.27835000  0.00000000  1.0 0.0231950736
C  C196  1  0.49215000  0.72165000  0.00000000  1.0 0.0231950736
C  C197  1  0.22164000  0.99215000  0.50000000  1.0 0.0231950736
C  C198  1  0.77836000  0.00785000  0.50000000  1.0 0.0231950736
C  C199  1  0.99225000  0.77824000  0.00000000  1.0 0.0273589488
C  C200  1  0.00775000  0.22176000  0.00000000  1.0 0.0231950736
C  C201  1  0.19490000  0.56600000  0.50000000  1.0 -0.1267961053
C  C202  1  0.80510000  0.43400000  0.50000000  1.0 -0.1267961053
C  C203  1  0.43401000  0.19489000  0.00000000  1.0 -0.1267961053
C  C204  1  0.56599000  0.80511000  0.00000000  1.0 -0.1267961053
C  C205  1  0.30511000  0.06601000  0.50000000  1.0 -0.1267961053
C  C206  1  0.69489000  0.93399000  0.50000000  1.0 -0.1267961053
C  C207  1  0.06599000  0.69492000  0.00000000  1.0 -0.1237166616
C  C208  1  0.93401000  0.30508000  0.00000000  1.0 -0.1237166616
C  C209  1  0.72841000  0.83350000  0.85545000  1.0 0.1090849542
C  C210  1  0.27159000  0.16650000  0.14454000  1.0 0.1090849542
C  C211  1  0.27160000  0.16648000  0.85545000  1.0 0.1090849542
C  C212  1  0.72840000  0.83353000  0.14454000  1.0 0.1090849542
C  C213  1  0.16604000  0.72830000  0.35544000  1.0 0.0985543466
C  C214  1  0.83395000  0.27170000  0.64456000  1.0 0.0985543466
C  C215  1  0.83388000  0.27168000  0.35542000  1.0 0.0985543466
C  C216  1  0.16613000  0.72832000  0.64458000  1.0 0.0985543466
C  C217  1  0.77172000  0.33404000  0.14458000  1.0 0.0985543466
C  C218  1  0.22830000  0.66604000  0.85541000  1.0 0.0985543466
C  C219  1  0.22828000  0.66596000  0.14458000  1.0 0.0985543466
C  C220  1  0.77170000  0.33395000  0.85541000  1.0 0.0985543466
C  C221  1  0.33397000  0.22830000  0.64460000  1.0 0.0985543466
C  C222  1  0.66596000  0.77172000  0.35541000  1.0 0.0985543466
C  C223  1  0.66604000  0.77170000  0.64460000  1.0 0.0985543466
C  C224  1  0.33404000  0.22828000  0.35541000  1.0 0.0985543466
C  C225  1  0.75787000  0.80784000  0.83680000  1.0 -0.0500569074
C  C226  1  0.24212000  0.19216000  0.16320000  1.0 -0.0500569074
C  C227  1  0.24211000  0.19215000  0.83678000  1.0 -0.0500569074
C  C228  1  0.75789000  0.80784000  0.16322000  1.0 -0.0615412788
C  C229  1  0.19225000  0.75817000  0.33657000  1.0 -0.0615412788
C  C230  1  0.80775000  0.24183000  0.66343000  1.0 -0.0615412788
C  C231  1  0.80776000  0.24188000  0.33661000  1.0 -0.0615412788
C  C232  1  0.19224000  0.75811000  0.66340000  1.0 -0.0615412788
C  C233  1  0.74179000  0.30776000  0.16350000  1.0 -0.0699844663
C  C234  1  0.25817000  0.69223000  0.83653000  1.0 -0.0615412788
C  C235  1  0.25821000  0.69224000  0.16350000  1.0 -0.0699844663
C  C236  1  0.74183000  0.30777000  0.83653000  1.0 -0.0615412788
C  C237  1  0.30776000  0.25817000  0.66348000  1.0 -0.0699844663
C  C238  1  0.69225000  0.74179000  0.33649000  1.0 -0.0699844663
C  C239  1  0.69224000  0.74183000  0.66348000  1.0 -0.0615412788
C  C240  1  0.30775000  0.25821000  0.33649000  1.0 -0.0699844663
C  C241  1  0.79406000  0.86731000  0.79163000  1.0 -0.0919693222
C  C242  1  0.20594000  0.13269000  0.20837000  1.0 -0.0919693222
C  C243  1  0.20594000  0.13271000  0.79164000  1.0 -0.0919693222
C  C244  1  0.79406000  0.86729000  0.20836000  1.0 -0.0919693222
C  C245  1  0.13293000  0.79403000  0.29156000  1.0 -0.0919693222
C  C246  1  0.86708000  0.20597000  0.70844000  1.0 -0.0919693222
C  C247  1  0.86712000  0.20596000  0.29156000  1.0 -0.0919693222
C  C248  1  0.13287000  0.79404000  0.70844000  1.0 -0.0919693222
C  C249  1  0.70595000  0.36701000  0.20843000  1.0 -0.0919693222
C  C250  1  0.29406000  0.63294000  0.79157000  1.0 -0.0919693222
C  C251  1  0.29405000  0.63299000  0.20843000  1.0 -0.0919693222
C  C252  1  0.70594000  0.36706000  0.79157000  1.0 -0.0919693222
C  C253  1  0.36705000  0.29406000  0.70843000  1.0 -0.0919693222
C  C254  1  0.63299000  0.70595000  0.29157000  1.0 -0.0919693222
C  C255  1  0.63295000  0.70594000  0.70844000  1.0 -0.0919693222
C  C256  1  0.36701000  0.29405000  0.29157000  1.0 -0.0919693222
C  C257  1  0.76404000  0.89259000  0.81017000  1.0 0.131080221
C  C258  1  0.23596000  0.10741000  0.18982000  1.0 0.131080221
C  C259  1  0.23597000  0.10741000  0.81018000  1.0 0.131080221
C  C260  1  0.76403000  0.89259000  0.18981000  1.0 0.131080221
C  C261  1  0.10734000  0.76364000  0.31038000  1.0 0.1198716988
C  C262  1  0.89266000  0.23636000  0.68962000  1.0 0.1198716988
C  C263  1  0.89262000  0.23629000  0.31032000  1.0 0.1198716988
C  C264  1  0.10738000  0.76371000  0.68968000  1.0 0.1198716988
C  C265  1  0.73641000  0.39265000  0.18959000  1.0 0.1198716988
C  C266  1  0.26366000  0.60739000  0.81035000  1.0 0.1198716988
C  C267  1  0.26359000  0.60734000  0.18959000  1.0 0.1198716988
C  C268  1  0.73634000  0.39262000  0.81035000  1.0 0.1198716988
C  C269  1  0.39261000  0.26366000  0.68965000  1.0 0.1198716988
C  C270  1  0.60734000  0.73641000  0.31041000  1.0 0.1198716988
C  C271  1  0.60739000  0.73634000  0.68965000  1.0 0.1198716988
C  C272  1  0.39266000  0.26359000  0.31041000  1.0 0.1198716988
C  C273  1  0.85524000  0.73435000  0.79331000  1.0 -0.0699844663
C  C274  1  0.14476000  0.26564000  0.20669000  1.0 -0.0699844663
C  C275  1  0.14478000  0.26563000  0.79332000  1.0 -0.0699844663
C  C276  1  0.85522000  0.73438000  0.20668000  1.0 -0.0699844663
C  C277  1  0.26557000  0.85526000  0.29324000  1.0 -0.0699844663
C  C278  1  0.73443000  0.14474000  0.70676000  1.0 -0.0699844663
C  C279  1  0.73440000  0.14473000  0.29325000  1.0 -0.0699844663
C  C280  1  0.26560000  0.85527000  0.70676000  1.0 -0.0699844663
C  C281  1  0.64481000  0.23452000  0.20673000  1.0 -0.0699844663
C  C282  1  0.35521000  0.76551000  0.79326000  1.0 -0.0699844663
C  C283  1  0.35519000  0.76548000  0.20673000  1.0 -0.0699844663
C  C284  1  0.64479000  0.23449000  0.79326000  1.0 -0.0699844663
C  C285  1  0.23450000  0.35519000  0.70673000  1.0 -0.0699844663
C  C286  1  0.76547000  0.64482000  0.29328000  1.0 -0.0699844663
C  C287  1  0.76550000  0.64481000  0.70673000  1.0 -0.0699844663
C  C288  1  0.23453000  0.35518000  0.29328000  1.0 -0.0699844663
C  C289  1  0.24533000  0.48450000  0.50000000  1.0 0.0388906123
C  C290  1  0.75467000  0.51550000  0.50000000  1.0 0.0388906123
C  C291  1  0.51550000  0.24532000  0.00000000  1.0 0.0388906123
C  C292  1  0.48450000  0.75468000  0.00000000  1.0 0.0388906123
C  C293  1  0.25467000  0.98449000  0.50000000  1.0 0.0388906123
C  C294  1  0.74533000  0.01552000  0.50000000  1.0 0.0388906123
C  C295  1  0.98435000  0.74547000  0.00000000  1.0 0.0388906123
C  C296  1  0.01565000  0.25453000  0.00000000  1.0 0.0388906123
C  C297  1  0.45779000  0.44072000  0.50000000  1.0 0.3332279671
C  C298  1  0.54221000  0.55928000  0.50000000  1.0 0.3332279671
C  C299  1  0.55929000  0.45779000  0.00000000  1.0 0.3332279671
C  C300  1  0.44071000  0.54221000  0.00000000  1.0 0.3332279671
C  C301  1  0.04220000  0.94072000  0.49999000  1.0 0.3332279671
C  C302  1  0.95780000  0.05928000  0.50001000  1.0 0.3387333799
C  C303  1  0.94070000  0.95784000  0.00000000  1.0 0.3332279671
C  C304  1  0.05930000  0.04216000  0.00000000  1.0 0.3387333799
C  C305  1  0.33454000  0.47708000  0.49999000  1.0 -0.3207257615
C  C306  1  0.66546000  0.52292000  0.49999000  1.0 -0.3207257615
C  C307  1  0.52292000  0.33454000  0.00001000  1.0 -0.3207257615
C  C308  1  0.47708000  0.66546000  0.00001000  1.0 -0.3207257615
C  C309  1  0.16547000  0.97709000  0.49998000  1.0 -0.3207257615
C  C310  1  0.83453000  0.02291000  0.50002000  1.0 -0.3207257615
C  C311  1  0.97715000  0.83462000  0.00000000  1.0 -0.3207257615
C  C312  1  0.02285000  0.16538000  0.00000000  1.0 -0.3207257615
C  C313  1  0.28612000  0.40851000  0.50001000  1.0 0.0388906123
C  C314  1  0.71388000  0.59149000  0.50001000  1.0 0.051385937
C  C315  1  0.59149000  0.28612000  0.99999000  1.0 0.0273589488
C  C316  1  0.40851000  0.71388000  0.99999000  1.0 0.0273589488
C  C317  1  0.21386000  0.90849000  0.50001000  1.0 0.0273589488
C  C318  1  0.78614000  0.09151000  0.49999000  1.0 0.0273589488
C  C319  1  0.90859000  0.78598000  0.00000000  1.0 0.051385937
C  C320  1  0.09141000  0.21402000  0.00000000  1.0 0.0388906123
C  C321  1  0.40773000  0.37257000  0.49999000  1.0 0.1198716988
C  C322  1  0.59227000  0.62743000  0.49999000  1.0 0.1198716988
C  C323  1  0.62743000  0.40774000  0.00001000  1.0 0.131080221
C  C324  1  0.37257000  0.59226000  0.00001000  1.0 0.1198716988
C  C325  1  0.09228000  0.87258000  0.49999000  1.0 0.1198716988
C  C326  1  0.90772000  0.12742000  0.50001000  1.0 0.1198716988
C  C327  1  0.87255000  0.90766000  0.00000000  1.0 0.1198716988
C  C328  1  0.12745000  0.09234000  0.00000000  1.0 0.1198716988
N  N1  1  0.71927000  0.88630000  0.84973000  1.0 -0.3207257615
N  N2  1  0.28072000  0.11370000  0.15028000  1.0 -0.3207257615
N  N3  1  0.28072000  0.11371000  0.84972000  1.0 -0.3207257615
N  N4  1  0.71929000  0.88628000  0.15029000  1.0 -0.3207257615
N  N5  1  0.11401000  0.71952000  0.34933000  1.0 -0.3297196429
N  N6  1  0.88599000  0.28048000  0.65067000  1.0 -0.3297196429
N  N7  1  0.88601000  0.28054000  0.34940000  1.0 -0.3297196429
N  N8  1  0.11399000  0.71946000  0.65059000  1.0 -0.3297196429
N  N9  1  0.78041000  0.38592000  0.15064000  1.0 -0.3297196429
N  N10  1  0.21951000  0.61406000  0.84942000  1.0 -0.3297196429
N  N11  1  0.21958000  0.61408000  0.15064000  1.0 -0.3297196429
N  N12  1  0.78050000  0.38595000  0.84942000  1.0 -0.3297196429
N  N13  1  0.38594000  0.21951000  0.65059000  1.0 -0.3297196429
N  N14  1  0.61408000  0.78041000  0.34936000  1.0 -0.3297196429
N  N15  1  0.61406000  0.78049000  0.65058000  1.0 -0.3297196429
N  N16  1  0.38592000  0.21959000  0.34937000  1.0 -0.3297196429
N  N17  1  0.48827000  0.37182000  0.50005000  1.0 -0.3892681103
N  N18  1  0.51173000  0.62818000  0.50005000  1.0 -0.3892681103
N  N19  1  0.62818000  0.48827000  0.99995000  1.0 -0.3892681103
N  N20  1  0.37182000  0.51173000  0.99995000  1.0 -0.3892681103
N  N21  1  0.01173000  0.87182000  0.50005000  1.0 -0.3892681103
N  N22  1  0.98827000  0.12818000  0.49995000  1.0 -0.3892681103
N  N23  1  0.87170000  0.98827000  0.00000000  1.0 -0.3798329484
N  N24  1  0.12830000  0.01173000  0.00000000  1.0 -0.3798329484
O  O1  1  0.00612000  0.69578000  0.65238000  1.0 -0.6216076639
O  O2  1  0.99388000  0.30422000  0.34761000  1.0 -0.6216076639
O  O3  1  0.99395000  0.30428000  0.65255000  1.0 -0.6216076639
O  O4  1  0.00605000  0.69572000  0.34746000  1.0 -0.6216076639
O  O5  1  0.30388000  0.00638000  0.15176000  1.0 -0.6216076639
O  O6  1  0.69612000  0.99362000  0.84825000  1.0 -0.6216076639
O  O7  1  0.69613000  0.99360000  0.15175000  1.0 -0.6216076639
O  O8  1  0.30387000  0.00640000  0.84826000  1.0 -0.6216076639
O  O9  1  0.49405000  0.19569000  0.34743000  1.0 -0.6216076639
O  O10  1  0.50603000  0.80424000  0.65242000  1.0 -0.6216076639
O  O11  1  0.50595000  0.80431000  0.34743000  1.0 -0.6216076639
O  O12  1  0.49398000  0.19576000  0.65242000  1.0 -0.6216076639
O  O13  1  0.19577000  0.50603000  0.84759000  1.0 -0.6216076639
O  O14  1  0.80430000  0.49405000  0.15256000  1.0 -0.6216076639
O  O15  1  0.80424000  0.49396000  0.84760000  1.0 -0.6216076639
O  O16  1  0.19570000  0.50596000  0.15256000  1.0 -0.6216076639
O  O17  1  0.95363000  0.62409000  0.69819000  1.0 -0.5487733236
O  O18  1  0.04637000  0.37590000  0.30181000  1.0 -0.5487733236
O  O19  1  0.04642000  0.37599000  0.69823000  1.0 -0.5487733236
O  O20  1  0.95358000  0.62401000  0.30177000  1.0 -0.5487733236
O  O21  1  0.37554000  0.95380000  0.19806000  1.0 -0.5347936105
O  O22  1  0.62445000  0.04620000  0.80194000  1.0 -0.5347936105
O  O23  1  0.62444000  0.04620000  0.19805000  1.0 -0.5347936105
O  O24  1  0.37556000  0.95380000  0.80195000  1.0 -0.5410567673
O  O25  1  0.54643000  0.12407000  0.30173000  1.0 -0.5487733236
O  O26  1  0.45362000  0.87584000  0.69822000  1.0 -0.5487733236
O  O27  1  0.45357000  0.87593000  0.30173000  1.0 -0.5487733236
O  O28  1  0.54638000  0.12416000  0.69822000  1.0 -0.5487733236
O  O29  1  0.12417000  0.45363000  0.80178000  1.0 -0.5487733236
O  O30  1  0.87592000  0.54642000  0.19827000  1.0 -0.5487733236
O  O31  1  0.87583000  0.54637000  0.80178000  1.0 -0.5487733236
O  O32  1  0.12408000  0.45358000  0.19827000  1.0 -0.5487733236
O  O33  1  0.02044000  0.59111000  0.57201000  1.0 -0.5799824831
O  O34  1  0.97956000  0.40889000  0.42799000  1.0 -0.5799824831
O  O35  1  0.97956000  0.40889000  0.57201000  1.0 -0.5861342842
O  O36  1  0.02044000  0.59111000  0.42799000  1.0 -0.5861342842
O  O37  1  0.40882000  0.02040000  0.07192000  1.0 -0.5799824831
O  O38  1  0.59118000  0.97959000  0.92807000  1.0 -0.5799824831
O  O39  1  0.59118000  0.97960000  0.07192000  1.0 -0.5799824831
O  O40  1  0.40882000  0.02040000  0.92808000  1.0 -0.5799824831
O  O41  1  0.47956000  0.09111000  0.42800000  1.0 -0.5861342842
O  O42  1  0.52043000  0.90890000  0.57200000  1.0 -0.5861342842
O  O43  1  0.52043000  0.90889000  0.42800000  1.0 -0.5861342842
O  O44  1  0.47957000  0.09110000  0.57200000  1.0 -0.5799824831
O  O45  1  0.09110000  0.52043000  0.92799000  1.0 -0.5799824831
O  O46  1  0.90890000  0.47956000  0.07201000  1.0 -0.5861342842
O  O47  1  0.90889000  0.47956000  0.92799000  1.0 -0.5799824831
O  O48  1  0.09111000  0.52044000  0.07200000  1.0 -0.5861342842
O  O49  1  0.06692000  0.61272000  0.69943000  1.0 -0.5487733236
O  O50  1  0.93308000  0.38728000  0.30058000  1.0 -0.5487733236
O  O51  1  0.93308000  0.38730000  0.69941000  1.0 -0.5487733236
O  O52  1  0.06692000  0.61270000  0.30060000  1.0 -0.5487733236
O  O53  1  0.38739000  0.06692000  0.19955000  1.0 -0.5410567673
O  O54  1  0.61261000  0.93308000  0.80044000  1.0 -0.5487733236
O  O55  1  0.61261000  0.93308000  0.19955000  1.0 -0.5487733236
O  O56  1  0.38739000  0.06692000  0.80044000  1.0 -0.5410567673
O  O57  1  0.43306000  0.11271000  0.30062000  1.0 -0.5487733236
O  O58  1  0.56693000  0.88727000  0.69941000  1.0 -0.5487733236
O  O59  1  0.56694000  0.88729000  0.30062000  1.0 -0.5487733236
O  O60  1  0.43307000  0.11273000  0.69941000  1.0 -0.5487733236
O  O61  1  0.11272000  0.56692000  0.80058000  1.0 -0.5487733236
O  O62  1  0.88730000  0.43308000  0.19939000  1.0 -0.5487733236
O  O63  1  0.88728000  0.43308000  0.80059000  1.0 -0.5487733236
O  O64  1  0.11270000  0.56693000  0.19938000  1.0 -0.5487733236
O  O65  1  0.99693000  0.54829000  0.81119000  1.0 -0.5487733236
O  O66  1  0.00306000  0.45171000  0.18881000  1.0 -0.5487733236
O  O67  1  0.00306000  0.45171000  0.81119000  1.0 -0.5487733236
O  O68  1  0.99694000  0.54829000  0.18882000  1.0 -0.5487733236
O  O69  1  0.45171000  0.99693000  0.31122000  1.0 -0.5487733236
O  O70  1  0.54829000  0.00307000  0.68877000  1.0 -0.5487733236
O  O71  1  0.54829000  0.00306000  0.31122000  1.0 -0.5487733236
O  O72  1  0.45171000  0.99693000  0.68877000  1.0 -0.5487733236
O  O73  1  0.50308000  0.04829000  0.18877000  1.0 -0.5487733236
O  O74  1  0.49692000  0.95171000  0.81123000  1.0 -0.5487733236
O  O75  1  0.49692000  0.95171000  0.18878000  1.0 -0.5487733236
O  O76  1  0.50308000  0.04829000  0.81123000  1.0 -0.5487733236
O  O77  1  0.04828000  0.49693000  0.68881000  1.0 -0.5487733236
O  O78  1  0.95172000  0.50306000  0.31117000  1.0 -0.5487733236
O  O79  1  0.95172000  0.50307000  0.68882000  1.0 -0.5487733236
O  O80  1  0.04828000  0.49694000  0.31118000  1.0 -0.5487733236
O  O81  1  0.13236000  0.61943000  0.57047000  1.0 -0.5799824831
O  O82  1  0.86764000  0.38057000  0.42954000  1.0 -0.5799824831
O  O83  1  0.86763000  0.38057000  0.57045000  1.0 -0.5799824831
O  O84  1  0.13237000  0.61943000  0.42955000  1.0 -0.5799824831
O  O85  1  0.38053000  0.13242000  0.07034000  1.0 -0.5694226276
O  O86  1  0.61947000  0.86759000  0.92965000  1.0 -0.5694226276
O  O87  1  0.61947000  0.86758000  0.07034000  1.0 -0.5694226276
O  O88  1  0.38053000  0.13241000  0.92965000  1.0 -0.5694226276
O  O89  1  0.36761000  0.11941000  0.42957000  1.0 -0.5799824831
O  O90  1  0.63239000  0.88059000  0.57045000  1.0 -0.5799824831
O  O91  1  0.63240000  0.88060000  0.42957000  1.0 -0.5799824831
O  O92  1  0.36761000  0.11941000  0.57045000  1.0 -0.5799824831
O  O93  1  0.11940000  0.63241000  0.92957000  1.0 -0.5799824831
O  O94  1  0.88061000  0.36758000  0.07041000  1.0 -0.5799824831
O  O95  1  0.88060000  0.36760000  0.92956000  1.0 -0.5799824831
O  O96  1  0.11939000  0.63242000  0.07041000  1.0 -0.5799824831
O  O97  1  0.05407000  0.69507000  0.49992000  1.0 -0.4735108446
O  O98  1  0.94593000  0.30492000  0.50008000  1.0 -0.4735108446
O  O99  1  0.30377000  0.05378000  0.00000000  1.0 -0.4804923387
O  O100  1  0.69623000  0.94622000  0.00000000  1.0 -0.4804923387
O  O101  1  0.44593000  0.19507000  0.49992000  1.0 -0.4735108446
O  O102  1  0.55407000  0.80493000  0.49992000  1.0 -0.4804923387
O  O103  1  0.19507000  0.55408000  0.00008000  1.0 -0.4735108446
O  O104  1  0.80493000  0.44592000  0.00008000  1.0 -0.4735108446
