# DDEC6 charges by PACMAN v1.1 (https://github.com/mtap-research/PACMAN-charge/)
data_AQERUL_FSR_pacman
_symmetry_space_group_name_H-M   'P 1'
_cell_length_a   25.56900000
_cell_length_b   25.56900000
_cell_length_c   16.70700000
_cell_angle_alpha   90.00000000
_cell_angle_beta   90.00000000
_cell_angle_gamma   90.00000000
_symmetry_Int_Tables_number   1
_chemical_formula_structural   Co4H58C64N6O13
_chemical_formula_sum   'Co32 H464 C512 N48 O104'
_cell_volume   10922.59822503
_cell_formula_units_Z   8
loop_
 _symmetry_equiv_pos_site_id
 _symmetry_equiv_pos_as_xyz
  1  'x, y, z'
loop_
 _atom_site_type_symbol
 _atom_site_label
 _atom_site_symmetry_multiplicity
 _atom_site_fract_x
 _atom_site_fract_y
 _atom_site_fract_z
 _atom_site_occupancy
 _atom_site_charge
Co  Co1  1  0.66047000  0.06729000  0.59964000  1.0 0.837382202
Co  Co2  1  0.33953000  0.93271000  0.59964000  1.0 0.837382202
Co  Co3  1  0.06729000  0.33953000  0.09964000  1.0 0.837382202
Co  Co4  1  0.93271000  0.66047000  0.09964000  1.0 0.837382202
Co  Co5  1  0.16047000  0.43271000  0.40036000  1.0 0.837382202
Co  Co6  1  0.83953000  0.56729000  0.40036000  1.0 0.837382202
Co  Co7  1  0.56729000  0.16047000  0.90036000  1.0 0.837382202
Co  Co8  1  0.43271000  0.83953000  0.90036000  1.0 0.837382202
Co  Co9  1  0.33953000  0.93271000  0.40036000  1.0 0.837382202
Co  Co10  1  0.66047000  0.06729000  0.40036000  1.0 0.837382202
Co  Co11  1  0.93271000  0.66047000  0.90036000  1.0 0.837382202
Co  Co12  1  0.06729000  0.33953000  0.90036000  1.0 0.837382202
Co  Co13  1  0.83953000  0.56729000  0.59964000  1.0 0.837382202
Co  Co14  1  0.16047000  0.43271000  0.59964000  1.0 0.837382202
Co  Co15  1  0.43271000  0.83953000  0.09964000  1.0 0.837382202
Co  Co16  1  0.56729000  0.16047000  0.09964000  1.0 0.837382202
Co  Co17  1  0.56336000  0.00307000  0.68829000  1.0 0.9495827006
Co  Co18  1  0.43664000  0.99693000  0.68829000  1.0 0.9495827006
Co  Co19  1  0.00307000  0.43664000  0.18829000  1.0 0.9495827006
Co  Co20  1  0.99693000  0.56336000  0.18829000  1.0 0.9495827006
Co  Co21  1  0.06336000  0.49693000  0.31171000  1.0 0.9495827006
Co  Co22  1  0.93664000  0.50307000  0.31171000  1.0 0.9495827006
Co  Co23  1  0.50307000  0.06336000  0.81171000  1.0 0.9495827006
Co  Co24  1  0.49693000  0.93664000  0.81171000  1.0 0.9495827006
Co  Co25  1  0.43664000  0.99693000  0.31171000  1.0 0.9495827006
Co  Co26  1  0.56336000  0.00307000  0.31171000  1.0 0.9495827006
Co  Co27  1  0.99693000  0.56336000  0.81171000  1.0 0.9495827006
Co  Co28  1  0.00307000  0.43664000  0.81171000  1.0 0.9495827006
Co  Co29  1  0.93664000  0.50307000  0.68829000  1.0 0.9495827006
Co  Co30  1  0.06336000  0.49693000  0.68829000  1.0 0.9495827006
Co  Co31  1  0.49693000  0.93664000  0.18829000  1.0 0.9495827006
Co  Co32  1  0.50307000  0.06336000  0.18829000  1.0 0.9495827006
H  H1  1  0.54280000  0.98330000  0.50000000  1.0 0.0695213723
H  H2  1  0.45720000  0.01670000  0.50000000  1.0 0.0695213723
H  H3  1  0.98330000  0.45720000  0.00000000  1.0 0.0695213723
H  H4  1  0.01670000  0.54280000  0.00000000  1.0 0.0695213723
H  H5  1  0.04280000  0.51670000  0.50000000  1.0 0.0695213723
H  H6  1  0.95720000  0.48330000  0.50000000  1.0 0.0695213723
H  H7  1  0.48330000  0.04280000  0.00000000  1.0 0.0695213723
H  H8  1  0.51670000  0.95720000  0.00000000  1.0 0.0695213723
H  H9  1  0.66810000  0.89500000  0.80710000  1.0 0.1282189441
H  H10  1  0.33190000  0.10500000  0.80710000  1.0 0.1282189441
H  H11  1  0.89500000  0.33190000  0.30710000  1.0 0.1282189441
H  H12  1  0.10500000  0.66810000  0.30710000  1.0 0.1282189441
H  H13  1  0.16810000  0.60500000  0.19290000  1.0 0.1282189441
H  H14  1  0.83190000  0.39500000  0.19290000  1.0 0.1282189441
H  H15  1  0.39500000  0.16810000  0.69290000  1.0 0.1282189441
H  H16  1  0.60500000  0.83190000  0.69290000  1.0 0.1282189441
H  H17  1  0.33190000  0.10500000  0.19290000  1.0 0.1282189441
H  H18  1  0.66810000  0.89500000  0.19290000  1.0 0.1282189441
H  H19  1  0.10500000  0.66810000  0.69290000  1.0 0.1282189441
H  H20  1  0.89500000  0.33190000  0.69290000  1.0 0.1282189441
H  H21  1  0.83190000  0.39500000  0.80710000  1.0 0.1282189441
H  H22  1  0.16810000  0.60500000  0.80710000  1.0 0.1282189441
H  H23  1  0.60500000  0.83190000  0.30710000  1.0 0.1282189441
H  H24  1  0.39500000  0.16810000  0.30710000  1.0 0.1282189441
H  H25  1  0.83090000  0.87920000  0.69310000  1.0 0.1197772836
H  H26  1  0.16910000  0.12080000  0.69310000  1.0 0.1197772836
H  H27  1  0.87920000  0.16910000  0.19310000  1.0 0.1197772836
H  H28  1  0.12080000  0.83090000  0.19310000  1.0 0.1197772836
H  H29  1  0.33090000  0.62080000  0.30690000  1.0 0.1197772836
H  H30  1  0.66910000  0.37920000  0.30690000  1.0 0.1197772836
H  H31  1  0.37920000  0.33090000  0.80690000  1.0 0.1197772836
H  H32  1  0.62080000  0.66910000  0.80690000  1.0 0.1197772836
H  H33  1  0.16910000  0.12080000  0.30690000  1.0 0.1197772836
H  H34  1  0.83090000  0.87920000  0.30690000  1.0 0.1197772836
H  H35  1  0.12080000  0.83090000  0.80690000  1.0 0.1197772836
H  H36  1  0.87920000  0.16910000  0.80690000  1.0 0.1197772836
H  H37  1  0.66910000  0.37920000  0.69310000  1.0 0.1197772836
H  H38  1  0.33090000  0.62080000  0.69310000  1.0 0.1197772836
H  H39  1  0.62080000  0.66910000  0.19310000  1.0 0.1197772836
H  H40  1  0.37920000  0.33090000  0.19310000  1.0 0.1197772836
H  H41  1  0.55910000  0.20220000  0.37870000  1.0 0.1149643482
H  H42  1  0.44090000  0.79780000  0.37870000  1.0 0.1149643482
H  H43  1  0.20220000  0.44090000  0.87870000  1.0 0.1149643482
H  H44  1  0.79780000  0.55910000  0.87870000  1.0 0.1149643482
H  H45  1  0.05910000  0.29780000  0.62130000  1.0 0.1149643482
H  H46  1  0.94090000  0.70220000  0.62130000  1.0 0.1149643482
H  H47  1  0.70220000  0.05910000  0.12130000  1.0 0.1149643482
H  H48  1  0.29780000  0.94090000  0.12130000  1.0 0.1149643482
H  H49  1  0.44090000  0.79780000  0.62130000  1.0 0.1149643482
H  H50  1  0.55910000  0.20220000  0.62130000  1.0 0.1149643482
H  H51  1  0.79780000  0.55910000  0.12130000  1.0 0.1149643482
H  H52  1  0.20220000  0.44090000  0.12130000  1.0 0.1149643482
H  H53  1  0.94090000  0.70220000  0.37870000  1.0 0.1149643482
H  H54  1  0.05910000  0.29780000  0.37870000  1.0 0.1149643482
H  H55  1  0.29780000  0.94090000  0.87870000  1.0 0.1149643482
H  H56  1  0.70220000  0.05910000  0.87870000  1.0 0.1149643482
H  H57  1  0.77370000  0.94450000  0.65180000  1.0 0.1282189441
H  H58  1  0.22630000  0.05550000  0.65180000  1.0 0.1282189441
H  H59  1  0.94450000  0.22630000  0.15180000  1.0 0.1282189441
H  H60  1  0.05550000  0.77370000  0.15180000  1.0 0.1282189441
H  H61  1  0.27370000  0.55550000  0.34820000  1.0 0.1282189441
H  H62  1  0.72630000  0.44450000  0.34820000  1.0 0.1282189441
H  H63  1  0.44450000  0.27370000  0.84820000  1.0 0.1282189441
H  H64  1  0.55550000  0.72630000  0.84820000  1.0 0.1282189441
H  H65  1  0.22630000  0.05550000  0.34820000  1.0 0.1282189441
H  H66  1  0.77370000  0.94450000  0.34820000  1.0 0.1282189441
H  H67  1  0.05550000  0.77370000  0.84820000  1.0 0.1282189441
H  H68  1  0.94450000  0.22630000  0.84820000  1.0 0.1282189441
H  H69  1  0.72630000  0.44450000  0.65180000  1.0 0.1282189441
H  H70  1  0.27370000  0.55550000  0.65180000  1.0 0.1282189441
H  H71  1  0.55550000  0.72630000  0.15180000  1.0 0.1282189441
H  H72  1  0.44450000  0.27370000  0.15180000  1.0 0.1282189441
H  H73  1  0.61670000  0.02460000  0.85880000  1.0 0.1197772836
H  H74  1  0.38330000  0.97540000  0.85880000  1.0 0.1197772836
H  H75  1  0.02460000  0.38330000  0.35880000  1.0 0.1197772836
H  H76  1  0.97540000  0.61670000  0.35880000  1.0 0.1197772836
H  H77  1  0.11670000  0.47540000  0.14120000  1.0 0.1197772836
H  H78  1  0.88330000  0.52460000  0.14120000  1.0 0.1197772836
H  H79  1  0.52460000  0.11670000  0.64120000  1.0 0.1197772836
H  H80  1  0.47540000  0.88330000  0.64120000  1.0 0.1197772836
H  H81  1  0.38330000  0.97540000  0.14120000  1.0 0.1197772836
H  H82  1  0.61670000  0.02460000  0.14120000  1.0 0.1197772836
H  H83  1  0.97540000  0.61670000  0.64120000  1.0 0.1197772836
H  H84  1  0.02460000  0.38330000  0.64120000  1.0 0.1197772836
H  H85  1  0.88330000  0.52460000  0.85880000  1.0 0.1197772836
H  H86  1  0.11670000  0.47540000  0.85880000  1.0 0.1197772836
H  H87  1  0.47540000  0.88330000  0.35880000  1.0 0.1197772836
H  H88  1  0.52460000  0.11670000  0.35880000  1.0 0.1197772836
H  H89  1  0.61620000  0.96360000  0.85040000  1.0 0.1197772836
H  H90  1  0.38380000  0.03640000  0.85040000  1.0 0.1197772836
H  H91  1  0.96360000  0.38380000  0.35040000  1.0 0.1197772836
H  H92  1  0.03640000  0.61620000  0.35040000  1.0 0.1197772836
H  H93  1  0.11620000  0.53640000  0.14960000  1.0 0.1197772836
H  H94  1  0.88380000  0.46360000  0.14960000  1.0 0.1197772836
H  H95  1  0.46360000  0.11620000  0.64960000  1.0 0.1197772836
H  H96  1  0.53640000  0.88380000  0.64960000  1.0 0.1197772836
H  H97  1  0.38380000  0.03640000  0.14960000  1.0 0.1197772836
H  H98  1  0.61620000  0.96360000  0.14960000  1.0 0.1197772836
H  H99  1  0.03640000  0.61620000  0.64960000  1.0 0.1197772836
H  H100  1  0.96360000  0.38380000  0.64960000  1.0 0.1197772836
H  H101  1  0.88380000  0.46360000  0.85040000  1.0 0.1197772836
H  H102  1  0.11620000  0.53640000  0.85040000  1.0 0.1197772836
H  H103  1  0.53640000  0.88380000  0.35040000  1.0 0.1197772836
H  H104  1  0.46360000  0.11620000  0.35040000  1.0 0.1197772836
H  H105  1  0.58480000  0.99050000  0.91960000  1.0 0.0997052473
H  H106  1  0.41520000  0.00950000  0.91960000  1.0 0.0997052473
H  H107  1  0.99050000  0.41520000  0.41960000  1.0 0.0997052473
H  H108  1  0.00950000  0.58480000  0.41960000  1.0 0.0997052473
H  H109  1  0.08480000  0.50950000  0.08040000  1.0 0.0997052473
H  H110  1  0.91520000  0.49050000  0.08040000  1.0 0.0997052473
H  H111  1  0.49050000  0.08480000  0.58040000  1.0 0.0997052473
H  H112  1  0.50950000  0.91520000  0.58040000  1.0 0.0997052473
H  H113  1  0.41520000  0.00950000  0.08040000  1.0 0.0997052473
H  H114  1  0.58480000  0.99050000  0.08040000  1.0 0.0997052473
H  H115  1  0.00950000  0.58480000  0.58040000  1.0 0.0997052473
H  H116  1  0.99050000  0.41520000  0.58040000  1.0 0.0997052473
H  H117  1  0.91520000  0.49050000  0.91960000  1.0 0.0997052473
H  H118  1  0.08480000  0.50950000  0.91960000  1.0 0.0997052473
H  H119  1  0.50950000  0.91520000  0.41960000  1.0 0.0997052473
H  H120  1  0.49050000  0.08480000  0.41960000  1.0 0.0997052473
H  H121  1  0.63400000  0.13400000  0.75000000  1.0 0.0997052473
H  H122  1  0.36600000  0.86600000  0.75000000  1.0 0.0997052473
H  H123  1  0.13400000  0.36600000  0.25000000  1.0 0.0997052473
H  H124  1  0.86600000  0.63400000  0.25000000  1.0 0.0997052473
H  H125  1  0.36600000  0.86600000  0.25000000  1.0 0.0997052473
H  H126  1  0.63400000  0.13400000  0.25000000  1.0 0.0997052473
H  H127  1  0.86600000  0.63400000  0.75000000  1.0 0.0997052473
H  H128  1  0.13400000  0.36600000  0.75000000  1.0 0.0997052473
H  H129  1  0.49880000  0.26690000  0.36560000  1.0 0.0887186347
H  H130  1  0.50120000  0.73310000  0.36560000  1.0 0.0887186347
H  H131  1  0.26690000  0.50120000  0.86560000  1.0 0.0887186347
H  H132  1  0.73310000  0.49880000  0.86560000  1.0 0.0887186347
H  H133  1  0.99880000  0.23310000  0.63440000  1.0 0.0887186347
H  H134  1  0.00120000  0.76690000  0.63440000  1.0 0.0887186347
H  H135  1  0.76690000  0.99880000  0.13440000  1.0 0.0887186347
H  H136  1  0.23310000  0.00120000  0.13440000  1.0 0.0887186347
H  H137  1  0.50120000  0.73310000  0.63440000  1.0 0.0887186347
H  H138  1  0.49880000  0.26690000  0.63440000  1.0 0.0887186347
H  H139  1  0.73310000  0.49880000  0.13440000  1.0 0.0887186347
H  H140  1  0.26690000  0.50120000  0.13440000  1.0 0.0887186347
H  H141  1  0.00120000  0.76690000  0.36560000  1.0 0.0887186347
H  H142  1  0.99880000  0.23310000  0.36560000  1.0 0.0887186347
H  H143  1  0.23310000  0.00120000  0.86560000  1.0 0.0887186347
H  H144  1  0.76690000  0.99880000  0.86560000  1.0 0.0887186347
H  H145  1  0.81750000  0.69080000  0.88810000  1.0 0.0598234338
H  H146  1  0.18250000  0.30920000  0.88810000  1.0 0.0598234338
H  H147  1  0.69080000  0.18250000  0.38810000  1.0 0.0598234338
H  H148  1  0.30920000  0.81750000  0.38810000  1.0 0.0598234338
H  H149  1  0.31750000  0.80920000  0.11190000  1.0 0.0598234338
H  H150  1  0.68250000  0.19080000  0.11190000  1.0 0.0598234338
H  H151  1  0.19080000  0.31750000  0.61190000  1.0 0.0598234338
H  H152  1  0.80920000  0.68250000  0.61190000  1.0 0.0598234338
H  H153  1  0.18250000  0.30920000  0.11190000  1.0 0.0598234338
H  H154  1  0.81750000  0.69080000  0.11190000  1.0 0.0598234338
H  H155  1  0.30920000  0.81750000  0.61190000  1.0 0.0598234338
H  H156  1  0.69080000  0.18250000  0.61190000  1.0 0.0598234338
H  H157  1  0.68250000  0.19080000  0.88810000  1.0 0.0598234338
H  H158  1  0.31750000  0.80920000  0.88810000  1.0 0.0598234338
H  H159  1  0.80920000  0.68250000  0.38810000  1.0 0.0598234338
H  H160  1  0.19080000  0.31750000  0.38810000  1.0 0.0598234338
H  H161  1  0.76180000  0.75740000  0.84840000  1.0 0.0695213723
H  H162  1  0.23820000  0.24260000  0.84840000  1.0 0.0695213723
H  H163  1  0.75740000  0.23820000  0.34840000  1.0 0.0695213723
H  H164  1  0.24260000  0.76180000  0.34840000  1.0 0.0695213723
H  H165  1  0.26180000  0.74260000  0.15160000  1.0 0.0695213723
H  H166  1  0.73820000  0.25740000  0.15160000  1.0 0.0695213723
H  H167  1  0.25740000  0.26180000  0.65160000  1.0 0.0695213723
H  H168  1  0.74260000  0.73820000  0.65160000  1.0 0.0695213723
H  H169  1  0.23820000  0.24260000  0.15160000  1.0 0.0695213723
H  H170  1  0.76180000  0.75740000  0.15160000  1.0 0.0695213723
H  H171  1  0.24260000  0.76180000  0.65160000  1.0 0.0695213723
H  H172  1  0.75740000  0.23820000  0.65160000  1.0 0.0695213723
H  H173  1  0.73820000  0.25740000  0.84840000  1.0 0.0695213723
H  H174  1  0.26180000  0.74260000  0.84840000  1.0 0.0695213723
H  H175  1  0.74260000  0.73820000  0.34840000  1.0 0.0695213723
H  H176  1  0.25740000  0.26180000  0.34840000  1.0 0.0695213723
H  H177  1  0.88780000  0.83340000  0.75580000  1.0 0.0598234338
H  H178  1  0.11220000  0.16660000  0.75580000  1.0 0.0598234338
H  H179  1  0.83340000  0.11220000  0.25580000  1.0 0.0598234338
H  H180  1  0.16660000  0.88780000  0.25580000  1.0 0.0598234338
H  H181  1  0.38780000  0.66666667  0.24420000  1.0 0.0598234338
H  H182  1  0.61220000  0.33340000  0.24420000  1.0 0.0598234338
H  H183  1  0.33340000  0.38780000  0.74420000  1.0 0.0598234338
H  H184  1  0.66666667  0.61220000  0.74420000  1.0 0.0598234338
H  H185  1  0.11220000  0.16660000  0.24420000  1.0 0.0598234338
H  H186  1  0.88780000  0.83340000  0.24420000  1.0 0.0598234338
H  H187  1  0.16660000  0.88780000  0.74420000  1.0 0.0598234338
H  H188  1  0.83340000  0.11220000  0.74420000  1.0 0.0598234338
H  H189  1  0.61220000  0.33340000  0.75580000  1.0 0.0598234338
H  H190  1  0.38780000  0.66666667  0.75580000  1.0 0.0598234338
H  H191  1  0.66666667  0.61220000  0.25580000  1.0 0.0598234338
H  H192  1  0.33340000  0.38780000  0.25580000  1.0 0.0598234338
H  H193  1  0.93960000  0.76150000  0.79500000  1.0 0.0598234338
H  H194  1  0.06040000  0.23850000  0.79500000  1.0 0.0598234338
H  H195  1  0.76150000  0.06040000  0.29500000  1.0 0.0598234338
H  H196  1  0.23850000  0.93960000  0.29500000  1.0 0.0598234338
H  H197  1  0.43960000  0.73850000  0.20500000  1.0 0.0598234338
H  H198  1  0.56040000  0.26150000  0.20500000  1.0 0.0598234338
H  H199  1  0.26150000  0.43960000  0.70500000  1.0 0.0598234338
H  H200  1  0.73850000  0.56040000  0.70500000  1.0 0.0598234338
H  H201  1  0.06040000  0.23850000  0.20500000  1.0 0.0598234338
H  H202  1  0.93960000  0.76150000  0.20500000  1.0 0.0598234338
H  H203  1  0.23850000  0.93960000  0.70500000  1.0 0.0598234338
H  H204  1  0.76150000  0.06040000  0.70500000  1.0 0.0598234338
H  H205  1  0.56040000  0.26150000  0.79500000  1.0 0.0598234338
H  H206  1  0.43960000  0.73850000  0.79500000  1.0 0.0598234338
H  H207  1  0.73850000  0.56040000  0.29500000  1.0 0.0598234338
H  H208  1  0.26150000  0.43960000  0.29500000  1.0 0.0598234338
H  H209  1  0.72050000  0.82570000  0.84330000  1.0 0.1197772836
H  H210  1  0.27950000  0.17430000  0.84330000  1.0 0.1197772836
H  H211  1  0.82570000  0.27950000  0.34330000  1.0 0.1197772836
H  H212  1  0.17430000  0.72050000  0.34330000  1.0 0.1197772836
H  H213  1  0.22050000  0.67430000  0.15670000  1.0 0.1197772836
H  H214  1  0.77950000  0.32570000  0.15670000  1.0 0.1197772836
H  H215  1  0.32570000  0.22050000  0.65670000  1.0 0.1197772836
H  H216  1  0.67430000  0.77950000  0.65670000  1.0 0.1197772836
H  H217  1  0.27950000  0.17430000  0.15670000  1.0 0.1197772836
H  H218  1  0.72050000  0.82570000  0.15670000  1.0 0.1197772836
H  H219  1  0.17430000  0.72050000  0.65670000  1.0 0.1197772836
H  H220  1  0.82570000  0.27950000  0.65670000  1.0 0.1197772836
H  H221  1  0.77950000  0.32570000  0.84330000  1.0 0.1197772836
H  H222  1  0.22050000  0.67430000  0.84330000  1.0 0.1197772836
H  H223  1  0.67430000  0.77950000  0.34330000  1.0 0.1197772836
H  H224  1  0.32570000  0.22050000  0.34330000  1.0 0.1197772836
H  H225  1  0.49460000  0.35780000  0.38790000  1.0 0.0887186347
H  H226  1  0.50540000  0.64220000  0.38790000  1.0 0.0887186347
H  H227  1  0.35780000  0.50540000  0.88790000  1.0 0.0887186347
H  H228  1  0.64220000  0.49460000  0.88790000  1.0 0.0887186347
H  H229  1  0.99460000  0.14220000  0.61210000  1.0 0.0887186347
H  H230  1  0.00540000  0.85780000  0.61210000  1.0 0.0887186347
H  H231  1  0.85780000  0.99460000  0.11210000  1.0 0.0887186347
H  H232  1  0.14220000  0.00540000  0.11210000  1.0 0.0887186347
H  H233  1  0.50540000  0.64220000  0.61210000  1.0 0.0887186347
H  H234  1  0.49460000  0.35780000  0.61210000  1.0 0.0887186347
H  H235  1  0.64220000  0.49460000  0.11210000  1.0 0.0887186347
H  H236  1  0.35780000  0.50540000  0.11210000  1.0 0.0887186347
H  H237  1  0.00540000  0.85780000  0.38790000  1.0 0.0887186347
H  H238  1  0.99460000  0.14220000  0.38790000  1.0 0.0887186347
H  H239  1  0.14220000  0.00540000  0.88790000  1.0 0.0887186347
H  H240  1  0.85780000  0.99460000  0.88790000  1.0 0.0887186347
H  H241  1  0.43950000  0.43320000  0.38050000  1.0 0.0695213723
H  H242  1  0.56050000  0.56680000  0.38050000  1.0 0.0695213723
H  H243  1  0.43320000  0.56050000  0.88050000  1.0 0.0695213723
H  H244  1  0.56680000  0.43950000  0.88050000  1.0 0.0695213723
H  H245  1  0.93950000  0.06680000  0.61950000  1.0 0.0695213723
H  H246  1  0.06050000  0.93320000  0.61950000  1.0 0.0695213723
H  H247  1  0.93320000  0.93950000  0.11950000  1.0 0.0695213723
H  H248  1  0.06680000  0.06050000  0.11950000  1.0 0.0695213723
H  H249  1  0.56050000  0.56680000  0.61950000  1.0 0.0695213723
H  H250  1  0.43950000  0.43320000  0.61950000  1.0 0.0695213723
H  H251  1  0.56680000  0.43950000  0.11950000  1.0 0.0695213723
H  H252  1  0.43320000  0.56050000  0.11950000  1.0 0.0695213723
H  H253  1  0.06050000  0.93320000  0.38050000  1.0 0.0695213723
H  H254  1  0.93950000  0.06680000  0.38050000  1.0 0.0695213723
H  H255  1  0.06680000  0.06050000  0.88050000  1.0 0.0695213723
H  H256  1  0.93320000  0.93950000  0.88050000  1.0 0.0695213723
H  H257  1  0.35710000  0.38130000  0.57830000  1.0 0.0814592848
H  H258  1  0.64290000  0.61870000  0.57830000  1.0 0.0814592848
H  H259  1  0.38130000  0.64290000  0.07830000  1.0 0.0814592848
H  H260  1  0.61870000  0.35710000  0.07830000  1.0 0.0814592848
H  H261  1  0.85710000  0.11870000  0.42170000  1.0 0.0814592848
H  H262  1  0.14290000  0.88130000  0.42170000  1.0 0.0814592848
H  H263  1  0.88130000  0.85710000  0.92170000  1.0 0.0814592848
H  H264  1  0.11870000  0.14290000  0.92170000  1.0 0.0814592848
H  H265  1  0.64290000  0.61870000  0.42170000  1.0 0.0814592848
H  H266  1  0.35710000  0.38130000  0.42170000  1.0 0.0814592848
H  H267  1  0.61870000  0.35710000  0.92170000  1.0 0.0814592848
H  H268  1  0.38130000  0.64290000  0.92170000  1.0 0.0814592848
H  H269  1  0.14290000  0.88130000  0.57830000  1.0 0.0814592848
H  H270  1  0.85710000  0.11870000  0.57830000  1.0 0.0814592848
H  H271  1  0.11870000  0.14290000  0.07830000  1.0 0.0814592848
H  H272  1  0.88130000  0.85710000  0.07830000  1.0 0.0814592848
H  H273  1  0.41210000  0.30590000  0.58570000  1.0 0.0997052473
H  H274  1  0.58790000  0.69410000  0.58570000  1.0 0.0997052473
H  H275  1  0.30590000  0.58790000  0.08570000  1.0 0.0997052473
H  H276  1  0.69410000  0.41210000  0.08570000  1.0 0.0997052473
H  H277  1  0.91210000  0.19410000  0.41430000  1.0 0.0997052473
H  H278  1  0.08790000  0.80590000  0.41430000  1.0 0.0997052473
H  H279  1  0.80590000  0.91210000  0.91430000  1.0 0.0997052473
H  H280  1  0.19410000  0.08790000  0.91430000  1.0 0.0997052473
H  H281  1  0.58790000  0.69410000  0.41430000  1.0 0.0997052473
H  H282  1  0.41210000  0.30590000  0.41430000  1.0 0.0997052473
H  H283  1  0.69410000  0.41210000  0.91430000  1.0 0.0997052473
H  H284  1  0.30590000  0.58790000  0.91430000  1.0 0.0997052473
H  H285  1  0.08790000  0.80590000  0.58570000  1.0 0.0997052473
H  H286  1  0.91210000  0.19410000  0.58570000  1.0 0.0997052473
H  H287  1  0.19410000  0.08790000  0.08570000  1.0 0.0997052473
H  H288  1  0.80590000  0.91210000  0.08570000  1.0 0.0997052473
H  H289  1  0.83430000  0.71800000  0.94400000  1.0 0.0598234338
H  H290  1  0.16570000  0.28200000  0.94400000  1.0 0.0598234338
H  H291  1  0.71800000  0.16570000  0.44400000  1.0 0.0598234338
H  H292  1  0.28200000  0.83430000  0.44400000  1.0 0.0598234338
H  H293  1  0.33430000  0.78200000  0.05600000  1.0 0.0598234338
H  H294  1  0.66570000  0.21800000  0.05600000  1.0 0.0598234338
H  H295  1  0.21800000  0.33430000  0.55600000  1.0 0.0598234338
H  H296  1  0.78200000  0.66570000  0.55600000  1.0 0.0598234338
H  H297  1  0.16570000  0.28200000  0.05600000  1.0 0.0598234338
H  H298  1  0.83430000  0.71800000  0.05600000  1.0 0.0598234338
H  H299  1  0.28200000  0.83430000  0.55600000  1.0 0.0598234338
H  H300  1  0.71800000  0.16570000  0.55600000  1.0 0.0598234338
H  H301  1  0.66570000  0.21800000  0.94400000  1.0 0.0598234338
H  H302  1  0.33430000  0.78200000  0.94400000  1.0 0.0598234338
H  H303  1  0.78200000  0.66570000  0.44400000  1.0 0.0598234338
H  H304  1  0.21800000  0.33430000  0.44400000  1.0 0.0598234338
H  H305  1  0.77740000  0.78230000  0.90200000  1.0 0.0598234338
H  H306  1  0.22260000  0.21770000  0.90200000  1.0 0.0598234338
H  H307  1  0.78230000  0.22260000  0.40200000  1.0 0.0598234338
H  H308  1  0.21770000  0.77740000  0.40200000  1.0 0.0598234338
H  H309  1  0.27740000  0.71770000  0.09800000  1.0 0.0598234338
H  H310  1  0.72260000  0.28230000  0.09800000  1.0 0.0598234338
H  H311  1  0.28230000  0.27740000  0.59800000  1.0 0.0598234338
H  H312  1  0.71770000  0.72260000  0.59800000  1.0 0.0598234338
H  H313  1  0.22260000  0.21770000  0.09800000  1.0 0.0598234338
H  H314  1  0.77740000  0.78230000  0.09800000  1.0 0.0598234338
H  H315  1  0.21770000  0.77740000  0.59800000  1.0 0.0598234338
H  H316  1  0.78230000  0.22260000  0.59800000  1.0 0.0598234338
H  H317  1  0.72260000  0.28230000  0.90200000  1.0 0.0598234338
H  H318  1  0.27740000  0.71770000  0.90200000  1.0 0.0598234338
H  H319  1  0.71770000  0.72260000  0.40200000  1.0 0.0598234338
H  H320  1  0.28230000  0.27740000  0.40200000  1.0 0.0598234338
H  H321  1  0.86860000  0.80410000  0.70880000  1.0 0.0695213723
H  H322  1  0.13140000  0.19590000  0.70880000  1.0 0.0695213723
H  H323  1  0.80410000  0.13140000  0.20880000  1.0 0.0695213723
H  H324  1  0.19590000  0.86860000  0.20880000  1.0 0.0695213723
H  H325  1  0.36860000  0.69590000  0.29120000  1.0 0.0695213723
H  H326  1  0.63140000  0.30410000  0.29120000  1.0 0.0695213723
H  H327  1  0.30410000  0.36860000  0.79120000  1.0 0.0695213723
H  H328  1  0.69590000  0.63140000  0.79120000  1.0 0.0695213723
H  H329  1  0.13140000  0.19590000  0.29120000  1.0 0.0695213723
H  H330  1  0.86860000  0.80410000  0.29120000  1.0 0.0695213723
H  H331  1  0.19590000  0.86860000  0.79120000  1.0 0.0695213723
H  H332  1  0.80410000  0.13140000  0.79120000  1.0 0.0695213723
H  H333  1  0.63140000  0.30410000  0.70880000  1.0 0.0695213723
H  H334  1  0.36860000  0.69590000  0.70880000  1.0 0.0695213723
H  H335  1  0.69590000  0.63140000  0.20880000  1.0 0.0695213723
H  H336  1  0.30410000  0.36860000  0.20880000  1.0 0.0695213723
H  H337  1  0.92190000  0.73870000  0.75450000  1.0 0.0695213723
H  H338  1  0.07810000  0.26130000  0.75450000  1.0 0.0695213723
H  H339  1  0.73870000  0.07810000  0.25450000  1.0 0.0695213723
H  H340  1  0.26130000  0.92190000  0.25450000  1.0 0.0695213723
H  H341  1  0.42190000  0.76130000  0.24550000  1.0 0.0695213723
H  H342  1  0.57810000  0.23870000  0.24550000  1.0 0.0695213723
H  H343  1  0.23870000  0.42190000  0.74550000  1.0 0.0695213723
H  H344  1  0.76130000  0.57810000  0.74550000  1.0 0.0695213723
H  H345  1  0.07810000  0.26130000  0.24550000  1.0 0.0695213723
H  H346  1  0.92190000  0.73870000  0.24550000  1.0 0.0695213723
H  H347  1  0.26130000  0.92190000  0.74550000  1.0 0.0695213723
H  H348  1  0.73870000  0.07810000  0.74550000  1.0 0.0695213723
H  H349  1  0.57810000  0.23870000  0.75450000  1.0 0.0695213723
H  H350  1  0.42190000  0.76130000  0.75450000  1.0 0.0695213723
H  H351  1  0.76130000  0.57810000  0.25450000  1.0 0.0695213723
H  H352  1  0.23870000  0.42190000  0.25450000  1.0 0.0695213723
H  H353  1  0.48320000  0.35120000  0.63380000  1.0 0.0814592848
H  H354  1  0.51680000  0.64880000  0.63380000  1.0 0.0814592848
H  H355  1  0.35120000  0.51680000  0.13380000  1.0 0.0814592848
H  H356  1  0.64880000  0.48320000  0.13380000  1.0 0.0814592848
H  H357  1  0.98320000  0.14880000  0.36620000  1.0 0.0814592848
H  H358  1  0.01680000  0.85120000  0.36620000  1.0 0.0814592848
H  H359  1  0.85120000  0.98320000  0.86620000  1.0 0.0814592848
H  H360  1  0.14880000  0.01680000  0.86620000  1.0 0.0814592848
H  H361  1  0.51680000  0.64880000  0.36620000  1.0 0.0814592848
H  H362  1  0.48320000  0.35120000  0.36620000  1.0 0.0814592848
H  H363  1  0.64880000  0.48320000  0.86620000  1.0 0.0814592848
H  H364  1  0.35120000  0.51680000  0.86620000  1.0 0.0814592848
H  H365  1  0.01680000  0.85120000  0.63380000  1.0 0.0814592848
H  H366  1  0.98320000  0.14880000  0.63380000  1.0 0.0814592848
H  H367  1  0.14880000  0.01680000  0.13380000  1.0 0.0814592848
H  H368  1  0.85120000  0.98320000  0.13380000  1.0 0.0814592848
H  H369  1  0.42700000  0.42090000  0.64640000  1.0 0.0470928152
H  H370  1  0.57300000  0.57910000  0.64640000  1.0 0.0470928152
H  H371  1  0.42090000  0.57300000  0.14640000  1.0 0.0470928152
H  H372  1  0.57910000  0.42700000  0.14640000  1.0 0.0470928152
H  H373  1  0.92700000  0.07910000  0.35360000  1.0 0.0470928152
H  H374  1  0.07300000  0.92090000  0.35360000  1.0 0.0470928152
H  H375  1  0.92090000  0.92700000  0.85360000  1.0 0.0470928152
H  H376  1  0.07910000  0.07300000  0.85360000  1.0 0.0470928152
H  H377  1  0.57300000  0.57910000  0.35360000  1.0 0.0470928152
H  H378  1  0.42700000  0.42090000  0.35360000  1.0 0.0470928152
H  H379  1  0.57910000  0.42700000  0.85360000  1.0 0.0470928152
H  H380  1  0.42090000  0.57300000  0.85360000  1.0 0.0470928152
H  H381  1  0.07300000  0.92090000  0.64640000  1.0 0.0470928152
H  H382  1  0.92700000  0.07910000  0.64640000  1.0 0.0470928152
H  H383  1  0.07910000  0.07300000  0.14640000  1.0 0.0470928152
H  H384  1  0.92090000  0.92700000  0.14640000  1.0 0.0470928152
H  H385  1  0.35160000  0.37520000  0.45010000  1.0 0.0887186347
H  H386  1  0.64840000  0.62480000  0.45010000  1.0 0.0887186347
H  H387  1  0.37520000  0.64840000  0.95010000  1.0 0.0887186347
H  H388  1  0.62480000  0.35160000  0.95010000  1.0 0.0887186347
H  H389  1  0.85160000  0.12480000  0.54990000  1.0 0.0887186347
H  H390  1  0.14840000  0.87520000  0.54990000  1.0 0.0887186347
H  H391  1  0.87520000  0.85160000  0.04990000  1.0 0.0887186347
H  H392  1  0.12480000  0.14840000  0.04990000  1.0 0.0887186347
H  H393  1  0.64840000  0.62480000  0.54990000  1.0 0.0887186347
H  H394  1  0.35160000  0.37520000  0.54990000  1.0 0.0887186347
H  H395  1  0.62480000  0.35160000  0.04990000  1.0 0.0887186347
H  H396  1  0.37520000  0.64840000  0.04990000  1.0 0.0887186347
H  H397  1  0.14840000  0.87520000  0.45010000  1.0 0.0887186347
H  H398  1  0.85160000  0.12480000  0.45010000  1.0 0.0887186347
H  H399  1  0.12480000  0.14840000  0.95010000  1.0 0.0887186347
H  H400  1  0.87520000  0.85160000  0.95010000  1.0 0.0887186347
H  H401  1  0.40770000  0.30550000  0.43740000  1.0 0.0997052473
H  H402  1  0.59230000  0.69450000  0.43740000  1.0 0.0997052473
H  H403  1  0.30550000  0.59230000  0.93740000  1.0 0.0997052473
H  H404  1  0.69450000  0.40770000  0.93740000  1.0 0.0997052473
H  H405  1  0.90770000  0.19450000  0.56260000  1.0 0.0997052473
H  H406  1  0.09230000  0.80550000  0.56260000  1.0 0.0997052473
H  H407  1  0.80550000  0.90770000  0.06260000  1.0 0.0997052473
H  H408  1  0.19450000  0.09230000  0.06260000  1.0 0.0997052473
H  H409  1  0.59230000  0.69450000  0.56260000  1.0 0.0997052473
H  H410  1  0.40770000  0.30550000  0.56260000  1.0 0.0997052473
H  H411  1  0.69450000  0.40770000  0.06260000  1.0 0.0997052473
H  H412  1  0.30550000  0.59230000  0.06260000  1.0 0.0997052473
H  H413  1  0.09230000  0.80550000  0.43740000  1.0 0.0997052473
H  H414  1  0.90770000  0.19450000  0.43740000  1.0 0.0997052473
H  H415  1  0.19450000  0.09230000  0.93740000  1.0 0.0997052473
H  H416  1  0.80550000  0.90770000  0.93740000  1.0 0.0997052473
H  H417  1  0.76370000  0.03560000  0.44490000  1.0 0.0470928152
H  H418  1  0.23630000  0.96440000  0.44490000  1.0 0.0470928152
H  H419  1  0.03560000  0.23630000  0.94490000  1.0 0.0470928152
H  H420  1  0.96440000  0.76370000  0.94490000  1.0 0.0470928152
H  H421  1  0.26370000  0.46440000  0.55510000  1.0 0.0470928152
H  H422  1  0.73630000  0.53560000  0.55510000  1.0 0.0470928152
H  H423  1  0.53560000  0.26370000  0.05510000  1.0 0.0470928152
H  H424  1  0.46440000  0.73630000  0.05510000  1.0 0.0470928152
H  H425  1  0.23630000  0.96440000  0.55510000  1.0 0.0470928152
H  H426  1  0.76370000  0.03560000  0.55510000  1.0 0.0470928152
H  H427  1  0.96440000  0.76370000  0.05510000  1.0 0.0470928152
H  H428  1  0.03560000  0.23630000  0.05510000  1.0 0.0470928152
H  H429  1  0.73630000  0.53560000  0.44490000  1.0 0.0470928152
H  H430  1  0.26370000  0.46440000  0.44490000  1.0 0.0470928152
H  H431  1  0.46440000  0.73630000  0.94490000  1.0 0.0470928152
H  H432  1  0.53560000  0.26370000  0.94490000  1.0 0.0470928152
H  H433  1  0.75810000  0.00990000  0.53180000  1.0 0.0598234338
H  H434  1  0.24190000  0.99010000  0.53180000  1.0 0.0598234338
H  H435  1  0.00990000  0.24190000  0.03180000  1.0 0.0598234338
H  H436  1  0.99010000  0.75810000  0.03180000  1.0 0.0598234338
H  H437  1  0.25810000  0.49010000  0.46820000  1.0 0.0598234338
H  H438  1  0.74190000  0.50990000  0.46820000  1.0 0.0598234338
H  H439  1  0.50990000  0.25810000  0.96820000  1.0 0.0598234338
H  H440  1  0.49010000  0.74190000  0.96820000  1.0 0.0598234338
H  H441  1  0.24190000  0.99010000  0.46820000  1.0 0.0598234338
H  H442  1  0.75810000  0.00990000  0.46820000  1.0 0.0598234338
H  H443  1  0.99010000  0.75810000  0.96820000  1.0 0.0598234338
H  H444  1  0.00990000  0.24190000  0.96820000  1.0 0.0598234338
H  H445  1  0.74190000  0.50990000  0.53180000  1.0 0.0598234338
H  H446  1  0.25810000  0.49010000  0.53180000  1.0 0.0598234338
H  H447  1  0.49010000  0.74190000  0.03180000  1.0 0.0598234338
H  H448  1  0.50990000  0.25810000  0.03180000  1.0 0.0598234338
H  H449  1  0.77130000  0.07080000  0.52330000  1.0 0.0276397329
H  H450  1  0.22870000  0.92920000  0.52330000  1.0 0.0276397329
H  H451  1  0.07080000  0.22870000  0.02330000  1.0 0.0276397329
H  H452  1  0.92920000  0.77130000  0.02330000  1.0 0.0276397329
H  H453  1  0.27130000  0.42920000  0.47670000  1.0 0.0276397329
H  H454  1  0.72870000  0.57080000  0.47670000  1.0 0.0276397329
H  H455  1  0.57080000  0.27130000  0.97670000  1.0 0.0276397329
H  H456  1  0.42920000  0.72870000  0.97670000  1.0 0.0276397329
H  H457  1  0.22870000  0.92920000  0.47670000  1.0 0.0276397329
H  H458  1  0.77130000  0.07080000  0.47670000  1.0 0.0276397329
H  H459  1  0.92920000  0.77130000  0.97670000  1.0 0.0276397329
H  H460  1  0.07080000  0.22870000  0.97670000  1.0 0.0276397329
H  H461  1  0.72870000  0.57080000  0.52330000  1.0 0.0276397329
H  H462  1  0.27130000  0.42920000  0.52330000  1.0 0.0276397329
H  H463  1  0.42920000  0.72870000  0.02330000  1.0 0.0276397329
H  H464  1  0.57080000  0.27130000  0.02330000  1.0 0.0276397329
C  C1  1  0.57221000  0.00603000  0.50000000  1.0 0.4830951811
C  C2  1  0.42779000  0.99397000  0.50000000  1.0 0.4830951811
C  C3  1  0.00603000  0.42779000  0.00000000  1.0 0.4830951811
C  C4  1  0.99397000  0.57221000  0.00000000  1.0 0.4830951811
C  C5  1  0.07221000  0.49397000  0.50000000  1.0 0.4830951811
C  C6  1  0.92779000  0.50603000  0.50000000  1.0 0.4830951811
C  C7  1  0.50603000  0.07221000  0.00000000  1.0 0.4830951811
C  C8  1  0.49397000  0.92779000  0.00000000  1.0 0.4830951811
C  C9  1  0.78199000  0.84503000  0.77200000  1.0 -0.0539247677
C  C10  1  0.21801000  0.15497000  0.77200000  1.0 -0.0539247677
C  C11  1  0.84503000  0.21801000  0.27200000  1.0 -0.0539247677
C  C12  1  0.15497000  0.78199000  0.27200000  1.0 -0.0539247677
C  C13  1  0.28199000  0.65497000  0.22800000  1.0 -0.0539247677
C  C14  1  0.71801000  0.34503000  0.22800000  1.0 -0.0539247677
C  C15  1  0.34503000  0.28199000  0.72800000  1.0 -0.0539247677
C  C16  1  0.65497000  0.71801000  0.72800000  1.0 -0.0539247677
C  C17  1  0.21801000  0.15497000  0.22800000  1.0 -0.0539247677
C  C18  1  0.78199000  0.84503000  0.22800000  1.0 -0.0539247677
C  C19  1  0.15497000  0.78199000  0.72800000  1.0 -0.0539247677
C  C20  1  0.84503000  0.21801000  0.72800000  1.0 -0.0539247677
C  C21  1  0.71801000  0.34503000  0.77200000  1.0 -0.0539247677
C  C22  1  0.28199000  0.65497000  0.77200000  1.0 -0.0539247677
C  C23  1  0.65497000  0.71801000  0.27200000  1.0 -0.0539247677
C  C24  1  0.34503000  0.28199000  0.27200000  1.0 -0.0539247677
C  C25  1  0.69780000  0.88770000  0.77700000  1.0 -0.0768051875
C  C26  1  0.30220000  0.11230000  0.77700000  1.0 -0.0768051875
C  C27  1  0.88770000  0.30220000  0.27700000  1.0 -0.0768051875
C  C28  1  0.11230000  0.69780000  0.27700000  1.0 -0.0768051875
C  C29  1  0.19780000  0.61230000  0.22300000  1.0 -0.0768051875
C  C30  1  0.80220000  0.38770000  0.22300000  1.0 -0.0768051875
C  C31  1  0.38770000  0.19780000  0.72300000  1.0 -0.0768051875
C  C32  1  0.61230000  0.80220000  0.72300000  1.0 -0.0768051875
C  C33  1  0.30220000  0.11230000  0.22300000  1.0 -0.0768051875
C  C34  1  0.69780000  0.88770000  0.22300000  1.0 -0.0768051875
C  C35  1  0.11230000  0.69780000  0.72300000  1.0 -0.0768051875
C  C36  1  0.88770000  0.30220000  0.72300000  1.0 -0.0768051875
C  C37  1  0.80220000  0.38770000  0.77700000  1.0 -0.0768051875
C  C38  1  0.19780000  0.61230000  0.77700000  1.0 -0.0768051875
C  C39  1  0.61230000  0.80220000  0.27700000  1.0 -0.0768051875
C  C40  1  0.38770000  0.19780000  0.27700000  1.0 -0.0768051875
C  C41  1  0.71241000  0.92295000  0.71900000  1.0 0.0100829085
C  C42  1  0.28759000  0.07705000  0.71900000  1.0 0.0100829085
C  C43  1  0.92295000  0.28759000  0.21900000  1.0 0.0100829085
C  C44  1  0.07705000  0.71241000  0.21900000  1.0 0.0100829085
C  C45  1  0.21241000  0.57705000  0.28100000  1.0 0.0100829085
C  C46  1  0.78759000  0.42295000  0.28100000  1.0 0.0100829085
C  C47  1  0.42295000  0.21241000  0.78100000  1.0 0.0100829085
C  C48  1  0.57705000  0.78759000  0.78100000  1.0 0.0100829085
C  C49  1  0.28759000  0.07705000  0.28100000  1.0 0.0100829085
C  C50  1  0.71241000  0.92295000  0.28100000  1.0 0.0100829085
C  C51  1  0.07705000  0.71241000  0.78100000  1.0 0.0100829085
C  C52  1  0.92295000  0.28759000  0.78100000  1.0 0.0100829085
C  C53  1  0.78759000  0.42295000  0.71900000  1.0 0.0100829085
C  C54  1  0.21241000  0.57705000  0.71900000  1.0 0.0100829085
C  C55  1  0.57705000  0.78759000  0.21900000  1.0 0.0100829085
C  C56  1  0.42295000  0.21241000  0.21900000  1.0 0.0100829085
C  C57  1  0.60370000  0.15078000  0.50000000  1.0 0.5726405354
C  C58  1  0.39630000  0.84922000  0.50000000  1.0 0.5726405354
C  C59  1  0.15078000  0.39630000  0.00000000  1.0 0.5726405354
C  C60  1  0.84922000  0.60370000  0.00000000  1.0 0.5726405354
C  C61  1  0.10370000  0.34922000  0.50000000  1.0 0.5726405354
C  C62  1  0.89630000  0.65078000  0.50000000  1.0 0.5726405354
C  C63  1  0.65078000  0.10370000  0.00000000  1.0 0.5726405354
C  C64  1  0.34922000  0.89630000  0.00000000  1.0 0.5726405354
C  C65  1  0.79671000  0.88100000  0.71530000  1.0 -0.2266509515
C  C66  1  0.20329000  0.11900000  0.71530000  1.0 -0.2266509515
C  C67  1  0.88100000  0.20329000  0.21530000  1.0 -0.2266509515
C  C68  1  0.11900000  0.79671000  0.21530000  1.0 -0.2266509515
C  C69  1  0.29671000  0.61900000  0.28470000  1.0 -0.2266509515
C  C70  1  0.70329000  0.38100000  0.28470000  1.0 -0.2266509515
C  C71  1  0.38100000  0.29671000  0.78470000  1.0 -0.2266509515
C  C72  1  0.61900000  0.70329000  0.78470000  1.0 -0.2266509515
C  C73  1  0.20329000  0.11900000  0.28470000  1.0 -0.2266509515
C  C74  1  0.79671000  0.88100000  0.28470000  1.0 -0.2266509515
C  C75  1  0.11900000  0.79671000  0.78470000  1.0 -0.2266509515
C  C76  1  0.88100000  0.20329000  0.78470000  1.0 -0.2266509515
C  C77  1  0.70329000  0.38100000  0.71530000  1.0 -0.2266509515
C  C78  1  0.29671000  0.61900000  0.71530000  1.0 -0.2266509515
C  C79  1  0.61900000  0.70329000  0.21530000  1.0 -0.2266509515
C  C80  1  0.38100000  0.29671000  0.21530000  1.0 -0.2266509515
C  C81  1  0.81733000  0.80202000  0.79830000  1.0 0.0203727397
C  C82  1  0.18267000  0.19798000  0.79830000  1.0 0.0203727397
C  C83  1  0.80202000  0.18267000  0.29830000  1.0 0.0203727397
C  C84  1  0.19798000  0.81733000  0.29830000  1.0 0.0203727397
C  C85  1  0.31733000  0.69798000  0.20170000  1.0 0.0203727397
C  C86  1  0.68267000  0.30202000  0.20170000  1.0 0.0203727397
C  C87  1  0.30202000  0.31733000  0.70170000  1.0 0.0203727397
C  C88  1  0.69798000  0.68267000  0.70170000  1.0 0.0203727397
C  C89  1  0.18267000  0.19798000  0.20170000  1.0 0.0203727397
C  C90  1  0.81733000  0.80202000  0.20170000  1.0 0.0203727397
C  C91  1  0.19798000  0.81733000  0.70170000  1.0 0.0203727397
C  C92  1  0.80202000  0.18267000  0.70170000  1.0 0.0203727397
C  C93  1  0.68267000  0.30202000  0.79830000  1.0 0.0203727397
C  C94  1  0.31733000  0.69798000  0.79830000  1.0 0.0203727397
C  C95  1  0.69798000  0.68267000  0.29830000  1.0 0.0203727397
C  C96  1  0.30202000  0.31733000  0.29830000  1.0 0.0203727397
C  C97  1  0.54707000  0.21611000  0.42810000  1.0 -0.1434347844
C  C98  1  0.45293000  0.78389000  0.42810000  1.0 -0.1434347844
C  C99  1  0.21611000  0.45293000  0.92810000  1.0 -0.1434347844
C  C100  1  0.78389000  0.54707000  0.92810000  1.0 -0.1434347844
C  C101  1  0.04707000  0.28389000  0.57190000  1.0 -0.1434347844
C  C102  1  0.95293000  0.71611000  0.57190000  1.0 -0.1434347844
C  C103  1  0.71611000  0.04707000  0.07190000  1.0 -0.1434347844
C  C104  1  0.28389000  0.95293000  0.07190000  1.0 -0.1434347844
C  C105  1  0.45293000  0.78389000  0.57190000  1.0 -0.1434347844
C  C106  1  0.54707000  0.21611000  0.57190000  1.0 -0.1434347844
C  C107  1  0.78389000  0.54707000  0.07190000  1.0 -0.1434347844
C  C108  1  0.21611000  0.45293000  0.07190000  1.0 -0.1434347844
C  C109  1  0.95293000  0.71611000  0.42810000  1.0 -0.1434347844
C  C110  1  0.04707000  0.28389000  0.42810000  1.0 -0.1434347844
C  C111  1  0.28389000  0.95293000  0.92810000  1.0 -0.1434347844
C  C112  1  0.71611000  0.04707000  0.92810000  1.0 -0.1434347844
C  C113  1  0.75190000  0.04150000  0.50000000  1.0 -0.3053352824
C  C114  1  0.24810000  0.95850000  0.50000000  1.0 -0.3053352824
C  C115  1  0.04150000  0.24810000  0.00000000  1.0 -0.3053352824
C  C116  1  0.95850000  0.75190000  0.00000000  1.0 -0.3053352824
C  C117  1  0.25190000  0.45850000  0.50000000  1.0 -0.3053352824
C  C118  1  0.74810000  0.54150000  0.50000000  1.0 -0.3053352824
C  C119  1  0.54150000  0.25190000  0.00000000  1.0 -0.3053352824
C  C120  1  0.45850000  0.74810000  0.00000000  1.0 -0.3053352824
C  C121  1  0.76247000  0.92020000  0.68950000  1.0 -0.1109525347
C  C122  1  0.23753000  0.07980000  0.68950000  1.0 -0.1109525347
C  C123  1  0.92020000  0.23753000  0.18950000  1.0 -0.1109525347
C  C124  1  0.07980000  0.76247000  0.18950000  1.0 -0.1109525347
C  C125  1  0.26247000  0.57980000  0.31050000  1.0 -0.1109525347
C  C126  1  0.73753000  0.42020000  0.31050000  1.0 -0.1109525347
C  C127  1  0.42020000  0.26247000  0.81050000  1.0 -0.1109525347
C  C128  1  0.57980000  0.73753000  0.81050000  1.0 -0.1109525347
C  C129  1  0.23753000  0.07980000  0.31050000  1.0 -0.1109525347
C  C130  1  0.76247000  0.92020000  0.31050000  1.0 -0.1109525347
C  C131  1  0.07980000  0.76247000  0.81050000  1.0 -0.1109525347
C  C132  1  0.92020000  0.23753000  0.81050000  1.0 -0.1109525347
C  C133  1  0.73753000  0.42020000  0.68950000  1.0 -0.1109525347
C  C134  1  0.26247000  0.57980000  0.68950000  1.0 -0.1109525347
C  C135  1  0.57980000  0.73753000  0.18950000  1.0 -0.1109525347
C  C136  1  0.42020000  0.26247000  0.18950000  1.0 -0.1109525347
C  C137  1  0.67462000  0.96366000  0.68822000  1.0 0.5824674116
C  C138  1  0.32538000  0.03634000  0.68822000  1.0 0.5824674116
C  C139  1  0.96366000  0.32538000  0.18822000  1.0 0.5824674116
C  C140  1  0.03634000  0.67462000  0.18822000  1.0 0.5824674116
C  C141  1  0.17462000  0.53634000  0.31178000  1.0 0.5824674116
C  C142  1  0.82538000  0.46366000  0.31178000  1.0 0.5824674116
C  C143  1  0.46366000  0.17462000  0.81178000  1.0 0.5824674116
C  C144  1  0.53634000  0.82538000  0.81178000  1.0 0.5824674116
C  C145  1  0.32538000  0.03634000  0.31178000  1.0 0.5824674116
C  C146  1  0.67462000  0.96366000  0.31178000  1.0 0.5824674116
C  C147  1  0.03634000  0.67462000  0.81178000  1.0 0.5824674116
C  C148  1  0.96366000  0.32538000  0.81178000  1.0 0.5824674116
C  C149  1  0.82538000  0.46366000  0.68822000  1.0 0.5824674116
C  C150  1  0.17462000  0.53634000  0.68822000  1.0 0.5824674116
C  C151  1  0.53634000  0.82538000  0.18822000  1.0 0.5824674116
C  C152  1  0.46366000  0.17462000  0.18822000  1.0 0.5824674116
C  C153  1  0.59582000  0.99365000  0.86490000  1.0 -0.207232127
C  C154  1  0.40418000  0.00635000  0.86490000  1.0 -0.207232127
C  C155  1  0.99365000  0.40418000  0.36490000  1.0 -0.207232127
C  C156  1  0.00635000  0.59582000  0.36490000  1.0 -0.207232127
C  C157  1  0.09582000  0.50635000  0.13510000  1.0 -0.207232127
C  C158  1  0.90418000  0.49365000  0.13510000  1.0 -0.207232127
C  C159  1  0.49365000  0.09582000  0.63510000  1.0 -0.207232127
C  C160  1  0.50635000  0.90418000  0.63510000  1.0 -0.207232127
C  C161  1  0.40418000  0.00635000  0.13510000  1.0 -0.207232127
C  C162  1  0.59582000  0.99365000  0.13510000  1.0 -0.207232127
C  C163  1  0.00635000  0.59582000  0.63510000  1.0 -0.207232127
C  C164  1  0.99365000  0.40418000  0.63510000  1.0 -0.207232127
C  C165  1  0.90418000  0.49365000  0.86490000  1.0 -0.207232127
C  C166  1  0.09582000  0.50635000  0.86490000  1.0 -0.207232127
C  C167  1  0.50635000  0.90418000  0.36490000  1.0 -0.207232127
C  C168  1  0.49365000  0.09582000  0.36490000  1.0 -0.207232127
C  C169  1  0.60736000  0.10736000  0.75000000  1.0 0.3884137394
C  C170  1  0.39264000  0.89264000  0.75000000  1.0 0.3884137394
C  C171  1  0.10736000  0.39264000  0.25000000  1.0 0.3884137394
C  C172  1  0.89264000  0.60736000  0.25000000  1.0 0.3884137394
C  C173  1  0.39264000  0.89264000  0.25000000  1.0 0.3884137394
C  C174  1  0.60736000  0.10736000  0.25000000  1.0 0.3884137394
C  C175  1  0.89264000  0.60736000  0.75000000  1.0 0.3884137394
C  C176  1  0.10736000  0.39264000  0.75000000  1.0 0.3884137394
C  C177  1  0.51090000  0.25735000  0.42840000  1.0 -0.2737219604
C  C178  1  0.48910000  0.74265000  0.42840000  1.0 -0.2737219604
C  C179  1  0.25735000  0.48910000  0.92840000  1.0 -0.2737219604
C  C180  1  0.74265000  0.51090000  0.92840000  1.0 -0.2737219604
C  C181  1  0.01090000  0.24265000  0.57160000  1.0 -0.2737219604
C  C182  1  0.98910000  0.75735000  0.57160000  1.0 -0.2737219604
C  C183  1  0.75735000  0.01090000  0.07160000  1.0 -0.2737219604
C  C184  1  0.24265000  0.98910000  0.07160000  1.0 -0.2737219604
C  C185  1  0.48910000  0.74265000  0.57160000  1.0 -0.2737219604
C  C186  1  0.51090000  0.25735000  0.57160000  1.0 -0.2737219604
C  C187  1  0.74265000  0.51090000  0.07160000  1.0 -0.2737219604
C  C188  1  0.25735000  0.48910000  0.07160000  1.0 -0.2737219604
C  C189  1  0.98910000  0.75735000  0.42840000  1.0 -0.2737219604
C  C190  1  0.01090000  0.24265000  0.42840000  1.0 -0.2737219604
C  C191  1  0.24265000  0.98910000  0.92840000  1.0 -0.2737219604
C  C192  1  0.75735000  0.01090000  0.92840000  1.0 -0.2737219604
C  C193  1  0.49300000  0.27860000  0.50000000  1.0 0.0695213723
C  C194  1  0.50700000  0.72140000  0.50000000  1.0 0.0695213723
C  C195  1  0.27860000  0.50700000  0.00000000  1.0 0.0695213723
C  C196  1  0.72140000  0.49300000  0.00000000  1.0 0.0695213723
C  C197  1  0.99300000  0.22140000  0.50000000  1.0 0.0695213723
C  C198  1  0.00700000  0.77860000  0.50000000  1.0 0.0695213723
C  C199  1  0.77860000  0.99300000  0.00000000  1.0 0.0695213723
C  C200  1  0.22140000  0.00700000  0.00000000  1.0 0.0695213723
C  C201  1  0.56540000  0.19544000  0.50000000  1.0 0.0014984064
C  C202  1  0.43460000  0.80456000  0.50000000  1.0 0.0014984064
C  C203  1  0.19544000  0.43460000  0.00000000  1.0 0.0014984064
C  C204  1  0.80456000  0.56540000  0.00000000  1.0 0.0014984064
C  C205  1  0.06540000  0.30456000  0.50000000  1.0 0.0014984064
C  C206  1  0.93460000  0.69544000  0.50000000  1.0 0.0014984064
C  C207  1  0.69544000  0.06540000  0.00000000  1.0 0.0014984064
C  C208  1  0.30456000  0.93460000  0.00000000  1.0 0.0014984064
C  C209  1  0.83220000  0.72020000  0.86160000  1.0 0.0380401025
C  C210  1  0.16780000  0.27980000  0.86160000  1.0 0.0380401025
C  C211  1  0.72020000  0.16780000  0.36160000  1.0 0.0380401025
C  C212  1  0.27980000  0.83220000  0.36160000  1.0 0.0380401025
C  C213  1  0.33220000  0.77980000  0.13840000  1.0 0.0380401025
C  C214  1  0.66780000  0.22020000  0.13840000  1.0 0.0380401025
C  C215  1  0.22020000  0.33220000  0.63840000  1.0 0.0380401025
C  C216  1  0.77980000  0.66780000  0.63840000  1.0 0.0380401025
C  C217  1  0.16780000  0.27980000  0.13840000  1.0 0.0380401025
C  C218  1  0.83220000  0.72020000  0.13840000  1.0 0.0380401025
C  C219  1  0.27980000  0.83220000  0.63840000  1.0 0.0380401025
C  C220  1  0.72020000  0.16780000  0.63840000  1.0 0.0380401025
C  C221  1  0.66780000  0.22020000  0.86160000  1.0 0.0380401025
C  C222  1  0.33220000  0.77980000  0.86160000  1.0 0.0380401025
C  C223  1  0.77980000  0.66780000  0.36160000  1.0 0.0380401025
C  C224  1  0.22020000  0.33220000  0.36160000  1.0 0.0380401025
C  C225  1  0.79820000  0.76000000  0.83740000  1.0 -0.05747925
C  C226  1  0.20180000  0.24000000  0.83740000  1.0 -0.05747925
C  C227  1  0.76000000  0.20180000  0.33740000  1.0 -0.0539247677
C  C228  1  0.24000000  0.79820000  0.33740000  1.0 -0.05747925
C  C229  1  0.29820000  0.74000000  0.16260000  1.0 -0.05747925
C  C230  1  0.70180000  0.26000000  0.16260000  1.0 -0.0539247677
C  C231  1  0.26000000  0.29820000  0.66260000  1.0 -0.05747925
C  C232  1  0.74000000  0.70180000  0.66260000  1.0 -0.05747925
C  C233  1  0.20180000  0.24000000  0.16260000  1.0 -0.05747925
C  C234  1  0.79820000  0.76000000  0.16260000  1.0 -0.05747925
C  C235  1  0.24000000  0.79820000  0.66260000  1.0 -0.05747925
C  C236  1  0.76000000  0.20180000  0.66260000  1.0 -0.05747925
C  C237  1  0.70180000  0.26000000  0.83740000  1.0 -0.05747925
C  C238  1  0.29820000  0.74000000  0.83740000  1.0 -0.05747925
C  C239  1  0.74000000  0.70180000  0.33740000  1.0 -0.05747925
C  C240  1  0.26000000  0.29820000  0.33740000  1.0 -0.05747925
C  C241  1  0.87260000  0.80430000  0.78240000  1.0 -0.0768051875
C  C242  1  0.12740000  0.19570000  0.78240000  1.0 -0.0768051875
C  C243  1  0.80430000  0.12740000  0.28240000  1.0 -0.0768051875
C  C244  1  0.19570000  0.87260000  0.28240000  1.0 -0.0768051875
C  C245  1  0.37260000  0.69570000  0.21760000  1.0 -0.0768051875
C  C246  1  0.62740000  0.30430000  0.21760000  1.0 -0.0768051875
C  C247  1  0.30430000  0.37260000  0.71760000  1.0 -0.0768051875
C  C248  1  0.69570000  0.62740000  0.71760000  1.0 -0.0768051875
C  C249  1  0.12740000  0.19570000  0.21760000  1.0 -0.0768051875
C  C250  1  0.87260000  0.80430000  0.21760000  1.0 -0.0768051875
C  C251  1  0.19570000  0.87260000  0.71760000  1.0 -0.0768051875
C  C252  1  0.80430000  0.12740000  0.71760000  1.0 -0.0660788526
C  C253  1  0.62740000  0.30430000  0.78240000  1.0 -0.0768051875
C  C254  1  0.37260000  0.69570000  0.78240000  1.0 -0.0768051875
C  C255  1  0.69570000  0.62740000  0.28240000  1.0 -0.0768051875
C  C256  1  0.30430000  0.37260000  0.28240000  1.0 -0.0768051875
C  C257  1  0.90340000  0.76160000  0.80790000  1.0 0.0203727397
C  C258  1  0.09660000  0.23840000  0.80790000  1.0 0.0203727397
C  C259  1  0.76160000  0.09660000  0.30790000  1.0 0.0203727397
C  C260  1  0.23840000  0.90340000  0.30790000  1.0 0.0203727397
C  C261  1  0.40340000  0.73840000  0.19210000  1.0 0.0203727397
C  C262  1  0.59660000  0.26160000  0.19210000  1.0 0.0203727397
C  C263  1  0.26160000  0.40340000  0.69210000  1.0 0.0203727397
C  C264  1  0.73840000  0.59660000  0.69210000  1.0 0.0203727397
C  C265  1  0.09660000  0.23840000  0.19210000  1.0 0.0203727397
C  C266  1  0.90340000  0.76160000  0.19210000  1.0 0.0203727397
C  C267  1  0.23840000  0.90340000  0.69210000  1.0 0.0203727397
C  C268  1  0.76160000  0.09660000  0.69210000  1.0 0.0203727397
C  C269  1  0.59660000  0.26160000  0.80790000  1.0 0.0203727397
C  C270  1  0.40340000  0.73840000  0.80790000  1.0 0.0203727397
C  C271  1  0.73840000  0.59660000  0.30790000  1.0 0.0203727397
C  C272  1  0.26160000  0.40340000  0.30790000  1.0 0.0203727397
C  C273  1  0.73170000  0.84950000  0.80310000  1.0 -0.2365236441
C  C274  1  0.26830000  0.15050000  0.80310000  1.0 -0.2365236441
C  C275  1  0.84950000  0.26830000  0.30310000  1.0 -0.2365236441
C  C276  1  0.15050000  0.73170000  0.30310000  1.0 -0.2365236441
C  C277  1  0.23170000  0.65050000  0.19690000  1.0 -0.2365236441
C  C278  1  0.76830000  0.34950000  0.19690000  1.0 -0.2365236441
C  C279  1  0.34950000  0.23170000  0.69690000  1.0 -0.2365236441
C  C280  1  0.65050000  0.76830000  0.69690000  1.0 -0.2365236441
C  C281  1  0.26830000  0.15050000  0.19690000  1.0 -0.2365236441
C  C282  1  0.73170000  0.84950000  0.19690000  1.0 -0.2365236441
C  C283  1  0.15050000  0.73170000  0.69690000  1.0 -0.2365236441
C  C284  1  0.84950000  0.26830000  0.69690000  1.0 -0.2365236441
C  C285  1  0.76830000  0.34950000  0.80310000  1.0 -0.2365236441
C  C286  1  0.23170000  0.65050000  0.80310000  1.0 -0.2365236441
C  C287  1  0.65050000  0.76830000  0.30310000  1.0 -0.2365236441
C  C288  1  0.34950000  0.23170000  0.30310000  1.0 -0.2365236441
C  C289  1  0.45890000  0.32410000  0.48760000  1.0 0.0203727397
C  C290  1  0.54110000  0.67590000  0.48760000  1.0 0.0203727397
C  C291  1  0.32410000  0.54110000  0.98760000  1.0 0.0203727397
C  C292  1  0.67590000  0.45890000  0.98760000  1.0 0.0203727397
C  C293  1  0.95890000  0.17590000  0.51240000  1.0 0.0203727397
C  C294  1  0.04110000  0.82410000  0.51240000  1.0 0.0203727397
C  C295  1  0.82410000  0.95890000  0.01240000  1.0 0.0203727397
C  C296  1  0.17590000  0.04110000  0.01240000  1.0 0.0203727397
C  C297  1  0.54110000  0.67590000  0.51240000  1.0 0.0203727397
C  C298  1  0.45890000  0.32410000  0.51240000  1.0 0.0203727397
C  C299  1  0.67590000  0.45890000  0.01240000  1.0 0.0203727397
C  C300  1  0.32410000  0.54110000  0.01240000  1.0 0.0203727397
C  C301  1  0.04110000  0.82410000  0.48760000  1.0 0.0203727397
C  C302  1  0.95890000  0.17590000  0.48760000  1.0 0.0203727397
C  C303  1  0.17590000  0.04110000  0.98760000  1.0 0.0203727397
C  C304  1  0.82410000  0.95890000  0.98760000  1.0 0.0203727397
C  C305  1  0.46720000  0.36250000  0.42580000  1.0 -0.0660788526
C  C306  1  0.53280000  0.63750000  0.42580000  1.0 -0.0660788526
C  C307  1  0.36250000  0.53280000  0.92580000  1.0 -0.0660788526
C  C308  1  0.63750000  0.46720000  0.92580000  1.0 -0.05747925
C  C309  1  0.96720000  0.13750000  0.57420000  1.0 -0.05747925
C  C310  1  0.03280000  0.86250000  0.57420000  1.0 -0.0660788526
C  C311  1  0.86250000  0.96720000  0.07420000  1.0 -0.05747925
C  C312  1  0.13750000  0.03280000  0.07420000  1.0 -0.0660788526
C  C313  1  0.53280000  0.63750000  0.57420000  1.0 -0.0660788526
C  C314  1  0.46720000  0.36250000  0.57420000  1.0 -0.0660788526
C  C315  1  0.63750000  0.46720000  0.07420000  1.0 -0.05747925
C  C316  1  0.36250000  0.53280000  0.07420000  1.0 -0.0660788526
C  C317  1  0.03280000  0.86250000  0.42580000  1.0 -0.0660788526
C  C318  1  0.96720000  0.13750000  0.42580000  1.0 -0.05747925
C  C319  1  0.13750000  0.03280000  0.92580000  1.0 -0.0660788526
C  C320  1  0.86250000  0.96720000  0.92580000  1.0 -0.05747925
C  C321  1  0.43410000  0.40790000  0.42130000  1.0 -0.0159470032
C  C322  1  0.56590000  0.59210000  0.42130000  1.0 -0.0140151183
C  C323  1  0.40790000  0.56590000  0.92130000  1.0 -0.0159470032
C  C324  1  0.59210000  0.43410000  0.92130000  1.0 -0.0159470032
C  C325  1  0.93410000  0.09210000  0.57870000  1.0 -0.0140151183
C  C326  1  0.06590000  0.90790000  0.57870000  1.0 -0.0159470032
C  C327  1  0.90790000  0.93410000  0.07870000  1.0 -0.0140151183
C  C328  1  0.09210000  0.06590000  0.07870000  1.0 -0.0159470032
C  C329  1  0.56590000  0.59210000  0.57870000  1.0 -0.0140151183
C  C330  1  0.43410000  0.40790000  0.57870000  1.0 -0.0159470032
C  C331  1  0.59210000  0.43410000  0.07870000  1.0 -0.0140151183
C  C332  1  0.40790000  0.56590000  0.07870000  1.0 -0.0140151183
C  C333  1  0.06590000  0.90790000  0.42130000  1.0 -0.0159470032
C  C334  1  0.93410000  0.09210000  0.42130000  1.0 -0.0140151183
C  C335  1  0.09210000  0.06590000  0.92130000  1.0 -0.0159470032
C  C336  1  0.90790000  0.93410000  0.92130000  1.0 -0.0140151183
C  C337  1  0.38440000  0.37660000  0.54040000  1.0 0.0380401025
C  C338  1  0.61560000  0.62340000  0.54040000  1.0 0.0380401025
C  C339  1  0.37660000  0.61560000  0.04040000  1.0 0.0380401025
C  C340  1  0.62340000  0.38440000  0.04040000  1.0 0.0380401025
C  C341  1  0.88440000  0.12340000  0.45960000  1.0 0.0380401025
C  C342  1  0.11560000  0.87660000  0.45960000  1.0 0.0380401025
C  C343  1  0.87660000  0.88440000  0.95960000  1.0 0.0380401025
C  C344  1  0.12340000  0.11560000  0.95960000  1.0 0.0380401025
C  C345  1  0.61560000  0.62340000  0.45960000  1.0 0.0380401025
C  C346  1  0.38440000  0.37660000  0.45960000  1.0 0.0380401025
C  C347  1  0.62340000  0.38440000  0.95960000  1.0 0.0380401025
C  C348  1  0.37660000  0.61560000  0.95960000  1.0 0.0380401025
C  C349  1  0.11560000  0.87660000  0.54040000  1.0 0.0380401025
C  C350  1  0.88440000  0.12340000  0.54040000  1.0 0.0380401025
C  C351  1  0.12340000  0.11560000  0.04040000  1.0 0.0380401025
C  C352  1  0.87660000  0.88440000  0.04040000  1.0 0.0380401025
C  C353  1  0.41750000  0.33120000  0.54490000  1.0 0.0100829085
C  C354  1  0.58250000  0.66880000  0.54490000  1.0 0.0100829085
C  C355  1  0.33120000  0.58250000  0.04490000  1.0 0.0100829085
C  C356  1  0.66880000  0.41750000  0.04490000  1.0 0.0100829085
C  C357  1  0.91750000  0.16880000  0.45510000  1.0 0.0100829085
C  C358  1  0.08250000  0.83120000  0.45510000  1.0 0.0100829085
C  C359  1  0.83120000  0.91750000  0.95510000  1.0 0.0100829085
C  C360  1  0.16880000  0.08250000  0.95510000  1.0 0.0100829085
C  C361  1  0.58250000  0.66880000  0.45510000  1.0 0.0100829085
C  C362  1  0.41750000  0.33120000  0.45510000  1.0 0.0100829085
C  C363  1  0.66880000  0.41750000  0.95510000  1.0 0.0100829085
C  C364  1  0.33120000  0.58250000  0.95510000  1.0 0.0100829085
C  C365  1  0.08250000  0.83120000  0.54490000  1.0 0.0100829085
C  C366  1  0.91750000  0.16880000  0.54490000  1.0 0.0100829085
C  C367  1  0.16880000  0.08250000  0.04490000  1.0 0.0100829085
C  C368  1  0.83120000  0.91750000  0.04490000  1.0 0.0100829085
C  C369  1  0.84080000  0.73530000  0.89470000  1.0 -0.0025870635
C  C370  1  0.15920000  0.26470000  0.89470000  1.0 -0.0025870635
C  C371  1  0.73530000  0.15920000  0.39470000  1.0 -0.0025870635
C  C372  1  0.26470000  0.84080000  0.39470000  1.0 -0.0025870635
C  C373  1  0.34080000  0.76470000  0.10530000  1.0 -0.0025870635
C  C374  1  0.65920000  0.23530000  0.10530000  1.0 -0.0025870635
C  C375  1  0.23530000  0.34080000  0.60530000  1.0 -0.0025870635
C  C376  1  0.76470000  0.65920000  0.60530000  1.0 -0.0025870635
C  C377  1  0.15920000  0.26470000  0.10530000  1.0 -0.0025870635
C  C378  1  0.84080000  0.73530000  0.10530000  1.0 -0.0025870635
C  C379  1  0.26470000  0.84080000  0.60530000  1.0 -0.0025870635
C  C380  1  0.73530000  0.15920000  0.60530000  1.0 -0.0025870635
C  C381  1  0.65920000  0.23530000  0.89470000  1.0 -0.0025870635
C  C382  1  0.34080000  0.76470000  0.89470000  1.0 -0.0025870635
C  C383  1  0.76470000  0.65920000  0.39470000  1.0 -0.0025870635
C  C384  1  0.23530000  0.34080000  0.39470000  1.0 -0.0025870635
C  C385  1  0.80730000  0.77410000  0.87060000  1.0 -0.0902492684
C  C386  1  0.19270000  0.22590000  0.87060000  1.0 -0.0902492684
C  C387  1  0.77410000  0.19270000  0.37060000  1.0 -0.0902492684
C  C388  1  0.22590000  0.80730000  0.37060000  1.0 -0.0902492684
C  C389  1  0.30730000  0.72590000  0.12940000  1.0 -0.0902492684
C  C390  1  0.69270000  0.27410000  0.12940000  1.0 -0.0902492684
C  C391  1  0.27410000  0.30730000  0.62940000  1.0 -0.0902492684
C  C392  1  0.72590000  0.69270000  0.62940000  1.0 -0.0902492684
C  C393  1  0.19270000  0.22590000  0.12940000  1.0 -0.0902492684
C  C394  1  0.80730000  0.77410000  0.12940000  1.0 -0.0902492684
C  C395  1  0.22590000  0.80730000  0.62940000  1.0 -0.0902492684
C  C396  1  0.77410000  0.19270000  0.62940000  1.0 -0.0902492684
C  C397  1  0.69270000  0.27410000  0.87060000  1.0 -0.0902492684
C  C398  1  0.30730000  0.72590000  0.87060000  1.0 -0.0902492684
C  C399  1  0.72590000  0.69270000  0.37060000  1.0 -0.0902492684
C  C400  1  0.27410000  0.30730000  0.37060000  1.0 -0.0902492684
C  C401  1  0.86000000  0.78700000  0.75760000  1.0 -0.05747925
C  C402  1  0.14000000  0.21300000  0.75760000  1.0 -0.05747925
C  C403  1  0.78700000  0.14000000  0.25760000  1.0 -0.05747925
C  C404  1  0.21300000  0.86000000  0.25760000  1.0 -0.05747925
C  C405  1  0.36000000  0.71300000  0.24240000  1.0 -0.05747925
C  C406  1  0.64000000  0.28700000  0.24240000  1.0 -0.05747925
C  C407  1  0.28700000  0.36000000  0.74240000  1.0 -0.05747925
C  C408  1  0.71300000  0.64000000  0.74240000  1.0 -0.05747925
C  C409  1  0.14000000  0.21300000  0.24240000  1.0 -0.05747925
C  C410  1  0.86000000  0.78700000  0.24240000  1.0 -0.05747925
C  C411  1  0.21300000  0.86000000  0.74240000  1.0 -0.05747925
C  C412  1  0.78700000  0.14000000  0.74240000  1.0 -0.05747925
C  C413  1  0.64000000  0.28700000  0.75760000  1.0 -0.05747925
C  C414  1  0.36000000  0.71300000  0.75760000  1.0 -0.05747925
C  C415  1  0.71300000  0.64000000  0.25760000  1.0 -0.05747925
C  C416  1  0.28700000  0.36000000  0.25760000  1.0 -0.05747925
C  C417  1  0.89180000  0.74720000  0.78530000  1.0 0.0380401025
C  C418  1  0.10820000  0.25280000  0.78530000  1.0 0.0380401025
C  C419  1  0.74720000  0.10820000  0.28530000  1.0 0.0380401025
C  C420  1  0.25280000  0.89180000  0.28530000  1.0 0.0380401025
C  C421  1  0.39180000  0.75280000  0.21470000  1.0 0.0380401025
C  C422  1  0.60820000  0.24720000  0.21470000  1.0 0.0380401025
C  C423  1  0.24720000  0.39180000  0.71470000  1.0 0.0380401025
C  C424  1  0.75280000  0.60820000  0.71470000  1.0 0.0380401025
C  C425  1  0.10820000  0.25280000  0.21470000  1.0 0.0380401025
C  C426  1  0.89180000  0.74720000  0.21470000  1.0 0.0380401025
C  C427  1  0.25280000  0.89180000  0.71470000  1.0 0.0380401025
C  C428  1  0.74720000  0.10820000  0.71470000  1.0 0.0380401025
C  C429  1  0.60820000  0.24720000  0.78530000  1.0 0.0380401025
C  C430  1  0.39180000  0.75280000  0.78530000  1.0 0.0380401025
C  C431  1  0.75280000  0.60820000  0.28530000  1.0 0.0380401025
C  C432  1  0.24720000  0.39180000  0.28530000  1.0 0.0380401025
C  C433  1  0.45040000  0.32230000  0.53450000  1.0 -0.0025870635
C  C434  1  0.54960000  0.67770000  0.53450000  1.0 -0.0025870635
C  C435  1  0.32230000  0.54960000  0.03450000  1.0 -0.0025870635
C  C436  1  0.67770000  0.45040000  0.03450000  1.0 -0.0025870635
C  C437  1  0.95040000  0.17770000  0.46550000  1.0 -0.0025870635
C  C438  1  0.04960000  0.82230000  0.46550000  1.0 -0.0025870635
C  C439  1  0.82230000  0.95040000  0.96550000  1.0 -0.0025870635
C  C440  1  0.17770000  0.04960000  0.96550000  1.0 -0.0025870635
C  C441  1  0.54960000  0.67770000  0.46550000  1.0 -0.0025870635
C  C442  1  0.45040000  0.32230000  0.46550000  1.0 -0.0025870635
C  C443  1  0.67770000  0.45040000  0.96550000  1.0 -0.0025870635
C  C444  1  0.32230000  0.54960000  0.96550000  1.0 -0.0025870635
C  C445  1  0.04960000  0.82230000  0.53450000  1.0 -0.0025870635
C  C446  1  0.95040000  0.17770000  0.53450000  1.0 -0.0025870635
C  C447  1  0.17770000  0.04960000  0.03450000  1.0 -0.0025870635
C  C448  1  0.82230000  0.95040000  0.03450000  1.0 -0.0025870635
C  C449  1  0.45600000  0.35620000  0.59580000  1.0 -0.0961379483
C  C450  1  0.54400000  0.64380000  0.59580000  1.0 -0.0961379483
C  C451  1  0.35620000  0.54400000  0.09580000  1.0 -0.0961379483
C  C452  1  0.64380000  0.45600000  0.09580000  1.0 -0.0961379483
C  C453  1  0.95600000  0.14380000  0.40420000  1.0 -0.0961379483
C  C454  1  0.04400000  0.85620000  0.40420000  1.0 -0.0961379483
C  C455  1  0.85620000  0.95600000  0.90420000  1.0 -0.0961379483
C  C456  1  0.14380000  0.04400000  0.90420000  1.0 -0.0961379483
C  C457  1  0.54400000  0.64380000  0.40420000  1.0 -0.0961379483
C  C458  1  0.45600000  0.35620000  0.40420000  1.0 -0.0961379483
C  C459  1  0.64380000  0.45600000  0.90420000  1.0 -0.0961379483
C  C460  1  0.35620000  0.54400000  0.90420000  1.0 -0.0961379483
C  C461  1  0.04400000  0.85620000  0.59580000  1.0 -0.0961379483
C  C462  1  0.95600000  0.14380000  0.59580000  1.0 -0.0961379483
C  C463  1  0.14380000  0.04400000  0.09580000  1.0 -0.0961379483
C  C464  1  0.85620000  0.95600000  0.09580000  1.0 -0.0961379483
C  C465  1  0.42310000  0.39710000  0.60320000  1.0 -0.0410256158
C  C466  1  0.57690000  0.60290000  0.60320000  1.0 -0.0410256158
C  C467  1  0.39710000  0.57690000  0.10320000  1.0 -0.0410256158
C  C468  1  0.60290000  0.42310000  0.10320000  1.0 -0.0410256158
C  C469  1  0.92310000  0.10290000  0.39680000  1.0 -0.0410256158
C  C470  1  0.07690000  0.89710000  0.39680000  1.0 -0.0410256158
C  C471  1  0.89710000  0.92310000  0.89680000  1.0 -0.0410256158
C  C472  1  0.10290000  0.07690000  0.89680000  1.0 -0.0410256158
C  C473  1  0.57690000  0.60290000  0.39680000  1.0 -0.0410256158
C  C474  1  0.42310000  0.39710000  0.39680000  1.0 -0.0410256158
C  C475  1  0.60290000  0.42310000  0.89680000  1.0 -0.0410256158
C  C476  1  0.39710000  0.57690000  0.89680000  1.0 -0.0410256158
C  C477  1  0.07690000  0.89710000  0.60320000  1.0 -0.0410256158
C  C478  1  0.92310000  0.10290000  0.60320000  1.0 -0.0410256158
C  C479  1  0.10290000  0.07690000  0.10320000  1.0 -0.0410256158
C  C480  1  0.89710000  0.92310000  0.10320000  1.0 -0.0410256158
C  C481  1  0.37880000  0.37030000  0.48800000  1.0 -0.0410256158
C  C482  1  0.62120000  0.62970000  0.48800000  1.0 -0.0410256158
C  C483  1  0.37030000  0.62120000  0.98800000  1.0 -0.0410256158
C  C484  1  0.62970000  0.37880000  0.98800000  1.0 -0.0410256158
C  C485  1  0.87880000  0.12970000  0.51200000  1.0 -0.0410256158
C  C486  1  0.12120000  0.87030000  0.51200000  1.0 -0.0410256158
C  C487  1  0.87030000  0.87880000  0.01200000  1.0 -0.0410256158
C  C488  1  0.12970000  0.12120000  0.01200000  1.0 -0.0410256158
C  C489  1  0.62120000  0.62970000  0.51200000  1.0 -0.0410256158
C  C490  1  0.37880000  0.37030000  0.51200000  1.0 -0.0410256158
C  C491  1  0.62970000  0.37880000  0.01200000  1.0 -0.0410256158
C  C492  1  0.37030000  0.62120000  0.01200000  1.0 -0.0410256158
C  C493  1  0.12120000  0.87030000  0.48800000  1.0 -0.0410256158
C  C494  1  0.87880000  0.12970000  0.48800000  1.0 -0.0410256158
C  C495  1  0.12970000  0.12120000  0.98800000  1.0 -0.0410256158
C  C496  1  0.87030000  0.87880000  0.98800000  1.0 -0.0410256158
C  C497  1  0.41170000  0.32940000  0.48060000  1.0 -0.0539247677
C  C498  1  0.58830000  0.67060000  0.48060000  1.0 -0.0539247677
C  C499  1  0.32940000  0.58830000  0.98060000  1.0 -0.0539247677
C  C500  1  0.67060000  0.41170000  0.98060000  1.0 -0.05747925
C  C501  1  0.91170000  0.17060000  0.51940000  1.0 -0.0539247677
C  C502  1  0.08830000  0.82940000  0.51940000  1.0 -0.0539247677
C  C503  1  0.82940000  0.91170000  0.01940000  1.0 -0.0539247677
C  C504  1  0.17060000  0.08830000  0.01940000  1.0 -0.0539247677
C  C505  1  0.58830000  0.67060000  0.51940000  1.0 -0.0539247677
C  C506  1  0.41170000  0.32940000  0.51940000  1.0 -0.0539247677
C  C507  1  0.67060000  0.41170000  0.01940000  1.0 -0.0539247677
C  C508  1  0.32940000  0.58830000  0.01940000  1.0 -0.0539247677
C  C509  1  0.08830000  0.82940000  0.48060000  1.0 -0.0539247677
C  C510  1  0.91170000  0.17060000  0.48060000  1.0 -0.0539247677
C  C511  1  0.17060000  0.08830000  0.98060000  1.0 -0.05747925
C  C512  1  0.82940000  0.91170000  0.98060000  1.0 -0.0539247677
N  N1  1  0.88364000  0.72045000  0.85026000  1.0 -0.1850473462
N  N2  1  0.11636000  0.27955000  0.85026000  1.0 -0.1850473462
N  N3  1  0.72045000  0.11636000  0.35026000  1.0 -0.1846043496
N  N4  1  0.27955000  0.88364000  0.35026000  1.0 -0.1850473462
N  N5  1  0.38364000  0.77955000  0.14974000  1.0 -0.1850473462
N  N6  1  0.61636000  0.22045000  0.14974000  1.0 -0.1850473462
N  N7  1  0.22045000  0.38364000  0.64974000  1.0 -0.1850473462
N  N8  1  0.77955000  0.61636000  0.64974000  1.0 -0.1850473462
N  N9  1  0.11636000  0.27955000  0.14974000  1.0 -0.1850473462
N  N10  1  0.88364000  0.72045000  0.14974000  1.0 -0.1850473462
N  N11  1  0.27955000  0.88364000  0.64974000  1.0 -0.1850473462
N  N12  1  0.72045000  0.11636000  0.64974000  1.0 -0.1846043496
N  N13  1  0.61636000  0.22045000  0.85026000  1.0 -0.1850473462
N  N14  1  0.38364000  0.77955000  0.85026000  1.0 -0.1850473462
N  N15  1  0.77955000  0.61636000  0.35026000  1.0 -0.1850473462
N  N16  1  0.22045000  0.38364000  0.35026000  1.0 -0.1850473462
N  N17  1  0.39270000  0.41500000  0.47860000  1.0 -0.05747925
N  N18  1  0.60730000  0.58500000  0.47860000  1.0 -0.05747925
N  N19  1  0.41500000  0.60730000  0.97860000  1.0 -0.05747925
N  N20  1  0.58500000  0.39270000  0.97860000  1.0 -0.05747925
N  N21  1  0.89270000  0.08500000  0.52140000  1.0 -0.05747925
N  N22  1  0.10730000  0.91500000  0.52140000  1.0 -0.05747925
N  N23  1  0.91500000  0.89270000  0.02140000  1.0 -0.05747925
N  N24  1  0.08500000  0.10730000  0.02140000  1.0 -0.05747925
N  N25  1  0.60730000  0.58500000  0.52140000  1.0 -0.05747925
N  N26  1  0.39270000  0.41500000  0.52140000  1.0 -0.05747925
N  N27  1  0.58500000  0.39270000  0.02140000  1.0 -0.05747925
N  N28  1  0.41500000  0.60730000  0.02140000  1.0 -0.05747925
N  N29  1  0.10730000  0.91500000  0.47860000  1.0 -0.05747925
N  N30  1  0.89270000  0.08500000  0.47860000  1.0 -0.05747925
N  N31  1  0.08500000  0.10730000  0.97860000  1.0 -0.05747925
N  N32  1  0.91500000  0.89270000  0.97860000  1.0 -0.05747925
N  N33  1  0.38440000  0.40410000  0.54940000  1.0 -0.0539247677
N  N34  1  0.61560000  0.59590000  0.54940000  1.0 -0.0539247677
N  N35  1  0.40410000  0.61560000  0.04940000  1.0 -0.05747925
N  N36  1  0.59590000  0.38440000  0.04940000  1.0 -0.05747925
N  N37  1  0.88440000  0.09590000  0.45060000  1.0 -0.05747925
N  N38  1  0.11560000  0.90410000  0.45060000  1.0 -0.0539247677
N  N39  1  0.90410000  0.88440000  0.95060000  1.0 -0.0539247677
N  N40  1  0.09590000  0.11560000  0.95060000  1.0 -0.0539247677
N  N41  1  0.61560000  0.59590000  0.45060000  1.0 -0.0539247677
N  N42  1  0.38440000  0.40410000  0.45060000  1.0 -0.0539247677
N  N43  1  0.59590000  0.38440000  0.95060000  1.0 -0.0539247677
N  N44  1  0.40410000  0.61560000  0.95060000  1.0 -0.0539247677
N  N45  1  0.11560000  0.90410000  0.54940000  1.0 -0.0539247677
N  N46  1  0.88440000  0.09590000  0.54940000  1.0 -0.0539247677
N  N47  1  0.09590000  0.11560000  0.04940000  1.0 -0.05747925
N  N48  1  0.90410000  0.88440000  0.04940000  1.0 -0.05747925
O  O1  1  0.69412000  0.00310000  0.65538000  1.0 -0.5407344032
O  O2  1  0.30588000  0.99690000  0.65538000  1.0 -0.5407344032
O  O3  1  0.00310000  0.30588000  0.15538000  1.0 -0.5407344032
O  O4  1  0.99690000  0.69412000  0.15538000  1.0 -0.5407344032
O  O5  1  0.19412000  0.49690000  0.34462000  1.0 -0.5407344032
O  O6  1  0.80588000  0.50310000  0.34462000  1.0 -0.5407344032
O  O7  1  0.50310000  0.19412000  0.84462000  1.0 -0.5407344032
O  O8  1  0.49690000  0.80588000  0.84462000  1.0 -0.5407344032
O  O9  1  0.30588000  0.99690000  0.34462000  1.0 -0.5407344032
O  O10  1  0.69412000  0.00310000  0.34462000  1.0 -0.5407344032
O  O11  1  0.99690000  0.69412000  0.84462000  1.0 -0.5407344032
O  O12  1  0.00310000  0.30588000  0.84462000  1.0 -0.5407344032
O  O13  1  0.80588000  0.50310000  0.65538000  1.0 -0.5407344032
O  O14  1  0.19412000  0.49690000  0.65538000  1.0 -0.5407344032
O  O15  1  0.49690000  0.80588000  0.15538000  1.0 -0.5407344032
O  O16  1  0.50310000  0.19412000  0.15538000  1.0 -0.5407344032
O  O17  1  0.62630000  0.95391000  0.69768000  1.0 -0.5407344032
O  O18  1  0.37370000  0.04609000  0.69768000  1.0 -0.5407344032
O  O19  1  0.95391000  0.37370000  0.19768000  1.0 -0.5407344032
O  O20  1  0.04609000  0.62630000  0.19768000  1.0 -0.5407344032
O  O21  1  0.12630000  0.54609000  0.30232000  1.0 -0.5407344032
O  O22  1  0.87370000  0.45391000  0.30232000  1.0 -0.5407344032
O  O23  1  0.45391000  0.12630000  0.80232000  1.0 -0.5407344032
O  O24  1  0.54609000  0.87370000  0.80232000  1.0 -0.5407344032
O  O25  1  0.37370000  0.04609000  0.30232000  1.0 -0.5407344032
O  O26  1  0.62630000  0.95391000  0.30232000  1.0 -0.5407344032
O  O27  1  0.04609000  0.62630000  0.80232000  1.0 -0.5407344032
O  O28  1  0.95391000  0.37370000  0.80232000  1.0 -0.5407344032
O  O29  1  0.87370000  0.45391000  0.69768000  1.0 -0.5407344032
O  O30  1  0.12630000  0.54609000  0.69768000  1.0 -0.5407344032
O  O31  1  0.54609000  0.87370000  0.19768000  1.0 -0.5407344032
O  O32  1  0.45391000  0.12630000  0.19768000  1.0 -0.5407344032
O  O33  1  0.58964000  0.01951000  0.56701000  1.0 -0.4901538221
O  O34  1  0.41036000  0.98049000  0.56701000  1.0 -0.4901538221
O  O35  1  0.01951000  0.41036000  0.06701000  1.0 -0.4901538221
O  O36  1  0.98049000  0.58964000  0.06701000  1.0 -0.4901538221
O  O37  1  0.08964000  0.48049000  0.43299000  1.0 -0.4901538221
O  O38  1  0.91036000  0.51951000  0.43299000  1.0 -0.4901538221
O  O39  1  0.51951000  0.08964000  0.93299000  1.0 -0.4901538221
O  O40  1  0.48049000  0.91036000  0.93299000  1.0 -0.4901538221
O  O41  1  0.41036000  0.98049000  0.43299000  1.0 -0.4901538221
O  O42  1  0.58964000  0.01951000  0.43299000  1.0 -0.4901538221
O  O43  1  0.98049000  0.58964000  0.93299000  1.0 -0.4901538221
O  O44  1  0.01951000  0.41036000  0.93299000  1.0 -0.4901538221
O  O45  1  0.91036000  0.51951000  0.56701000  1.0 -0.4901538221
O  O46  1  0.08964000  0.48049000  0.56701000  1.0 -0.4901538221
O  O47  1  0.48049000  0.91036000  0.06701000  1.0 -0.4901538221
O  O48  1  0.51951000  0.08964000  0.06701000  1.0 -0.4901538221
O  O49  1  0.61276000  0.06935000  0.70283000  1.0 -0.4771440355
O  O50  1  0.38724000  0.93065000  0.70283000  1.0 -0.4771440355
O  O51  1  0.06935000  0.38724000  0.20283000  1.0 -0.4771440355
O  O52  1  0.93065000  0.61276000  0.20283000  1.0 -0.4771440355
O  O53  1  0.11276000  0.43065000  0.29717000  1.0 -0.4771440355
O  O54  1  0.88724000  0.56935000  0.29717000  1.0 -0.4771440355
O  O55  1  0.56935000  0.11276000  0.79717000  1.0 -0.4771440355
O  O56  1  0.43065000  0.88724000  0.79717000  1.0 -0.4771440355
O  O57  1  0.38724000  0.93065000  0.29717000  1.0 -0.4771440355
O  O58  1  0.61276000  0.06935000  0.29717000  1.0 -0.4771440355
O  O59  1  0.93065000  0.61276000  0.79717000  1.0 -0.4771440355
O  O60  1  0.06935000  0.38724000  0.79717000  1.0 -0.4771440355
O  O61  1  0.88724000  0.56935000  0.70283000  1.0 -0.4771440355
O  O62  1  0.11276000  0.43065000  0.70283000  1.0 -0.4771440355
O  O63  1  0.43065000  0.88724000  0.20283000  1.0 -0.4771440355
O  O64  1  0.56935000  0.11276000  0.20283000  1.0 -0.4771440355
O  O65  1  0.55084000  0.99697000  0.81402000  1.0 -0.5407344032
O  O66  1  0.44916000  0.00303000  0.81402000  1.0 -0.5407344032
O  O67  1  0.99697000  0.44916000  0.31402000  1.0 -0.5407344032
O  O68  1  0.00303000  0.55084000  0.31402000  1.0 -0.5407344032
O  O69  1  0.05084000  0.50303000  0.18598000  1.0 -0.5407344032
O  O70  1  0.94916000  0.49697000  0.18598000  1.0 -0.5407344032
O  O71  1  0.49697000  0.05084000  0.68598000  1.0 -0.5407344032
O  O72  1  0.50303000  0.94916000  0.68598000  1.0 -0.5407344032
O  O73  1  0.44916000  0.00303000  0.18598000  1.0 -0.5407344032
O  O74  1  0.55084000  0.99697000  0.18598000  1.0 -0.5407344032
O  O75  1  0.00303000  0.55084000  0.68598000  1.0 -0.5407344032
O  O76  1  0.99697000  0.44916000  0.68598000  1.0 -0.5407344032
O  O77  1  0.94916000  0.49697000  0.81402000  1.0 -0.5407344032
O  O78  1  0.05084000  0.50303000  0.81402000  1.0 -0.5407344032
O  O79  1  0.50303000  0.94916000  0.31402000  1.0 -0.5407344032
O  O80  1  0.49697000  0.05084000  0.31402000  1.0 -0.5407344032
O  O81  1  0.61839000  0.13343000  0.56721000  1.0 -0.5563537097
O  O82  1  0.38161000  0.86657000  0.56721000  1.0 -0.5563537097
O  O83  1  0.13343000  0.38161000  0.06721000  1.0 -0.5563537097
O  O84  1  0.86657000  0.61839000  0.06721000  1.0 -0.5563537097
O  O85  1  0.11839000  0.36657000  0.43279000  1.0 -0.5563537097
O  O86  1  0.88161000  0.63343000  0.43279000  1.0 -0.5563537097
O  O87  1  0.63343000  0.11839000  0.93279000  1.0 -0.5563537097
O  O88  1  0.36657000  0.88161000  0.93279000  1.0 -0.5563537097
O  O89  1  0.38161000  0.86657000  0.43279000  1.0 -0.5563537097
O  O90  1  0.61839000  0.13343000  0.43279000  1.0 -0.5563537097
O  O91  1  0.86657000  0.61839000  0.93279000  1.0 -0.5563537097
O  O92  1  0.13343000  0.38161000  0.93279000  1.0 -0.5563537097
O  O93  1  0.88161000  0.63343000  0.56721000  1.0 -0.5563537097
O  O94  1  0.11839000  0.36657000  0.56721000  1.0 -0.5563537097
O  O95  1  0.36657000  0.88161000  0.06721000  1.0 -0.5563537097
O  O96  1  0.63343000  0.11839000  0.06721000  1.0 -0.5563537097
O  O97  1  0.69824000  0.05310000  0.50000000  1.0 -0.4456935777
O  O98  1  0.30176000  0.94690000  0.50000000  1.0 -0.4456935777
O  O99  1  0.05310000  0.30176000  0.00000000  1.0 -0.4456935777
O  O100  1  0.94690000  0.69824000  0.00000000  1.0 -0.4456935777
O  O101  1  0.19824000  0.44690000  0.50000000  1.0 -0.4456935777
O  O102  1  0.80176000  0.55310000  0.50000000  1.0 -0.4456935777
O  O103  1  0.55310000  0.19824000  0.00000000  1.0 -0.4456935777
O  O104  1  0.44690000  0.80176000  0.00000000  1.0 -0.4456935777
