# DDEC6 charges by PACMAN v1.1 (https://github.com/mtap-research/PACMAN-charge/)
data_AQOHUM_FSR_pacman
_chemical_formula_sum              "Eu24 O152 C288 H192 N48"
_cell_length_a       27.5116
_cell_length_b       27.5116
_cell_length_c       27.5116
_cell_angle_alpha    90
_cell_angle_beta     90
_cell_angle_gamma    90

_symmetry_space_group_name_H-M    "P 1"
_symmetry_Int_Tables_number       1

loop_
  _symmetry_equiv_pos_as_xyz
  'x, y, z'

loop_
  _atom_site_type_symbol
  _atom_site_label
  _atom_site_symmetry_multiplicity
  _atom_site_fract_x
  _atom_site_fract_y
  _atom_site_fract_z
  _atom_site_occupancy
 _atom_site_charge
Eu  Eu1       1.0  0.50000  0.50000  0.60165  1.0000 2.1776771348
O   O1        1.0  0.50000  0.50000  0.70800  1.0000 -0.2830638275
Eu  Eu2       1.0  0.50000  0.00000  0.10165  1.0000 2.1776771348
O   O2        1.0  0.50000  0.00000  0.20800  1.0000 -0.2830638275
Eu  Eu3       1.0  0.00000  0.50000  0.10165  1.0000 2.1776771348
O   O3        1.0  0.00000  0.50000  0.20800  1.0000 -0.2830638275
Eu  Eu4       1.0  0.00000  0.00000  0.60165  1.0000 2.1776771348
O   O4        1.0  0.00000  0.00000  0.70800  1.0000 -0.2868386113
Eu  Eu5       1.0  0.50000  0.50000  0.39835  1.0000 2.1776771348
O   O5        1.0  0.50000  0.50000  0.29200  1.0000 -0.2830638275
Eu  Eu6       1.0  0.50000  0.00000  0.89835  1.0000 2.1776771348
O   O6        1.0  0.50000  0.00000  0.79200  1.0000 -0.2830638275
Eu  Eu7       1.0  0.00000  0.50000  0.89835  1.0000 2.1776771348
O   O7        1.0  0.00000  0.50000  0.79200  1.0000 -0.2868386113
Eu  Eu8       1.0  0.00000  0.00000  0.39835  1.0000 2.1776771348
O   O8        1.0  0.00000  0.00000  0.29200  1.0000 -0.2830638275
Eu  Eu9       1.0  0.60165  0.50000  0.50000  1.0000 2.1776771348
O   O9        1.0  0.70800  0.50000  0.50000  1.0000 -0.2830638275
Eu  Eu10      1.0  0.60165  0.00000  0.00000  1.0000 2.1776771348
O   O10       1.0  0.70800  0.00000  0.00000  1.0000 -0.2830638275
Eu  Eu11      1.0  0.10165  0.50000  0.00000  1.0000 2.1776771348
O   O11       1.0  0.20800  0.50000  0.00000  1.0000 -0.2830638275
Eu  Eu12      1.0  0.10165  0.00000  0.50000  1.0000 2.1776771348
O   O12       1.0  0.20800  0.00000  0.50000  1.0000 -0.2830638275
Eu  Eu13      1.0  0.39835  0.50000  0.50000  1.0000 2.1776771348
O   O13       1.0  0.29200  0.50000  0.50000  1.0000 -0.2830638275
Eu  Eu14      1.0  0.39835  0.00000  0.00000  1.0000 2.1776771348
O   O14       1.0  0.29200  0.00000  0.00000  1.0000 -0.2830638275
Eu  Eu15      1.0  0.89835  0.50000  0.00000  1.0000 2.1776771348
O   O15       1.0  0.79200  0.50000  0.00000  1.0000 -0.2830638275
Eu  Eu16      1.0  0.89835  0.00000  0.50000  1.0000 2.1776771348
O   O16       1.0  0.79200  0.00000  0.50000  1.0000 -0.2830638275
Eu  Eu17      1.0  0.50000  0.60165  0.50000  1.0000 2.1776771348
O   O17       1.0  0.50000  0.70800  0.50000  1.0000 -0.2830638275
Eu  Eu18      1.0  0.50000  0.10165  0.00000  1.0000 2.1776771348
O   O18       1.0  0.50000  0.20800  0.00000  1.0000 -0.2830638275
Eu  Eu19      1.0  0.00000  0.60165  0.00000  1.0000 2.1776771348
O   O19       1.0  0.00000  0.70800  0.00000  1.0000 -0.2830638275
Eu  Eu20      1.0  0.00000  0.10165  0.50000  1.0000 2.1776771348
O   O20       1.0  0.00000  0.20800  0.50000  1.0000 -0.2830638275
Eu  Eu21      1.0  0.50000  0.39835  0.50000  1.0000 2.1776771348
O   O21       1.0  0.50000  0.29200  0.50000  1.0000 -0.2830638275
Eu  Eu22      1.0  0.50000  0.89835  0.00000  1.0000 2.1776771348
O   O22       1.0  0.50000  0.79200  0.00000  1.0000 -0.2830638275
Eu  Eu23      1.0  0.00000  0.39835  0.00000  1.0000 2.1776771348
O   O23       1.0  0.00000  0.29200  0.00000  1.0000 -0.2830638275
Eu  Eu24      1.0  0.00000  0.89835  0.50000  1.0000 2.1776771348
O   O24       1.0  0.00000  0.79200  0.50000  1.0000 -0.2830638275
O   O25       1.0  0.50000  0.57840  0.63640  1.0000 -0.5634275755
C   C1        1.0  0.50000  0.68420  0.74590  1.0000 -0.2868386113
C   C2        1.0  0.50000  0.64710  0.70830  1.0000 0.0236881552
H   H1        1.0  0.50000  0.61440  0.71670  1.0000 0.1332363035
H   H2        1.0  0.50000  0.67620  0.77870  1.0000 0.27894599
N   N1        1.0  0.50000  0.74590  0.68420  1.0000 -0.2371562436
O   O26       1.0  0.50000  0.07840  0.13640  1.0000 -0.5634275755
C   C3        1.0  0.50000  0.18420  0.24590  1.0000 -0.2868386113
C   C4        1.0  0.50000  0.14710  0.20830  1.0000 0.0236881552
H   H3        1.0  0.50000  0.11440  0.21670  1.0000 0.1332363035
H   H4        1.0  0.50000  0.17620  0.27870  1.0000 0.27894599
N   N2        1.0  0.50000  0.24590  0.18420  1.0000 -0.2371562436
O   O27       1.0  0.00000  0.57840  0.13640  1.0000 -0.5652557015
C   C5        1.0  0.00000  0.68420  0.24590  1.0000 -0.2868386113
C   C6        1.0  0.00000  0.64710  0.20830  1.0000 0.0236881552
H   H5        1.0  0.00000  0.61440  0.21670  1.0000 0.1332363035
H   H6        1.0  0.00000  0.67620  0.27870  1.0000 0.27894599
N   N3        1.0  0.00000  0.74590  0.18420  1.0000 -0.2371562436
O   O28       1.0  0.00000  0.07840  0.63640  1.0000 -0.5634275755
C   C7        1.0  0.00000  0.18420  0.74590  1.0000 -0.2868386113
C   C8        1.0  0.00000  0.14710  0.70830  1.0000 0.0236881552
H   H7        1.0  0.00000  0.11440  0.71670  1.0000 0.1332363035
H   H8        1.0  0.00000  0.17620  0.77870  1.0000 0.27894599
N   N4        1.0  0.00000  0.24590  0.68420  1.0000 -0.2371562436
O   O29       1.0  0.50000  0.42160  0.63640  1.0000 -0.5634275755
C   C9        1.0  0.50000  0.31580  0.74590  1.0000 -0.2868386113
C   C10       1.0  0.50000  0.35290  0.70830  1.0000 0.0236881552
H   H9        1.0  0.50000  0.38560  0.71670  1.0000 0.1332363035
H   H10       1.0  0.50000  0.32380  0.77870  1.0000 0.27894599
N   N5        1.0  0.50000  0.25410  0.68420  1.0000 -0.2371562436
O   O30       1.0  0.50000  0.92160  0.13640  1.0000 -0.5634275755
C   C11       1.0  0.50000  0.81580  0.24590  1.0000 -0.2868386113
C   C12       1.0  0.50000  0.85290  0.20830  1.0000 0.0236881552
H   H11       1.0  0.50000  0.88560  0.21670  1.0000 0.1332363035
H   H12       1.0  0.50000  0.82380  0.27870  1.0000 0.27894599
N   N6        1.0  0.50000  0.75410  0.18420  1.0000 -0.2371562436
O   O31       1.0  0.00000  0.42160  0.13640  1.0000 -0.5652557015
C   C13       1.0  0.00000  0.31580  0.24590  1.0000 -0.2868386113
C   C14       1.0  0.00000  0.35290  0.20830  1.0000 0.0236881552
H   H13       1.0  0.00000  0.38560  0.21670  1.0000 0.1332363035
H   H14       1.0  0.00000  0.32380  0.27870  1.0000 0.27894599
N   N7        1.0  0.00000  0.25410  0.18420  1.0000 -0.2371562436
O   O32       1.0  0.00000  0.92160  0.63640  1.0000 -0.5652557015
C   C15       1.0  0.00000  0.81580  0.74590  1.0000 -0.2868386113
C   C16       1.0  0.00000  0.85290  0.70830  1.0000 0.0236881552
H   H15       1.0  0.00000  0.88560  0.71670  1.0000 0.1332363035
H   H16       1.0  0.00000  0.82380  0.77870  1.0000 0.27894599
N   N8        1.0  0.00000  0.75410  0.68420  1.0000 -0.2371562436
O   O33       1.0  0.50000  0.57840  0.36360  1.0000 -0.5634275755
C   C17       1.0  0.50000  0.68420  0.25410  1.0000 -0.2868386113
C   C18       1.0  0.50000  0.64710  0.29170  1.0000 0.0236881552
H   H17       1.0  0.50000  0.61440  0.28330  1.0000 0.1332363035
H   H18       1.0  0.50000  0.67620  0.22130  1.0000 0.27894599
N   N9        1.0  0.50000  0.74590  0.31580  1.0000 -0.2371562436
O   O34       1.0  0.50000  0.07840  0.86360  1.0000 -0.5634275755
C   C19       1.0  0.50000  0.18420  0.75410  1.0000 -0.2868386113
C   C20       1.0  0.50000  0.14710  0.79170  1.0000 0.0236881552
H   H19       1.0  0.50000  0.11440  0.78330  1.0000 0.1332363035
H   H20       1.0  0.50000  0.17620  0.72130  1.0000 0.27894599
N   N10       1.0  0.50000  0.24590  0.81580  1.0000 -0.2371562436
O   O35       1.0  0.00000  0.57840  0.86360  1.0000 -0.5634275755
C   C21       1.0  0.00000  0.68420  0.75410  1.0000 -0.2868386113
C   C22       1.0  0.00000  0.64710  0.79170  1.0000 0.0236881552
H   H21       1.0  0.00000  0.61440  0.78330  1.0000 0.1332363035
H   H22       1.0  0.00000  0.67620  0.72130  1.0000 0.27894599
N   N11       1.0  0.00000  0.74590  0.81580  1.0000 -0.2371562436
O   O36       1.0  0.00000  0.07840  0.36360  1.0000 -0.5634275755
C   C23       1.0  0.00000  0.18420  0.25410  1.0000 -0.2868386113
C   C24       1.0  0.00000  0.14710  0.29170  1.0000 0.0236881552
H   H23       1.0  0.00000  0.11440  0.28330  1.0000 0.1332363035
H   H24       1.0  0.00000  0.17620  0.22130  1.0000 0.27894599
N   N12       1.0  0.00000  0.24590  0.31580  1.0000 -0.2371562436
O   O37       1.0  0.50000  0.42160  0.36360  1.0000 -0.5634275755
C   C25       1.0  0.50000  0.31580  0.25410  1.0000 -0.2868386113
C   C26       1.0  0.50000  0.35290  0.29170  1.0000 0.0236881552
H   H25       1.0  0.50000  0.38560  0.28330  1.0000 0.1332363035
H   H26       1.0  0.50000  0.32380  0.22130  1.0000 0.27894599
N   N13       1.0  0.50000  0.25410  0.31580  1.0000 -0.2371562436
O   O38       1.0  0.50000  0.92160  0.86360  1.0000 -0.5634275755
C   C27       1.0  0.50000  0.81580  0.75410  1.0000 -0.2868386113
C   C28       1.0  0.50000  0.85290  0.79170  1.0000 0.0236881552
H   H27       1.0  0.50000  0.88560  0.78330  1.0000 0.1332363035
H   H28       1.0  0.50000  0.82380  0.72130  1.0000 0.27894599
N   N14       1.0  0.50000  0.75410  0.81580  1.0000 -0.2371562436
O   O39       1.0  0.00000  0.42160  0.86360  1.0000 -0.5652557015
C   C29       1.0  0.00000  0.31580  0.75410  1.0000 -0.2868386113
C   C30       1.0  0.00000  0.35290  0.79170  1.0000 0.0236881552
H   H29       1.0  0.00000  0.38560  0.78330  1.0000 0.1332363035
H   H30       1.0  0.00000  0.32380  0.72130  1.0000 0.27894599
N   N15       1.0  0.00000  0.25410  0.81580  1.0000 -0.2371562436
O   O40       1.0  0.00000  0.92160  0.36360  1.0000 -0.5652557015
C   C31       1.0  0.00000  0.81580  0.25410  1.0000 -0.2868386113
C   C32       1.0  0.00000  0.85290  0.29170  1.0000 0.0236881552
H   H31       1.0  0.00000  0.88560  0.28330  1.0000 0.1332363035
H   H32       1.0  0.00000  0.82380  0.22130  1.0000 0.27894599
N   N16       1.0  0.00000  0.75410  0.31580  1.0000 -0.2371562436
O   O41       1.0  0.63640  0.50000  0.57840  1.0000 -0.5634275755
C   C33       1.0  0.74590  0.50000  0.68420  1.0000 -0.2868386113
C   C34       1.0  0.70830  0.50000  0.64710  1.0000 0.0236881552
H   H33       1.0  0.71670  0.50000  0.61440  1.0000 0.1332363035
H   H34       1.0  0.77870  0.50000  0.67620  1.0000 0.27894599
N   N17       1.0  0.68420  0.50000  0.74590  1.0000 -0.2371562436
O   O42       1.0  0.63640  0.00000  0.07840  1.0000 -0.5634275755
C   C35       1.0  0.74590  0.00000  0.18420  1.0000 -0.2868386113
C   C36       1.0  0.70830  0.00000  0.14710  1.0000 0.0236881552
H   H35       1.0  0.71670  0.00000  0.11440  1.0000 0.1332363035
H   H36       1.0  0.77870  0.00000  0.17620  1.0000 0.27894599
N   N18       1.0  0.68420  0.00000  0.24590  1.0000 -0.2371562436
O   O43       1.0  0.13640  0.50000  0.07840  1.0000 -0.5634275755
C   C37       1.0  0.24590  0.50000  0.18420  1.0000 -0.2868386113
C   C38       1.0  0.20830  0.50000  0.14710  1.0000 0.0236881552
H   H37       1.0  0.21670  0.50000  0.11440  1.0000 0.1332363035
H   H38       1.0  0.27870  0.50000  0.17620  1.0000 0.27894599
N   N19       1.0  0.18420  0.50000  0.24590  1.0000 -0.2371562436
O   O44       1.0  0.13640  0.00000  0.57840  1.0000 -0.5652557015
C   C39       1.0  0.24590  0.00000  0.68420  1.0000 -0.2868386113
C   C40       1.0  0.20830  0.00000  0.64710  1.0000 0.0236881552
H   H39       1.0  0.21670  0.00000  0.61440  1.0000 0.1332363035
H   H40       1.0  0.27870  0.00000  0.67620  1.0000 0.27894599
N   N20       1.0  0.18420  0.00000  0.74590  1.0000 -0.2371562436
O   O45       1.0  0.63640  0.50000  0.42160  1.0000 -0.5634275755
C   C41       1.0  0.74590  0.50000  0.31580  1.0000 -0.2868386113
C   C42       1.0  0.70830  0.50000  0.35290  1.0000 0.0236881552
H   H41       1.0  0.71670  0.50000  0.38560  1.0000 0.1332363035
H   H42       1.0  0.77870  0.50000  0.32380  1.0000 0.27894599
N   N21       1.0  0.68420  0.50000  0.25410  1.0000 -0.2371562436
O   O46       1.0  0.63640  0.00000  0.92160  1.0000 -0.5634275755
C   C43       1.0  0.74590  0.00000  0.81580  1.0000 -0.2868386113
C   C44       1.0  0.70830  0.00000  0.85290  1.0000 0.0236881552
H   H43       1.0  0.71670  0.00000  0.88560  1.0000 0.1332363035
H   H44       1.0  0.77870  0.00000  0.82380  1.0000 0.27894599
N   N22       1.0  0.68420  0.00000  0.75410  1.0000 -0.2371562436
O   O47       1.0  0.13640  0.50000  0.92160  1.0000 -0.5652557015
C   C45       1.0  0.24590  0.50000  0.81580  1.0000 -0.2868386113
C   C46       1.0  0.20830  0.50000  0.85290  1.0000 0.0236881552
H   H45       1.0  0.21670  0.50000  0.88560  1.0000 0.1332363035
H   H46       1.0  0.27870  0.50000  0.82380  1.0000 0.27894599
N   N23       1.0  0.18420  0.50000  0.75410  1.0000 -0.2371562436
O   O48       1.0  0.13640  0.00000  0.42160  1.0000 -0.5634275755
C   C47       1.0  0.24590  0.00000  0.31580  1.0000 -0.2868386113
C   C48       1.0  0.20830  0.00000  0.35290  1.0000 0.0236881552
H   H47       1.0  0.21670  0.00000  0.38560  1.0000 0.1332363035
H   H48       1.0  0.27870  0.00000  0.32380  1.0000 0.27894599
N   N24       1.0  0.18420  0.00000  0.25410  1.0000 -0.2371562436
O   O49       1.0  0.36360  0.50000  0.57840  1.0000 -0.5634275755
C   C49       1.0  0.25410  0.50000  0.68420  1.0000 -0.2868386113
C   C50       1.0  0.29170  0.50000  0.64710  1.0000 0.0236881552
H   H49       1.0  0.28330  0.50000  0.61440  1.0000 0.1332363035
H   H50       1.0  0.22130  0.50000  0.67620  1.0000 0.27894599
N   N25       1.0  0.31580  0.50000  0.74590  1.0000 -0.2371562436
O   O50       1.0  0.36360  0.00000  0.07840  1.0000 -0.5634275755
C   C51       1.0  0.25410  0.00000  0.18420  1.0000 -0.2868386113
C   C52       1.0  0.29170  0.00000  0.14710  1.0000 0.0236881552
H   H51       1.0  0.28330  0.00000  0.11440  1.0000 0.1332363035
H   H52       1.0  0.22130  0.00000  0.17620  1.0000 0.27894599
N   N26       1.0  0.31580  0.00000  0.24590  1.0000 -0.2371562436
O   O51       1.0  0.86360  0.50000  0.07840  1.0000 -0.5634275755
C   C53       1.0  0.75410  0.50000  0.18420  1.0000 -0.2868386113
C   C54       1.0  0.79170  0.50000  0.14710  1.0000 0.0236881552
H   H53       1.0  0.78330  0.50000  0.11440  1.0000 0.1332363035
H   H54       1.0  0.72130  0.50000  0.17620  1.0000 0.27894599
N   N27       1.0  0.81580  0.50000  0.24590  1.0000 -0.2371562436
O   O52       1.0  0.86360  0.00000  0.57840  1.0000 -0.5634275755
C   C55       1.0  0.75410  0.00000  0.68420  1.0000 -0.2868386113
C   C56       1.0  0.79170  0.00000  0.64710  1.0000 0.0236881552
H   H55       1.0  0.78330  0.00000  0.61440  1.0000 0.1332363035
H   H56       1.0  0.72130  0.00000  0.67620  1.0000 0.27894599
N   N28       1.0  0.81580  0.00000  0.74590  1.0000 -0.2371562436
O   O53       1.0  0.36360  0.50000  0.42160  1.0000 -0.5634275755
C   C57       1.0  0.25410  0.50000  0.31580  1.0000 -0.2868386113
C   C58       1.0  0.29170  0.50000  0.35290  1.0000 0.0236881552
H   H57       1.0  0.28330  0.50000  0.38560  1.0000 0.1332363035
H   H58       1.0  0.22130  0.50000  0.32380  1.0000 0.27894599
N   N29       1.0  0.31580  0.50000  0.25410  1.0000 -0.2371562436
O   O54       1.0  0.36360  0.00000  0.92160  1.0000 -0.5652557015
C   C59       1.0  0.25410  0.00000  0.81580  1.0000 -0.2868386113
C   C60       1.0  0.29170  0.00000  0.85290  1.0000 0.0236881552
H   H59       1.0  0.28330  0.00000  0.88560  1.0000 0.1332363035
H   H60       1.0  0.22130  0.00000  0.82380  1.0000 0.27894599
N   N30       1.0  0.31580  0.00000  0.75410  1.0000 -0.2371562436
O   O55       1.0  0.86360  0.50000  0.92160  1.0000 -0.5634275755
C   C61       1.0  0.75410  0.50000  0.81580  1.0000 -0.2868386113
C   C62       1.0  0.79170  0.50000  0.85290  1.0000 0.0236881552
H   H61       1.0  0.78330  0.50000  0.88560  1.0000 0.1332363035
H   H62       1.0  0.72130  0.50000  0.82380  1.0000 0.27894599
N   N31       1.0  0.81580  0.50000  0.75410  1.0000 -0.2371562436
O   O56       1.0  0.86360  0.00000  0.42160  1.0000 -0.5634275755
C   C63       1.0  0.75410  0.00000  0.31580  1.0000 -0.2868386113
C   C64       1.0  0.79170  0.00000  0.35290  1.0000 0.0236881552
H   H63       1.0  0.78330  0.00000  0.38560  1.0000 0.1332363035
H   H64       1.0  0.72130  0.00000  0.32380  1.0000 0.27894599
N   N32       1.0  0.81580  0.00000  0.25410  1.0000 -0.2371562436
O   O57       1.0  0.57840  0.63640  0.50000  1.0000 -0.5634275755
C   C65       1.0  0.68420  0.74590  0.50000  1.0000 -0.2868386113
C   C66       1.0  0.64710  0.70830  0.50000  1.0000 0.0236881552
H   H65       1.0  0.61440  0.71670  0.50000  1.0000 0.1332363035
H   H66       1.0  0.67620  0.77870  0.50000  1.0000 0.27894599
N   N33       1.0  0.74590  0.68420  0.50000  1.0000 -0.2371562436
O   O58       1.0  0.57840  0.13640  0.00000  1.0000 -0.5634275755
C   C67       1.0  0.68420  0.24590  0.00000  1.0000 -0.2868386113
C   C68       1.0  0.64710  0.20830  0.00000  1.0000 0.0236881552
H   H67       1.0  0.61440  0.21670  0.00000  1.0000 0.1332363035
H   H68       1.0  0.67620  0.27870  0.00000  1.0000 0.27894599
N   N34       1.0  0.74590  0.18420  0.00000  1.0000 -0.2371562436
O   O59       1.0  0.07840  0.63640  0.00000  1.0000 -0.5634275755
C   C69       1.0  0.18420  0.74590  0.00000  1.0000 -0.2868386113
C   C70       1.0  0.14710  0.70830  0.00000  1.0000 0.0236881552
H   H69       1.0  0.11440  0.71670  0.00000  1.0000 0.1332363035
H   H70       1.0  0.17620  0.77870  0.00000  1.0000 0.27894599
N   N35       1.0  0.24590  0.68420  0.00000  1.0000 -0.2371562436
O   O60       1.0  0.07840  0.13640  0.50000  1.0000 -0.5634275755
C   C71       1.0  0.18420  0.24590  0.50000  1.0000 -0.2868386113
C   C72       1.0  0.14710  0.20830  0.50000  1.0000 0.0236881552
H   H71       1.0  0.11440  0.21670  0.50000  1.0000 0.1332363035
H   H72       1.0  0.17620  0.27870  0.50000  1.0000 0.27894599
N   N36       1.0  0.24590  0.18420  0.50000  1.0000 -0.2371562436
O   O61       1.0  0.42160  0.63640  0.50000  1.0000 -0.5634275755
C   C73       1.0  0.31580  0.74590  0.50000  1.0000 -0.2868386113
C   C74       1.0  0.35290  0.70830  0.50000  1.0000 0.0236881552
H   H73       1.0  0.38560  0.71670  0.50000  1.0000 0.1332363035
H   H74       1.0  0.32380  0.77870  0.50000  1.0000 0.27894599
N   N37       1.0  0.25410  0.68420  0.50000  1.0000 -0.2371562436
O   O62       1.0  0.42160  0.13640  0.00000  1.0000 -0.5634275755
C   C75       1.0  0.31580  0.24590  0.00000  1.0000 -0.2868386113
C   C76       1.0  0.35290  0.20830  0.00000  1.0000 0.0236881552
H   H75       1.0  0.38560  0.21670  0.00000  1.0000 0.1332363035
H   H76       1.0  0.32380  0.27870  0.00000  1.0000 0.27894599
N   N38       1.0  0.25410  0.18420  0.00000  1.0000 -0.2371562436
O   O63       1.0  0.92160  0.63640  0.00000  1.0000 -0.5634275755
C   C77       1.0  0.81580  0.74590  0.00000  1.0000 -0.2868386113
C   C78       1.0  0.85290  0.70830  0.00000  1.0000 0.0236881552
H   H77       1.0  0.88560  0.71670  0.00000  1.0000 0.1332363035
H   H78       1.0  0.82380  0.77870  0.00000  1.0000 0.27894599
N   N39       1.0  0.75410  0.68420  0.00000  1.0000 -0.2371562436
O   O64       1.0  0.92160  0.13640  0.50000  1.0000 -0.5634275755
C   C79       1.0  0.81580  0.24590  0.50000  1.0000 -0.2868386113
C   C80       1.0  0.85290  0.20830  0.50000  1.0000 0.0236881552
H   H79       1.0  0.88560  0.21670  0.50000  1.0000 0.1332363035
H   H80       1.0  0.82380  0.27870  0.50000  1.0000 0.27894599
N   N40       1.0  0.75410  0.18420  0.50000  1.0000 -0.2371562436
O   O65       1.0  0.57840  0.36360  0.50000  1.0000 -0.5634275755
C   C81       1.0  0.68420  0.25410  0.50000  1.0000 -0.2868386113
C   C82       1.0  0.64710  0.29170  0.50000  1.0000 0.0236881552
H   H81       1.0  0.61440  0.28330  0.50000  1.0000 0.1332363035
H   H82       1.0  0.67620  0.22130  0.50000  1.0000 0.27894599
N   N41       1.0  0.74590  0.31580  0.50000  1.0000 -0.2371562436
O   O66       1.0  0.57840  0.86360  0.00000  1.0000 -0.5634275755
C   C83       1.0  0.68420  0.75410  0.00000  1.0000 -0.2868386113
C   C84       1.0  0.64710  0.79170  0.00000  1.0000 0.0236881552
H   H83       1.0  0.61440  0.78330  0.00000  1.0000 0.1332363035
H   H84       1.0  0.67620  0.72130  0.00000  1.0000 0.27894599
N   N42       1.0  0.74590  0.81580  0.00000  1.0000 -0.2371562436
O   O67       1.0  0.07840  0.36360  0.00000  1.0000 -0.5634275755
C   C85       1.0  0.18420  0.25410  0.00000  1.0000 -0.2868386113
C   C86       1.0  0.14710  0.29170  0.00000  1.0000 0.0236881552
H   H85       1.0  0.11440  0.28330  0.00000  1.0000 0.1332363035
H   H86       1.0  0.17620  0.22130  0.00000  1.0000 0.27894599
N   N43       1.0  0.24590  0.31580  0.00000  1.0000 -0.2371562436
O   O68       1.0  0.07840  0.86360  0.50000  1.0000 -0.5634275755
C   C87       1.0  0.18420  0.75410  0.50000  1.0000 -0.2868386113
C   C88       1.0  0.14710  0.79170  0.50000  1.0000 0.0236881552
H   H87       1.0  0.11440  0.78330  0.50000  1.0000 0.1332363035
H   H88       1.0  0.17620  0.72130  0.50000  1.0000 0.27894599
N   N44       1.0  0.24590  0.81580  0.50000  1.0000 -0.2371562436
O   O69       1.0  0.42160  0.36360  0.50000  1.0000 -0.5634275755
C   C89       1.0  0.31580  0.25410  0.50000  1.0000 -0.2868386113
C   C90       1.0  0.35290  0.29170  0.50000  1.0000 0.0236881552
H   H89       1.0  0.38560  0.28330  0.50000  1.0000 0.1332363035
H   H90       1.0  0.32380  0.22130  0.50000  1.0000 0.27894599
N   N45       1.0  0.25410  0.31580  0.50000  1.0000 -0.2371562436
O   O70       1.0  0.42160  0.86360  0.00000  1.0000 -0.5634275755
C   C91       1.0  0.31580  0.75410  0.00000  1.0000 -0.2868386113
C   C92       1.0  0.35290  0.79170  0.00000  1.0000 0.0236881552
H   H91       1.0  0.38560  0.78330  0.00000  1.0000 0.1332363035
H   H92       1.0  0.32380  0.72130  0.00000  1.0000 0.27894599
N   N46       1.0  0.25410  0.81580  0.00000  1.0000 -0.2371562436
O   O71       1.0  0.92160  0.36360  0.00000  1.0000 -0.5634275755
C   C93       1.0  0.81580  0.25410  0.00000  1.0000 -0.2868386113
C   C94       1.0  0.85290  0.29170  0.00000  1.0000 0.0236881552
H   H93       1.0  0.88560  0.28330  0.00000  1.0000 0.1332363035
H   H94       1.0  0.82380  0.22130  0.00000  1.0000 0.27894599
N   N47       1.0  0.75410  0.31580  0.00000  1.0000 -0.2371562436
O   O72       1.0  0.92160  0.86360  0.50000  1.0000 -0.5634275755
C   C95       1.0  0.81580  0.75410  0.50000  1.0000 -0.2868386113
C   C96       1.0  0.85290  0.79170  0.50000  1.0000 0.0236881552
H   H95       1.0  0.88560  0.78330  0.50000  1.0000 0.1332363035
H   H96       1.0  0.82380  0.72130  0.50000  1.0000 0.27894599
N   N48       1.0  0.75410  0.81580  0.50000  1.0000 -0.2371562436
O   O73       1.0  0.57840  0.50000  0.36360  1.0000 -0.5634275755
C   C97       1.0  0.64710  0.50000  0.29170  1.0000 -0.048545817
H   H97       1.0  0.61440  0.50000  0.28330  1.0000 0.1350694449
H   H98       1.0  0.67620  0.50000  0.22130  1.0000 0.1210142794
O   O74       1.0  0.57840  0.00000  0.86360  1.0000 -0.5634275755
C   C98       1.0  0.64710  0.00000  0.79170  1.0000 -0.048545817
H   H99       1.0  0.61440  0.00000  0.78330  1.0000 0.1350694449
H   H100      1.0  0.67620  0.00000  0.72130  1.0000 0.1210142794
O   O75       1.0  0.07840  0.50000  0.86360  1.0000 -0.5634275755
C   C99       1.0  0.14710  0.50000  0.79170  1.0000 -0.048545817
H   H101      1.0  0.11440  0.50000  0.78330  1.0000 0.1350694449
H   H102      1.0  0.17620  0.50000  0.72130  1.0000 0.1210142794
O   O76       1.0  0.07840  0.00000  0.36360  1.0000 -0.5634275755
C   C100      1.0  0.14710  0.00000  0.29170  1.0000 -0.048545817
H   H103      1.0  0.11440  0.00000  0.28330  1.0000 0.1332363035
H   H104      1.0  0.17620  0.00000  0.22130  1.0000 0.1210142794
O   O77       1.0  0.42160  0.50000  0.36360  1.0000 -0.5634275755
C   C101      1.0  0.35290  0.50000  0.29170  1.0000 -0.048545817
H   H105      1.0  0.38560  0.50000  0.28330  1.0000 0.1350694449
H   H106      1.0  0.32380  0.50000  0.22130  1.0000 0.1210142794
O   O78       1.0  0.42160  0.00000  0.86360  1.0000 -0.5634275755
C   C102      1.0  0.35290  0.00000  0.79170  1.0000 -0.048545817
H   H107      1.0  0.38560  0.00000  0.78330  1.0000 0.1350694449
H   H108      1.0  0.32380  0.00000  0.72130  1.0000 0.1210142794
O   O79       1.0  0.92160  0.50000  0.86360  1.0000 -0.5634275755
C   C103      1.0  0.85290  0.50000  0.79170  1.0000 -0.048545817
H   H109      1.0  0.88560  0.50000  0.78330  1.0000 0.1350694449
H   H110      1.0  0.82380  0.50000  0.72130  1.0000 0.1210142794
O   O80       1.0  0.92160  0.00000  0.36360  1.0000 -0.5634275755
C   C104      1.0  0.85290  0.00000  0.29170  1.0000 -0.048545817
H   H111      1.0  0.88560  0.00000  0.28330  1.0000 0.1350694449
H   H112      1.0  0.82380  0.00000  0.22130  1.0000 0.1210142794
O   O81       1.0  0.57840  0.50000  0.63640  1.0000 -0.5634275755
C   C105      1.0  0.64710  0.50000  0.70830  1.0000 -0.048545817
H   H113      1.0  0.61440  0.50000  0.71670  1.0000 0.1350694449
H   H114      1.0  0.67620  0.50000  0.77870  1.0000 0.1210142794
O   O82       1.0  0.57840  0.00000  0.13640  1.0000 -0.5634275755
C   C106      1.0  0.64710  0.00000  0.20830  1.0000 -0.048545817
H   H115      1.0  0.61440  0.00000  0.21670  1.0000 0.1350694449
H   H116      1.0  0.67620  0.00000  0.27870  1.0000 0.1210142794
O   O83       1.0  0.07840  0.50000  0.13640  1.0000 -0.5634275755
C   C107      1.0  0.14710  0.50000  0.20830  1.0000 -0.048545817
H   H117      1.0  0.11440  0.50000  0.21670  1.0000 0.1350694449
H   H118      1.0  0.17620  0.50000  0.27870  1.0000 0.1210142794
O   O84       1.0  0.07840  0.00000  0.63640  1.0000 -0.5634275755
C   C108      1.0  0.14710  0.00000  0.70830  1.0000 -0.048545817
H   H119      1.0  0.11440  0.00000  0.71670  1.0000 0.1332363035
H   H120      1.0  0.17620  0.00000  0.77870  1.0000 0.1210142794
O   O85       1.0  0.42160  0.50000  0.63640  1.0000 -0.5634275755
C   C109      1.0  0.35290  0.50000  0.70830  1.0000 -0.048545817
H   H121      1.0  0.38560  0.50000  0.71670  1.0000 0.1350694449
H   H122      1.0  0.32380  0.50000  0.77870  1.0000 0.1210142794
O   O86       1.0  0.42160  0.00000  0.13640  1.0000 -0.5634275755
C   C110      1.0  0.35290  0.00000  0.20830  1.0000 -0.048545817
H   H123      1.0  0.38560  0.00000  0.21670  1.0000 0.1332363035
H   H124      1.0  0.32380  0.00000  0.27870  1.0000 0.1210142794
O   O87       1.0  0.92160  0.50000  0.13640  1.0000 -0.5634275755
C   C111      1.0  0.85290  0.50000  0.20830  1.0000 -0.048545817
H   H125      1.0  0.88560  0.50000  0.21670  1.0000 0.1350694449
H   H126      1.0  0.82380  0.50000  0.27870  1.0000 0.1210142794
O   O88       1.0  0.92160  0.00000  0.63640  1.0000 -0.5634275755
C   C112      1.0  0.85290  0.00000  0.70830  1.0000 -0.048545817
H   H127      1.0  0.88560  0.00000  0.71670  1.0000 0.1350694449
H   H128      1.0  0.82380  0.00000  0.77870  1.0000 0.1210142794
O   O89       1.0  0.50000  0.63640  0.42160  1.0000 -0.5634275755
C   C113      1.0  0.50000  0.70830  0.35290  1.0000 -0.048545817
H   H129      1.0  0.50000  0.71670  0.38560  1.0000 0.1350694449
H   H130      1.0  0.50000  0.77870  0.32380  1.0000 0.1210142794
O   O90       1.0  0.50000  0.13640  0.92160  1.0000 -0.5634275755
C   C114      1.0  0.50000  0.20830  0.85290  1.0000 -0.048545817
H   H131      1.0  0.50000  0.21670  0.88560  1.0000 0.1350694449
H   H132      1.0  0.50000  0.27870  0.82380  1.0000 0.1210142794
O   O91       1.0  0.00000  0.63640  0.92160  1.0000 -0.5634275755
C   C115      1.0  0.00000  0.70830  0.85290  1.0000 -0.048545817
H   H133      1.0  0.00000  0.71670  0.88560  1.0000 0.1350694449
H   H134      1.0  0.00000  0.77870  0.82380  1.0000 0.1210142794
O   O92       1.0  0.00000  0.13640  0.42160  1.0000 -0.5634275755
C   C116      1.0  0.00000  0.20830  0.35290  1.0000 -0.048545817
H   H135      1.0  0.00000  0.21670  0.38560  1.0000 0.1332363035
H   H136      1.0  0.00000  0.27870  0.32380  1.0000 0.1210142794
O   O93       1.0  0.50000  0.63640  0.57840  1.0000 -0.5634275755
C   C117      1.0  0.50000  0.70830  0.64710  1.0000 -0.048545817
H   H137      1.0  0.50000  0.71670  0.61440  1.0000 0.1350694449
H   H138      1.0  0.50000  0.77870  0.67620  1.0000 0.1210142794
O   O94       1.0  0.50000  0.13640  0.07840  1.0000 -0.5634275755
C   C118      1.0  0.50000  0.20830  0.14710  1.0000 -0.048545817
H   H139      1.0  0.50000  0.21670  0.11440  1.0000 0.1350694449
H   H140      1.0  0.50000  0.27870  0.17620  1.0000 0.1210142794
O   O95       1.0  0.00000  0.63640  0.07840  1.0000 -0.5634275755
C   C119      1.0  0.00000  0.70830  0.14710  1.0000 -0.048545817
H   H141      1.0  0.00000  0.71670  0.11440  1.0000 0.1350694449
H   H142      1.0  0.00000  0.77870  0.17620  1.0000 0.1210142794
O   O96       1.0  0.00000  0.13640  0.57840  1.0000 -0.5634275755
C   C120      1.0  0.00000  0.20830  0.64710  1.0000 -0.048545817
H   H143      1.0  0.00000  0.21670  0.61440  1.0000 0.1332363035
H   H144      1.0  0.00000  0.27870  0.67620  1.0000 0.1210142794
O   O97       1.0  0.50000  0.36360  0.42160  1.0000 -0.5634275755
C   C121      1.0  0.50000  0.29170  0.35290  1.0000 -0.048545817
H   H145      1.0  0.50000  0.28330  0.38560  1.0000 0.1350694449
H   H146      1.0  0.50000  0.22130  0.32380  1.0000 0.1210142794
O   O98       1.0  0.50000  0.86360  0.92160  1.0000 -0.5634275755
C   C122      1.0  0.50000  0.79170  0.85290  1.0000 -0.048545817
H   H147      1.0  0.50000  0.78330  0.88560  1.0000 0.1350694449
H   H148      1.0  0.50000  0.72130  0.82380  1.0000 0.1210142794
O   O99       1.0  0.00000  0.36360  0.92160  1.0000 -0.5634275755
C   C123      1.0  0.00000  0.29170  0.85290  1.0000 -0.048545817
H   H149      1.0  0.00000  0.28330  0.88560  1.0000 0.1332363035
H   H150      1.0  0.00000  0.22130  0.82380  1.0000 0.1210142794
O   O100      1.0  0.00000  0.86360  0.42160  1.0000 -0.5634275755
C   C124      1.0  0.00000  0.79170  0.35290  1.0000 -0.048545817
H   H151      1.0  0.00000  0.78330  0.38560  1.0000 0.1350694449
H   H152      1.0  0.00000  0.72130  0.32380  1.0000 0.1210142794
O   O101      1.0  0.50000  0.36360  0.57840  1.0000 -0.5634275755
C   C125      1.0  0.50000  0.29170  0.64710  1.0000 -0.048545817
H   H153      1.0  0.50000  0.28330  0.61440  1.0000 0.1350694449
H   H154      1.0  0.50000  0.22130  0.67620  1.0000 0.1210142794
O   O102      1.0  0.50000  0.86360  0.07840  1.0000 -0.5634275755
C   C126      1.0  0.50000  0.79170  0.14710  1.0000 -0.048545817
H   H155      1.0  0.50000  0.78330  0.11440  1.0000 0.1350694449
H   H156      1.0  0.50000  0.72130  0.17620  1.0000 0.1210142794
O   O103      1.0  0.00000  0.36360  0.07840  1.0000 -0.5634275755
C   C127      1.0  0.00000  0.29170  0.14710  1.0000 -0.048545817
H   H157      1.0  0.00000  0.28330  0.11440  1.0000 0.1332363035
H   H158      1.0  0.00000  0.22130  0.17620  1.0000 0.1210142794
O   O104      1.0  0.00000  0.86360  0.57840  1.0000 -0.5634275755
C   C128      1.0  0.00000  0.79170  0.64710  1.0000 -0.048545817
H   H159      1.0  0.00000  0.78330  0.61440  1.0000 0.1350694449
H   H160      1.0  0.00000  0.72130  0.67620  1.0000 0.1210142794
O   O105      1.0  0.63640  0.57840  0.50000  1.0000 -0.5634275755
C   C129      1.0  0.70830  0.64710  0.50000  1.0000 -0.048545817
H   H161      1.0  0.71670  0.61440  0.50000  1.0000 0.1350694449
H   H162      1.0  0.77870  0.67620  0.50000  1.0000 0.1210142794
O   O106      1.0  0.63640  0.07840  0.00000  1.0000 -0.5634275755
C   C130      1.0  0.70830  0.14710  0.00000  1.0000 -0.048545817
H   H163      1.0  0.71670  0.11440  0.00000  1.0000 0.1350694449
H   H164      1.0  0.77870  0.17620  0.00000  1.0000 0.1210142794
O   O107      1.0  0.13640  0.57840  0.00000  1.0000 -0.5634275755
C   C131      1.0  0.20830  0.64710  0.00000  1.0000 -0.048545817
H   H165      1.0  0.21670  0.61440  0.00000  1.0000 0.1350694449
H   H166      1.0  0.27870  0.67620  0.00000  1.0000 0.1210142794
O   O108      1.0  0.13640  0.07840  0.50000  1.0000 -0.5634275755
C   C132      1.0  0.20830  0.14710  0.50000  1.0000 -0.048545817
H   H167      1.0  0.21670  0.11440  0.50000  1.0000 0.1350694449
H   H168      1.0  0.27870  0.17620  0.50000  1.0000 0.1210142794
O   O109      1.0  0.63640  0.42160  0.50000  1.0000 -0.5634275755
C   C133      1.0  0.70830  0.35290  0.50000  1.0000 -0.048545817
H   H169      1.0  0.71670  0.38560  0.50000  1.0000 0.1350694449
H   H170      1.0  0.77870  0.32380  0.50000  1.0000 0.1210142794
O   O110      1.0  0.63640  0.92160  0.00000  1.0000 -0.5634275755
C   C134      1.0  0.70830  0.85290  0.00000  1.0000 -0.048545817
H   H171      1.0  0.71670  0.88560  0.00000  1.0000 0.1350694449
H   H172      1.0  0.77870  0.82380  0.00000  1.0000 0.1210142794
O   O111      1.0  0.13640  0.42160  0.00000  1.0000 -0.5634275755
C   C135      1.0  0.20830  0.35290  0.00000  1.0000 -0.048545817
H   H173      1.0  0.21670  0.38560  0.00000  1.0000 0.1350694449
H   H174      1.0  0.27870  0.32380  0.00000  1.0000 0.1210142794
O   O112      1.0  0.13640  0.92160  0.50000  1.0000 -0.5634275755
C   C136      1.0  0.20830  0.85290  0.50000  1.0000 -0.048545817
H   H175      1.0  0.21670  0.88560  0.50000  1.0000 0.1350694449
H   H176      1.0  0.27870  0.82380  0.50000  1.0000 0.1210142794
O   O113      1.0  0.36360  0.57840  0.50000  1.0000 -0.5634275755
C   C137      1.0  0.29170  0.64710  0.50000  1.0000 -0.048545817
H   H177      1.0  0.28330  0.61440  0.50000  1.0000 0.1350694449
H   H178      1.0  0.22130  0.67620  0.50000  1.0000 0.1210142794
O   O114      1.0  0.36360  0.07840  0.00000  1.0000 -0.5634275755
C   C138      1.0  0.29170  0.14710  0.00000  1.0000 -0.048545817
H   H179      1.0  0.28330  0.11440  0.00000  1.0000 0.1350694449
H   H180      1.0  0.22130  0.17620  0.00000  1.0000 0.1210142794
O   O115      1.0  0.86360  0.57840  0.00000  1.0000 -0.5634275755
C   C139      1.0  0.79170  0.64710  0.00000  1.0000 -0.048545817
H   H181      1.0  0.78330  0.61440  0.00000  1.0000 0.1350694449
H   H182      1.0  0.72130  0.67620  0.00000  1.0000 0.1210142794
O   O116      1.0  0.86360  0.07840  0.50000  1.0000 -0.5634275755
C   C140      1.0  0.79170  0.14710  0.50000  1.0000 -0.048545817
H   H183      1.0  0.78330  0.11440  0.50000  1.0000 0.1350694449
H   H184      1.0  0.72130  0.17620  0.50000  1.0000 0.1210142794
O   O117      1.0  0.36360  0.42160  0.50000  1.0000 -0.5634275755
C   C141      1.0  0.29170  0.35290  0.50000  1.0000 -0.048545817
H   H185      1.0  0.28330  0.38560  0.50000  1.0000 0.1350694449
H   H186      1.0  0.22130  0.32380  0.50000  1.0000 0.1210142794
O   O118      1.0  0.36360  0.92160  0.00000  1.0000 -0.5634275755
C   C142      1.0  0.29170  0.85290  0.00000  1.0000 -0.048545817
H   H187      1.0  0.28330  0.88560  0.00000  1.0000 0.1350694449
H   H188      1.0  0.22130  0.82380  0.00000  1.0000 0.1210142794
O   O119      1.0  0.86360  0.42160  0.00000  1.0000 -0.5634275755
C   C143      1.0  0.79170  0.35290  0.00000  1.0000 -0.048545817
H   H189      1.0  0.78330  0.38560  0.00000  1.0000 0.1350694449
H   H190      1.0  0.72130  0.32380  0.00000  1.0000 0.1210142794
O   O120      1.0  0.86360  0.92160  0.50000  1.0000 -0.5634275755
C   C144      1.0  0.79170  0.85290  0.50000  1.0000 -0.048545817
H   H191      1.0  0.78330  0.88560  0.50000  1.0000 0.1350694449
H   H192      1.0  0.72130  0.82380  0.50000  1.0000 0.1210142794
O   O121      1.0  0.45330  0.45330  0.54670  1.0000 -0.952330308
O   O122      1.0  0.45330  0.95330  0.04670  1.0000 -0.952330308
O   O123      1.0  0.95330  0.45330  0.04670  1.0000 -0.952330308
O   O124      1.0  0.95330  0.95330  0.54670  1.0000 -0.952330308
O   O125      1.0  0.54670  0.54670  0.54670  1.0000 -0.952330308
O   O126      1.0  0.54670  0.04670  0.04670  1.0000 -0.952330308
O   O127      1.0  0.04670  0.54670  0.04670  1.0000 -0.952330308
O   O128      1.0  0.04670  0.04670  0.54670  1.0000 -0.952330308
O   O129      1.0  0.54670  0.45330  0.45330  1.0000 -0.952330308
O   O130      1.0  0.54670  0.95330  0.95330  1.0000 -0.952330308
O   O131      1.0  0.04670  0.45330  0.95330  1.0000 -0.952330308
O   O132      1.0  0.04670  0.95330  0.45330  1.0000 -0.952330308
O   O133      1.0  0.45330  0.54670  0.45330  1.0000 -0.952330308
O   O134      1.0  0.45330  0.04670  0.95330  1.0000 -0.952330308
O   O135      1.0  0.95330  0.54670  0.95330  1.0000 -0.952330308
O   O136      1.0  0.95330  0.04670  0.45330  1.0000 -0.952330308
O   O137      1.0  0.45330  0.45330  0.45330  1.0000 -0.952330308
O   O138      1.0  0.45330  0.95330  0.95330  1.0000 -0.952330308
O   O139      1.0  0.95330  0.45330  0.95330  1.0000 -0.952330308
O   O140      1.0  0.95330  0.95330  0.45330  1.0000 -0.952330308
O   O141      1.0  0.54670  0.54670  0.45330  1.0000 -0.952330308
O   O142      1.0  0.54670  0.04670  0.95330  1.0000 -0.952330308
O   O143      1.0  0.04670  0.54670  0.95330  1.0000 -0.952330308
O   O144      1.0  0.04670  0.04670  0.45330  1.0000 -0.952330308
O   O145      1.0  0.45330  0.54670  0.54670  1.0000 -0.952330308
O   O146      1.0  0.45330  0.04670  0.04670  1.0000 -0.952330308
O   O147      1.0  0.95330  0.54670  0.04670  1.0000 -0.952330308
O   O148      1.0  0.95330  0.04670  0.54670  1.0000 -0.952330308
O   O149      1.0  0.54670  0.45330  0.54670  1.0000 -0.952330308
O   O150      1.0  0.54670  0.95330  0.04670  1.0000 -0.952330308
O   O151      1.0  0.04670  0.45330  0.04670  1.0000 -0.952330308
O   O152      1.0  0.04670  0.95330  0.54670  1.0000 -0.952330308
C   C145      1.0  0.50000  0.62010  0.62010  1.0000 0.633814145
C   C146      1.0  0.50000  0.66060  0.66060  1.0000 -0.1045077547
C   C147      1.0  0.50000  0.73060  0.73060  1.0000 0.1665762664
C   C148      1.0  0.50000  0.12010  0.12010  1.0000 0.633814145
C   C149      1.0  0.50000  0.16060  0.16060  1.0000 -0.1045077547
C   C150      1.0  0.50000  0.23060  0.23060  1.0000 0.1665762664
C   C151      1.0  0.00000  0.62010  0.12010  1.0000 0.633814145
C   C152      1.0  0.00000  0.66060  0.16060  1.0000 -0.1052966639
C   C153      1.0  0.00000  0.73060  0.23060  1.0000 0.1665762664
C   C154      1.0  0.00000  0.12010  0.62010  1.0000 0.633814145
C   C155      1.0  0.00000  0.16060  0.66060  1.0000 -0.1045077547
C   C156      1.0  0.00000  0.23060  0.73060  1.0000 0.1665762664
C   C157      1.0  0.50000  0.37990  0.62010  1.0000 0.633814145
C   C158      1.0  0.50000  0.33940  0.66060  1.0000 -0.1045077547
C   C159      1.0  0.50000  0.26940  0.73060  1.0000 0.1665762664
C   C160      1.0  0.50000  0.87990  0.12010  1.0000 0.633814145
C   C161      1.0  0.50000  0.83940  0.16060  1.0000 -0.1045077547
C   C162      1.0  0.50000  0.76940  0.23060  1.0000 0.1665762664
C   C163      1.0  0.00000  0.37990  0.12010  1.0000 0.633814145
C   C164      1.0  0.00000  0.33940  0.16060  1.0000 -0.1052966639
C   C165      1.0  0.00000  0.26940  0.23060  1.0000 0.1665762664
C   C166      1.0  0.00000  0.87990  0.62010  1.0000 0.633814145
C   C167      1.0  0.00000  0.83940  0.66060  1.0000 -0.1045077547
C   C168      1.0  0.00000  0.76940  0.73060  1.0000 0.1665762664
C   C169      1.0  0.50000  0.62010  0.37990  1.0000 0.633814145
C   C170      1.0  0.50000  0.66060  0.33940  1.0000 -0.1045077547
C   C171      1.0  0.50000  0.73060  0.26940  1.0000 0.1665762664
C   C172      1.0  0.50000  0.12010  0.87990  1.0000 0.633814145
C   C173      1.0  0.50000  0.16060  0.83940  1.0000 -0.1045077547
C   C174      1.0  0.50000  0.23060  0.76940  1.0000 0.1665762664
C   C175      1.0  0.00000  0.62010  0.87990  1.0000 0.633814145
C   C176      1.0  0.00000  0.66060  0.83940  1.0000 -0.1045077547
C   C177      1.0  0.00000  0.73060  0.76940  1.0000 0.1665762664
C   C178      1.0  0.00000  0.12010  0.37990  1.0000 0.633814145
C   C179      1.0  0.00000  0.16060  0.33940  1.0000 -0.1045077547
C   C180      1.0  0.00000  0.23060  0.26940  1.0000 0.1665762664
C   C181      1.0  0.50000  0.37990  0.37990  1.0000 0.633814145
C   C182      1.0  0.50000  0.33940  0.33940  1.0000 -0.1045077547
C   C183      1.0  0.50000  0.26940  0.26940  1.0000 0.1665762664
C   C184      1.0  0.50000  0.87990  0.87990  1.0000 0.633814145
C   C185      1.0  0.50000  0.83940  0.83940  1.0000 -0.1045077547
C   C186      1.0  0.50000  0.76940  0.76940  1.0000 0.1665762664
C   C187      1.0  0.00000  0.37990  0.87990  1.0000 0.633814145
C   C188      1.0  0.00000  0.33940  0.83940  1.0000 -0.1045077547
C   C189      1.0  0.00000  0.26940  0.76940  1.0000 0.1665762664
C   C190      1.0  0.00000  0.87990  0.37990  1.0000 0.633814145
C   C191      1.0  0.00000  0.83940  0.33940  1.0000 -0.1052966639
C   C192      1.0  0.00000  0.76940  0.26940  1.0000 0.1665762664
C   C193      1.0  0.62010  0.50000  0.62010  1.0000 0.633814145
C   C194      1.0  0.66060  0.50000  0.66060  1.0000 -0.1045077547
C   C195      1.0  0.73060  0.50000  0.73060  1.0000 0.1665762664
C   C196      1.0  0.62010  0.00000  0.12010  1.0000 0.633814145
C   C197      1.0  0.66060  0.00000  0.16060  1.0000 -0.1045077547
C   C198      1.0  0.73060  0.00000  0.23060  1.0000 0.1665762664
C   C199      1.0  0.12010  0.50000  0.12010  1.0000 0.633814145
C   C200      1.0  0.16060  0.50000  0.16060  1.0000 -0.1052966639
C   C201      1.0  0.23060  0.50000  0.23060  1.0000 0.1665762664
C   C202      1.0  0.12010  0.00000  0.62010  1.0000 0.633814145
C   C203      1.0  0.16060  0.00000  0.66060  1.0000 -0.1045077547
C   C204      1.0  0.23060  0.00000  0.73060  1.0000 0.1665762664
C   C205      1.0  0.62010  0.50000  0.37990  1.0000 0.633814145
C   C206      1.0  0.66060  0.50000  0.33940  1.0000 -0.1045077547
C   C207      1.0  0.73060  0.50000  0.26940  1.0000 0.1665762664
C   C208      1.0  0.62010  0.00000  0.87990  1.0000 0.633814145
C   C209      1.0  0.66060  0.00000  0.83940  1.0000 -0.1045077547
C   C210      1.0  0.73060  0.00000  0.76940  1.0000 0.1665762664
C   C211      1.0  0.12010  0.50000  0.87990  1.0000 0.633814145
C   C212      1.0  0.16060  0.50000  0.83940  1.0000 -0.1045077547
C   C213      1.0  0.23060  0.50000  0.76940  1.0000 0.1665762664
C   C214      1.0  0.12010  0.00000  0.37990  1.0000 0.633814145
C   C215      1.0  0.16060  0.00000  0.33940  1.0000 -0.1045077547
C   C216      1.0  0.23060  0.00000  0.26940  1.0000 0.1665762664
C   C217      1.0  0.37990  0.50000  0.62010  1.0000 0.633814145
C   C218      1.0  0.33940  0.50000  0.66060  1.0000 -0.1045077547
C   C219      1.0  0.26940  0.50000  0.73060  1.0000 0.1665762664
C   C220      1.0  0.37990  0.00000  0.12010  1.0000 0.633814145
C   C221      1.0  0.33940  0.00000  0.16060  1.0000 -0.1045077547
C   C222      1.0  0.26940  0.00000  0.23060  1.0000 0.1665762664
C   C223      1.0  0.87990  0.50000  0.12010  1.0000 0.633814145
C   C224      1.0  0.83940  0.50000  0.16060  1.0000 -0.1045077547
C   C225      1.0  0.76940  0.50000  0.23060  1.0000 0.1665762664
C   C226      1.0  0.87990  0.00000  0.62010  1.0000 0.633814145
C   C227      1.0  0.83940  0.00000  0.66060  1.0000 -0.1045077547
C   C228      1.0  0.76940  0.00000  0.73060  1.0000 0.1665762664
C   C229      1.0  0.37990  0.50000  0.37990  1.0000 0.633814145
C   C230      1.0  0.33940  0.50000  0.33940  1.0000 -0.1045077547
C   C231      1.0  0.26940  0.50000  0.26940  1.0000 0.1665762664
C   C232      1.0  0.37990  0.00000  0.87990  1.0000 0.633814145
C   C233      1.0  0.33940  0.00000  0.83940  1.0000 -0.1045077547
C   C234      1.0  0.26940  0.00000  0.76940  1.0000 0.1665762664
C   C235      1.0  0.87990  0.50000  0.87990  1.0000 0.633814145
C   C236      1.0  0.83940  0.50000  0.83940  1.0000 -0.1045077547
C   C237      1.0  0.76940  0.50000  0.76940  1.0000 0.1665762664
C   C238      1.0  0.87990  0.00000  0.37990  1.0000 0.633814145
C   C239      1.0  0.83940  0.00000  0.33940  1.0000 -0.1045077547
C   C240      1.0  0.76940  0.00000  0.26940  1.0000 0.1665762664
C   C241      1.0  0.62010  0.62010  0.50000  1.0000 0.633814145
C   C242      1.0  0.66060  0.66060  0.50000  1.0000 -0.1045077547
C   C243      1.0  0.73060  0.73060  0.50000  1.0000 0.1665762664
C   C244      1.0  0.62010  0.12010  0.00000  1.0000 0.633814145
C   C245      1.0  0.66060  0.16060  0.00000  1.0000 -0.1045077547
C   C246      1.0  0.73060  0.23060  0.00000  1.0000 0.1665762664
C   C247      1.0  0.12010  0.62010  0.00000  1.0000 0.633814145
C   C248      1.0  0.16060  0.66060  0.00000  1.0000 -0.1052966639
C   C249      1.0  0.23060  0.73060  0.00000  1.0000 0.1665762664
C   C250      1.0  0.12010  0.12010  0.50000  1.0000 0.633814145
C   C251      1.0  0.16060  0.16060  0.50000  1.0000 -0.1045077547
C   C252      1.0  0.23060  0.23060  0.50000  1.0000 0.1665762664
C   C253      1.0  0.37990  0.62010  0.50000  1.0000 0.633814145
C   C254      1.0  0.33940  0.66060  0.50000  1.0000 -0.1045077547
C   C255      1.0  0.26940  0.73060  0.50000  1.0000 0.1665762664
C   C256      1.0  0.37990  0.12010  0.00000  1.0000 0.633814145
C   C257      1.0  0.33940  0.16060  0.00000  1.0000 -0.1045077547
C   C258      1.0  0.26940  0.23060  0.00000  1.0000 0.1665762664
C   C259      1.0  0.87990  0.62010  0.00000  1.0000 0.633814145
C   C260      1.0  0.83940  0.66060  0.00000  1.0000 -0.1045077547
C   C261      1.0  0.76940  0.73060  0.00000  1.0000 0.1665762664
C   C262      1.0  0.87990  0.12010  0.50000  1.0000 0.633814145
C   C263      1.0  0.83940  0.16060  0.50000  1.0000 -0.1045077547
C   C264      1.0  0.76940  0.23060  0.50000  1.0000 0.1665762664
C   C265      1.0  0.62010  0.37990  0.50000  1.0000 0.633814145
C   C266      1.0  0.66060  0.33940  0.50000  1.0000 -0.1045077547
C   C267      1.0  0.73060  0.26940  0.50000  1.0000 0.1665762664
C   C268      1.0  0.62010  0.87990  0.00000  1.0000 0.633814145
C   C269      1.0  0.66060  0.83940  0.00000  1.0000 -0.1045077547
C   C270      1.0  0.73060  0.76940  0.00000  1.0000 0.1665762664
C   C271      1.0  0.12010  0.37990  0.00000  1.0000 0.633814145
C   C272      1.0  0.16060  0.33940  0.00000  1.0000 -0.1052966639
C   C273      1.0  0.23060  0.26940  0.00000  1.0000 0.1665762664
C   C274      1.0  0.12010  0.87990  0.50000  1.0000 0.633814145
C   C275      1.0  0.16060  0.83940  0.50000  1.0000 -0.1052966639
C   C276      1.0  0.23060  0.76940  0.50000  1.0000 0.1665762664
C   C277      1.0  0.37990  0.37990  0.50000  1.0000 0.633814145
C   C278      1.0  0.33940  0.33940  0.50000  1.0000 -0.1045077547
C   C279      1.0  0.26940  0.26940  0.50000  1.0000 0.1665762664
C   C280      1.0  0.37990  0.87990  0.00000  1.0000 0.633814145
C   C281      1.0  0.33940  0.83940  0.00000  1.0000 -0.1052966639
C   C282      1.0  0.26940  0.76940  0.00000  1.0000 0.1665762664
C   C283      1.0  0.87990  0.37990  0.00000  1.0000 0.633814145
C   C284      1.0  0.83940  0.33940  0.00000  1.0000 -0.1045077547
C   C285      1.0  0.76940  0.26940  0.00000  1.0000 0.1665762664
C   C286      1.0  0.87990  0.87990  0.50000  1.0000 0.633814145
C   C287      1.0  0.83940  0.83940  0.50000  1.0000 -0.1045077547
C   C288      1.0  0.76940  0.76940  0.50000  1.0000 0.1665762664
  N   N49       1.0  0.50000  0.68420  0.74590  1.0000
  C   C289      1.0  0.50000  0.74590  0.68420  1.0000
  N   N50       1.0  0.50000  0.18420  0.24590  1.0000
  C   C290      1.0  0.50000  0.24590  0.18420  1.0000
  N   N51       1.0  0.00000  0.68420  0.24590  1.0000
  C   C291      1.0  0.00000  0.74590  0.18420  1.0000
  N   N52       1.0  0.00000  0.18420  0.74590  1.0000
  C   C292      1.0  0.00000  0.24590  0.68420  1.0000
  N   N53       1.0  0.50000  0.31580  0.74590  1.0000
  C   C293      1.0  0.50000  0.25410  0.68420  1.0000
  N   N54       1.0  0.50000  0.81580  0.24590  1.0000
  C   C294      1.0  0.50000  0.75410  0.18420  1.0000
  N   N55       1.0  0.00000  0.31580  0.24590  1.0000
  C   C295      1.0  0.00000  0.25410  0.18420  1.0000
  N   N56       1.0  0.00000  0.81580  0.74590  1.0000
  C   C296      1.0  0.00000  0.75410  0.68420  1.0000
  N   N57       1.0  0.50000  0.68420  0.25410  1.0000
  C   C297      1.0  0.50000  0.74590  0.31580  1.0000
  N   N58       1.0  0.50000  0.18420  0.75410  1.0000
  C   C298      1.0  0.50000  0.24590  0.81580  1.0000
  N   N59       1.0  0.00000  0.68420  0.75410  1.0000
  C   C299      1.0  0.00000  0.74590  0.81580  1.0000
  N   N60       1.0  0.00000  0.18420  0.25410  1.0000
  C   C300      1.0  0.00000  0.24590  0.31580  1.0000
  N   N61       1.0  0.50000  0.31580  0.25410  1.0000
  C   C301      1.0  0.50000  0.25410  0.31580  1.0000
  N   N62       1.0  0.50000  0.81580  0.75410  1.0000
  C   C302      1.0  0.50000  0.75410  0.81580  1.0000
  N   N63       1.0  0.00000  0.31580  0.75410  1.0000
  C   C303      1.0  0.00000  0.25410  0.81580  1.0000
  N   N64       1.0  0.00000  0.81580  0.25410  1.0000
  C   C304      1.0  0.00000  0.75410  0.31580  1.0000
  N   N65       1.0  0.74590  0.50000  0.68420  1.0000
  C   C305      1.0  0.68420  0.50000  0.74590  1.0000
  N   N66       1.0  0.74590  0.00000  0.18420  1.0000
  C   C306      1.0  0.68420  0.00000  0.24590  1.0000
  N   N67       1.0  0.24590  0.50000  0.18420  1.0000
  C   C307      1.0  0.18420  0.50000  0.24590  1.0000
  N   N68       1.0  0.24590  0.00000  0.68420  1.0000
  C   C308      1.0  0.18420  0.00000  0.74590  1.0000
  N   N69       1.0  0.74590  0.50000  0.31580  1.0000
  C   C309      1.0  0.68420  0.50000  0.25410  1.0000
  N   N70       1.0  0.74590  0.00000  0.81580  1.0000
  C   C310      1.0  0.68420  0.00000  0.75410  1.0000
  N   N71       1.0  0.24590  0.50000  0.81580  1.0000
  C   C311      1.0  0.18420  0.50000  0.75410  1.0000
  N   N72       1.0  0.24590  0.00000  0.31580  1.0000
  C   C312      1.0  0.18420  0.00000  0.25410  1.0000
  N   N73       1.0  0.25410  0.50000  0.68420  1.0000
  C   C313      1.0  0.31580  0.50000  0.74590  1.0000
  N   N74       1.0  0.25410  0.00000  0.18420  1.0000
  C   C314      1.0  0.31580  0.00000  0.24590  1.0000
  N   N75       1.0  0.75410  0.50000  0.18420  1.0000
  C   C315      1.0  0.81580  0.50000  0.24590  1.0000
  N   N76       1.0  0.75410  0.00000  0.68420  1.0000
  C   C316      1.0  0.81580  0.00000  0.74590  1.0000
  N   N77       1.0  0.25410  0.50000  0.31580  1.0000
  C   C317      1.0  0.31580  0.50000  0.25410  1.0000
  N   N78       1.0  0.25410  0.00000  0.81580  1.0000
  C   C318      1.0  0.31580  0.00000  0.75410  1.0000
  N   N79       1.0  0.75410  0.50000  0.81580  1.0000
  C   C319      1.0  0.81580  0.50000  0.75410  1.0000
  N   N80       1.0  0.75410  0.00000  0.31580  1.0000
  C   C320      1.0  0.81580  0.00000  0.25410  1.0000
  N   N81       1.0  0.68420  0.74590  0.50000  1.0000
  C   C321      1.0  0.74590  0.68420  0.50000  1.0000
  N   N82       1.0  0.68420  0.24590  0.00000  1.0000
  C   C322      1.0  0.74590  0.18420  0.00000  1.0000
  N   N83       1.0  0.18420  0.74590  0.00000  1.0000
  C   C323      1.0  0.24590  0.68420  0.00000  1.0000
  N   N84       1.0  0.18420  0.24590  0.50000  1.0000
  C   C324      1.0  0.24590  0.18420  0.50000  1.0000
  N   N85       1.0  0.31580  0.74590  0.50000  1.0000
  C   C325      1.0  0.25410  0.68420  0.50000  1.0000
  N   N86       1.0  0.31580  0.24590  0.00000  1.0000
  C   C326      1.0  0.25410  0.18420  0.00000  1.0000
  N   N87       1.0  0.81580  0.74590  0.00000  1.0000
  C   C327      1.0  0.75410  0.68420  0.00000  1.0000
  N   N88       1.0  0.81580  0.24590  0.50000  1.0000
  C   C328      1.0  0.75410  0.18420  0.50000  1.0000
  N   N89       1.0  0.68420  0.25410  0.50000  1.0000
  C   C329      1.0  0.74590  0.31580  0.50000  1.0000
  N   N90       1.0  0.68420  0.75410  0.00000  1.0000
  C   C330      1.0  0.74590  0.81580  0.00000  1.0000
  N   N91       1.0  0.18420  0.25410  0.00000  1.0000
  C   C331      1.0  0.24590  0.31580  0.00000  1.0000
  N   N92       1.0  0.18420  0.75410  0.50000  1.0000
  C   C332      1.0  0.24590  0.81580  0.50000  1.0000
  N   N93       1.0  0.31580  0.25410  0.50000  1.0000
  C   C333      1.0  0.25410  0.31580  0.50000  1.0000
  N   N94       1.0  0.31580  0.75410  0.00000  1.0000
  C   C334      1.0  0.25410  0.81580  0.00000  1.0000
  N   N95       1.0  0.81580  0.25410  0.00000  1.0000
  C   C335      1.0  0.75410  0.31580  0.00000  1.0000
  N   N96       1.0  0.81580  0.75410  0.50000  1.0000
  C   C336      1.0  0.75410  0.81580  0.50000  1.0000
