# DDEC6 charges by PACMAN v1.1 (https://github.com/mtap-research/PACMAN-charge/)
data_AQOLID_ASR_pacman
_symmetry_space_group_name_H-M   'P 1'
_cell_length_a   26.21020000
_cell_length_b   26.21020000
_cell_length_c   26.21020000
_cell_angle_alpha   60.00000000
_cell_angle_beta   60.00000000
_cell_angle_gamma   60.00000000
_symmetry_Int_Tables_number   1
_chemical_formula_structural   Co12H24C32N24Cl
_chemical_formula_sum   'Co72 H144 C192 N144 Cl6'
_cell_volume   12731.98173294
_cell_formula_units_Z   6
loop_
 _symmetry_equiv_pos_site_id
 _symmetry_equiv_pos_as_xyz
  1  'x, y, z'
loop_
 _atom_site_type_symbol
 _atom_site_label
 _atom_site_symmetry_multiplicity
 _atom_site_fract_x
 _atom_site_fract_y
 _atom_site_fract_z
 _atom_site_occupancy
 _atom_site_charge
Co  Co1  1  0.56761000  0.05987000  0.43239000  1.0 0.493455685
Co  Co2  1  0.05987000  0.56761000  0.94013000  1.0 0.493455685
Co  Co3  1  0.43239000  0.94013000  0.56761000  1.0 0.493455685
Co  Co4  1  0.94013000  0.43239000  0.05987000  1.0 0.493455685
Co  Co5  1  0.43239000  0.56761000  0.05987000  1.0 0.493455685
Co  Co6  1  0.94013000  0.05987000  0.56761000  1.0 0.493455685
Co  Co7  1  0.56761000  0.43239000  0.94013000  1.0 0.493455685
Co  Co8  1  0.05987000  0.94013000  0.43239000  1.0 0.493455685
Co  Co9  1  0.05987000  0.43239000  0.56761000  1.0 0.493455685
Co  Co10  1  0.56761000  0.94013000  0.05987000  1.0 0.493455685
Co  Co11  1  0.94013000  0.56761000  0.43239000  1.0 0.4958886952
Co  Co12  1  0.43239000  0.05987000  0.94013000  1.0 0.493455685
Co  Co13  1  0.93239000  0.44013000  0.55987000  1.0 0.4958886952
Co  Co14  1  0.44013000  0.93239000  0.06761000  1.0 0.493455685
Co  Co15  1  0.06761000  0.55987000  0.44013000  1.0 0.493455685
Co  Co16  1  0.55987000  0.06761000  0.93239000  1.0 0.493455685
Co  Co17  1  0.06761000  0.93239000  0.55987000  1.0 0.493455685
Co  Co18  1  0.55987000  0.44013000  0.06761000  1.0 0.493455685
Co  Co19  1  0.93239000  0.06761000  0.44013000  1.0 0.493455685
Co  Co20  1  0.44013000  0.55987000  0.93239000  1.0 0.493455685
Co  Co21  1  0.44013000  0.06761000  0.55987000  1.0 0.493455685
Co  Co22  1  0.93239000  0.55987000  0.06761000  1.0 0.493455685
Co  Co23  1  0.55987000  0.93239000  0.44013000  1.0 0.493455685
Co  Co24  1  0.06761000  0.44013000  0.93239000  1.0 0.493455685
Co  Co25  1  0.68838000  0.03978000  0.45682000  1.0 -0.2854263143
Co  Co26  1  0.03978000  0.68838000  0.81502000  1.0 -0.2854263143
Co  Co27  1  0.45682000  0.81502000  0.68838000  1.0 -0.2844472974
Co  Co28  1  0.81502000  0.45682000  0.03978000  1.0 -0.2854263143
Co  Co29  1  0.45682000  0.68838000  0.03978000  1.0 -0.2854263143
Co  Co30  1  0.81502000  0.03978000  0.68838000  1.0 -0.2844472974
Co  Co31  1  0.68838000  0.45682000  0.81502000  1.0 -0.2844472974
Co  Co32  1  0.03978000  0.81502000  0.45682000  1.0 -0.2854263143
Co  Co33  1  0.03978000  0.45682000  0.68838000  1.0 -0.2854263143
Co  Co34  1  0.68838000  0.81502000  0.03978000  1.0 -0.2854263143
Co  Co35  1  0.81502000  0.68838000  0.45682000  1.0 -0.2844472974
Co  Co36  1  0.45682000  0.03978000  0.81502000  1.0 -0.2844472974
Co  Co37  1  0.81162000  0.46022000  0.68498000  1.0 -0.2844472974
Co  Co38  1  0.46022000  0.81162000  0.04318000  1.0 -0.2854263143
Co  Co39  1  0.04318000  0.68498000  0.46022000  1.0 -0.2854263143
Co  Co40  1  0.68498000  0.04318000  0.81162000  1.0 -0.2844472974
Co  Co41  1  0.04318000  0.81162000  0.68498000  1.0 -0.2854263143
Co  Co42  1  0.68498000  0.46022000  0.04318000  1.0 -0.2854263143
Co  Co43  1  0.81162000  0.04318000  0.46022000  1.0 -0.2844472974
Co  Co44  1  0.46022000  0.68498000  0.81162000  1.0 -0.2844472974
Co  Co45  1  0.46022000  0.04318000  0.68498000  1.0 -0.2854263143
Co  Co46  1  0.81162000  0.68498000  0.04318000  1.0 -0.2854263143
Co  Co47  1  0.68498000  0.81162000  0.46022000  1.0 -0.2844472974
Co  Co48  1  0.04318000  0.46022000  0.81162000  1.0 -0.2844472974
Co  Co49  1  0.31162000  0.96022000  0.54318000  1.0 -0.2854263143
Co  Co50  1  0.96022000  0.31162000  0.18498000  1.0 -0.2844472974
Co  Co51  1  0.54318000  0.18498000  0.31162000  1.0 -0.2854263143
Co  Co52  1  0.18498000  0.54318000  0.96022000  1.0 -0.2854263143
Co  Co53  1  0.54318000  0.31162000  0.96022000  1.0 -0.2844472974
Co  Co54  1  0.18498000  0.96022000  0.31162000  1.0 -0.2854263143
Co  Co55  1  0.31162000  0.54318000  0.18498000  1.0 -0.2854263143
Co  Co56  1  0.96022000  0.18498000  0.54318000  1.0 -0.2844472974
Co  Co57  1  0.96022000  0.54318000  0.31162000  1.0 -0.2844472974
Co  Co58  1  0.31162000  0.18498000  0.96022000  1.0 -0.2854263143
Co  Co59  1  0.18498000  0.31162000  0.54318000  1.0 -0.2854263143
Co  Co60  1  0.54318000  0.96022000  0.18498000  1.0 -0.2854263143
Co  Co61  1  0.18838000  0.53978000  0.31502000  1.0 -0.2854263143
Co  Co62  1  0.53978000  0.18838000  0.95682000  1.0 -0.2844472974
Co  Co63  1  0.95682000  0.31502000  0.53978000  1.0 -0.2844472974
Co  Co64  1  0.31502000  0.95682000  0.18838000  1.0 -0.2854263143
Co  Co65  1  0.95682000  0.18838000  0.31502000  1.0 -0.2854263143
Co  Co66  1  0.31502000  0.53978000  0.95682000  1.0 -0.2854263143
Co  Co67  1  0.18838000  0.95682000  0.53978000  1.0 -0.2854263143
Co  Co68  1  0.53978000  0.31502000  0.18838000  1.0 -0.2854263143
Co  Co69  1  0.53978000  0.95682000  0.31502000  1.0 -0.2854263143
Co  Co70  1  0.18838000  0.31502000  0.95682000  1.0 -0.2854263143
Co  Co71  1  0.31502000  0.18838000  0.53978000  1.0 -0.2854263143
Co  Co72  1  0.95682000  0.53978000  0.18838000  1.0 -0.2854263143
H  H1  1  0.70160000  0.06380000  0.54280000  1.0 0.1058363766
H  H2  1  0.06380000  0.70160000  0.69180000  1.0 0.1058363766
H  H3  1  0.54280000  0.69180000  0.70160000  1.0 0.1058363766
H  H4  1  0.69180000  0.54280000  0.06380000  1.0 0.1058363766
H  H5  1  0.54280000  0.70160000  0.06380000  1.0 0.1058363766
H  H6  1  0.69180000  0.06380000  0.70160000  1.0 0.1058363766
H  H7  1  0.70160000  0.54280000  0.69180000  1.0 0.1058363766
H  H8  1  0.06380000  0.69180000  0.54280000  1.0 0.1058363766
H  H9  1  0.06380000  0.54280000  0.70160000  1.0 0.1058363766
H  H10  1  0.70160000  0.69180000  0.06380000  1.0 0.1058363766
H  H11  1  0.69180000  0.70160000  0.54280000  1.0 0.1058363766
H  H12  1  0.54280000  0.06380000  0.69180000  1.0 0.1058363766
H  H13  1  0.79840000  0.43620000  0.80820000  1.0 0.1058363766
H  H14  1  0.43620000  0.79840000  0.95720000  1.0 0.1058363766
H  H15  1  0.95720000  0.80820000  0.43620000  1.0 0.1058363766
H  H16  1  0.80820000  0.95720000  0.79840000  1.0 0.1058363766
H  H17  1  0.95720000  0.79840000  0.80820000  1.0 0.1058363766
H  H18  1  0.80820000  0.43620000  0.95720000  1.0 0.1058363766
H  H19  1  0.79840000  0.95720000  0.43620000  1.0 0.1058363766
H  H20  1  0.43620000  0.80820000  0.79840000  1.0 0.1058363766
H  H21  1  0.43620000  0.95720000  0.80820000  1.0 0.1058363766
H  H22  1  0.79840000  0.80820000  0.95720000  1.0 0.1058363766
H  H23  1  0.80820000  0.79840000  0.43620000  1.0 0.1058363766
H  H24  1  0.95720000  0.43620000  0.79840000  1.0 0.1058363766
H  H25  1  0.29840000  0.93620000  0.45720000  1.0 0.1058363766
H  H26  1  0.93620000  0.29840000  0.30820000  1.0 0.1058363766
H  H27  1  0.45720000  0.30820000  0.29840000  1.0 0.1058363766
H  H28  1  0.30820000  0.45720000  0.93620000  1.0 0.1058363766
H  H29  1  0.45720000  0.29840000  0.93620000  1.0 0.1058363766
H  H30  1  0.30820000  0.93620000  0.29840000  1.0 0.1058363766
H  H31  1  0.29840000  0.45720000  0.30820000  1.0 0.1058363766
H  H32  1  0.93620000  0.30820000  0.45720000  1.0 0.1058363766
H  H33  1  0.93620000  0.45720000  0.29840000  1.0 0.1058363766
H  H34  1  0.29840000  0.30820000  0.93620000  1.0 0.1058363766
H  H35  1  0.30820000  0.29840000  0.45720000  1.0 0.1058363766
H  H36  1  0.45720000  0.93620000  0.30820000  1.0 0.1058363766
H  H37  1  0.20160000  0.56380000  0.19180000  1.0 0.1058363766
H  H38  1  0.56380000  0.20160000  0.04280000  1.0 0.1058363766
H  H39  1  0.04280000  0.19180000  0.56380000  1.0 0.1058363766
H  H40  1  0.19180000  0.04280000  0.20160000  1.0 0.1058363766
H  H41  1  0.04280000  0.20160000  0.19180000  1.0 0.1058363766
H  H42  1  0.19180000  0.56380000  0.04280000  1.0 0.1058363766
H  H43  1  0.20160000  0.04280000  0.56380000  1.0 0.1058363766
H  H44  1  0.56380000  0.19180000  0.20160000  1.0 0.1058363766
H  H45  1  0.56380000  0.04280000  0.19180000  1.0 0.1058363766
H  H46  1  0.20160000  0.19180000  0.04280000  1.0 0.1058363766
H  H47  1  0.19180000  0.20160000  0.56380000  1.0 0.1058363766
H  H48  1  0.04280000  0.56380000  0.20160000  1.0 0.1058363766
H  H49  1  0.65460000  0.05940000  0.48940000  1.0 0.1385536194
H  H50  1  0.05940000  0.65460000  0.79660000  1.0 0.1385536194
H  H51  1  0.48940000  0.79660000  0.65460000  1.0 0.1385536194
H  H52  1  0.79660000  0.48940000  0.05940000  1.0 0.1385536194
H  H53  1  0.48940000  0.65460000  0.05940000  1.0 0.1385536194
H  H54  1  0.79660000  0.05940000  0.65460000  1.0 0.1385536194
H  H55  1  0.65460000  0.48940000  0.79660000  1.0 0.1385536194
H  H56  1  0.05940000  0.79660000  0.48940000  1.0 0.1385536194
H  H57  1  0.05940000  0.48940000  0.65460000  1.0 0.1385536194
H  H58  1  0.65460000  0.79660000  0.05940000  1.0 0.1385536194
H  H59  1  0.79660000  0.65460000  0.48940000  1.0 0.1385536194
H  H60  1  0.48940000  0.05940000  0.79660000  1.0 0.1385536194
H  H61  1  0.84540000  0.44060000  0.70340000  1.0 0.1385536194
H  H62  1  0.44060000  0.84540000  0.01060000  1.0 0.1385536194
H  H63  1  0.01060000  0.70340000  0.44060000  1.0 0.1385536194
H  H64  1  0.70340000  0.01060000  0.84540000  1.0 0.1385536194
H  H65  1  0.01060000  0.84540000  0.70340000  1.0 0.1385536194
H  H66  1  0.70340000  0.44060000  0.01060000  1.0 0.1385536194
H  H67  1  0.84540000  0.01060000  0.44060000  1.0 0.1385536194
H  H68  1  0.44060000  0.70340000  0.84540000  1.0 0.1385536194
H  H69  1  0.44060000  0.01060000  0.70340000  1.0 0.1385536194
H  H70  1  0.84540000  0.70340000  0.01060000  1.0 0.1385536194
H  H71  1  0.70340000  0.84540000  0.44060000  1.0 0.1385536194
H  H72  1  0.01060000  0.44060000  0.84540000  1.0 0.1385536194
H  H73  1  0.34540000  0.94060000  0.51060000  1.0 0.1385536194
H  H74  1  0.94060000  0.34540000  0.20340000  1.0 0.1385536194
H  H75  1  0.51060000  0.20340000  0.34540000  1.0 0.1385536194
H  H76  1  0.20340000  0.51060000  0.94060000  1.0 0.1385536194
H  H77  1  0.51060000  0.34540000  0.94060000  1.0 0.1385536194
H  H78  1  0.20340000  0.94060000  0.34540000  1.0 0.1385536194
H  H79  1  0.34540000  0.51060000  0.20340000  1.0 0.1385536194
H  H80  1  0.94060000  0.20340000  0.51060000  1.0 0.1385536194
H  H81  1  0.94060000  0.51060000  0.34540000  1.0 0.1385536194
H  H82  1  0.34540000  0.20340000  0.94060000  1.0 0.1385536194
H  H83  1  0.20340000  0.34540000  0.51060000  1.0 0.1385536194
H  H84  1  0.51060000  0.94060000  0.20340000  1.0 0.1385536194
H  H85  1  0.15460000  0.55940000  0.29660000  1.0 0.1385536194
H  H86  1  0.55940000  0.15460000  0.98940000  1.0 0.1385536194
H  H87  1  0.98940000  0.29660000  0.55940000  1.0 0.1385536194
H  H88  1  0.29660000  0.98940000  0.15460000  1.0 0.1385536194
H  H89  1  0.98940000  0.15460000  0.29660000  1.0 0.1385536194
H  H90  1  0.29660000  0.55940000  0.98940000  1.0 0.1385536194
H  H91  1  0.15460000  0.98940000  0.55940000  1.0 0.1385536194
H  H92  1  0.55940000  0.29660000  0.15460000  1.0 0.1385536194
H  H93  1  0.55940000  0.98940000  0.29660000  1.0 0.1385536194
H  H94  1  0.15460000  0.29660000  0.98940000  1.0 0.1385536194
H  H95  1  0.29660000  0.15460000  0.55940000  1.0 0.1385536194
H  H96  1  0.98940000  0.55940000  0.15460000  1.0 0.1385536194
H  H97  1  0.49910000  0.06790000  0.63990000  1.0 0.1749833524
H  H98  1  0.06790000  0.49910000  0.79310000  1.0 0.1757077724
H  H99  1  0.63990000  0.79310000  0.49910000  1.0 0.1757077724
H  H100  1  0.79310000  0.63990000  0.06790000  1.0 0.1757077724
H  H101  1  0.63990000  0.49910000  0.06790000  1.0 0.1757077724
H  H102  1  0.79310000  0.06790000  0.49910000  1.0 0.1749833524
H  H103  1  0.49910000  0.63990000  0.79310000  1.0 0.1757077724
H  H104  1  0.06790000  0.79310000  0.63990000  1.0 0.1757077724
H  H105  1  0.06790000  0.63990000  0.49910000  1.0 0.1757077724
H  H106  1  0.49910000  0.79310000  0.06790000  1.0 0.1757077724
H  H107  1  0.79310000  0.49910000  0.63990000  1.0 0.1757077724
H  H108  1  0.63990000  0.06790000  0.79310000  1.0 0.1749833524
H  H109  1  0.00090000  0.43210000  0.70690000  1.0 0.1757077724
H  H110  1  0.43210000  0.00090000  0.86010000  1.0 0.1749833524
H  H111  1  0.86010000  0.70690000  0.43210000  1.0 0.1757077724
H  H112  1  0.70690000  0.86010000  0.00090000  1.0 0.1757077724
H  H113  1  0.86010000  0.00090000  0.70690000  1.0 0.1749833524
H  H114  1  0.70690000  0.43210000  0.86010000  1.0 0.1757077724
H  H115  1  0.00090000  0.86010000  0.43210000  1.0 0.1757077724
H  H116  1  0.43210000  0.70690000  0.00090000  1.0 0.1757077724
H  H117  1  0.43210000  0.86010000  0.70690000  1.0 0.1757077724
H  H118  1  0.00090000  0.70690000  0.86010000  1.0 0.1757077724
H  H119  1  0.70690000  0.00090000  0.43210000  1.0 0.1749833524
H  H120  1  0.86010000  0.43210000  0.00090000  1.0 0.1749833524
H  H121  1  0.50090000  0.93210000  0.36010000  1.0 0.1757077724
H  H122  1  0.93210000  0.50090000  0.20690000  1.0 0.1757077724
H  H123  1  0.36010000  0.20690000  0.50090000  1.0 0.1749833524
H  H124  1  0.20690000  0.36010000  0.93210000  1.0 0.1757077724
H  H125  1  0.36010000  0.50090000  0.93210000  1.0 0.1757077724
H  H126  1  0.20690000  0.93210000  0.50090000  1.0 0.1757077724
H  H127  1  0.50090000  0.36010000  0.20690000  1.0 0.1757077724
H  H128  1  0.93210000  0.20690000  0.36010000  1.0 0.1749833524
H  H129  1  0.93210000  0.36010000  0.50090000  1.0 0.1749833524
H  H130  1  0.50090000  0.20690000  0.93210000  1.0 0.1749833524
H  H131  1  0.20690000  0.50090000  0.36010000  1.0 0.1757077724
H  H132  1  0.36010000  0.93210000  0.20690000  1.0 0.1757077724
H  H133  1  0.99910000  0.56790000  0.29310000  1.0 0.1757077724
H  H134  1  0.56790000  0.99910000  0.13990000  1.0 0.1757077724
H  H135  1  0.13990000  0.29310000  0.56790000  1.0 0.1757077724
H  H136  1  0.29310000  0.13990000  0.99910000  1.0 0.1757077724
H  H137  1  0.13990000  0.99910000  0.29310000  1.0 0.1757077724
H  H138  1  0.29310000  0.56790000  0.13990000  1.0 0.1757077724
H  H139  1  0.99910000  0.13990000  0.56790000  1.0 0.1749833524
H  H140  1  0.56790000  0.29310000  0.99910000  1.0 0.1757077724
H  H141  1  0.56790000  0.13990000  0.29310000  1.0 0.1749833524
H  H142  1  0.99910000  0.29310000  0.13990000  1.0 0.1749833524
H  H143  1  0.29310000  0.99910000  0.56790000  1.0 0.1757077724
H  H144  1  0.13990000  0.56790000  0.99910000  1.0 0.1757077724
C  C1  1  0.58807000  0.06445000  0.57609000  1.0 0.1306262227
C  C2  1  0.06445000  0.58807000  0.77139000  1.0 0.1306262227
C  C3  1  0.57609000  0.77139000  0.58807000  1.0 0.1306262227
C  C4  1  0.77139000  0.57609000  0.06445000  1.0 0.1306262227
C  C5  1  0.57609000  0.58807000  0.06445000  1.0 0.1306262227
C  C6  1  0.77139000  0.06445000  0.58807000  1.0 0.1306262227
C  C7  1  0.58807000  0.57609000  0.77139000  1.0 0.1306262227
C  C8  1  0.06445000  0.77139000  0.57609000  1.0 0.1306262227
C  C9  1  0.06445000  0.57609000  0.58807000  1.0 0.1306262227
C  C10  1  0.58807000  0.77139000  0.06445000  1.0 0.1306262227
C  C11  1  0.77139000  0.58807000  0.57609000  1.0 0.1306262227
C  C12  1  0.57609000  0.06445000  0.77139000  1.0 0.1306262227
C  C13  1  0.91193000  0.43555000  0.72861000  1.0 0.1306262227
C  C14  1  0.43555000  0.91193000  0.92391000  1.0 0.1306262227
C  C15  1  0.92391000  0.72861000  0.43555000  1.0 0.1306262227
C  C16  1  0.72861000  0.92391000  0.91193000  1.0 0.1306262227
C  C17  1  0.92391000  0.91193000  0.72861000  1.0 0.1306262227
C  C18  1  0.72861000  0.43555000  0.92391000  1.0 0.1306262227
C  C19  1  0.91193000  0.92391000  0.43555000  1.0 0.1306262227
C  C20  1  0.43555000  0.72861000  0.91193000  1.0 0.1306262227
C  C21  1  0.43555000  0.92391000  0.72861000  1.0 0.1306262227
C  C22  1  0.91193000  0.72861000  0.92391000  1.0 0.1306262227
C  C23  1  0.72861000  0.91193000  0.43555000  1.0 0.1306262227
C  C24  1  0.92391000  0.43555000  0.91193000  1.0 0.1306262227
C  C25  1  0.41193000  0.93555000  0.42391000  1.0 0.1306262227
C  C26  1  0.93555000  0.41193000  0.22861000  1.0 0.1306262227
C  C27  1  0.42391000  0.22861000  0.41193000  1.0 0.1306262227
C  C28  1  0.22861000  0.42391000  0.93555000  1.0 0.1306262227
C  C29  1  0.42391000  0.41193000  0.93555000  1.0 0.1306262227
C  C30  1  0.22861000  0.93555000  0.41193000  1.0 0.1306262227
C  C31  1  0.41193000  0.42391000  0.22861000  1.0 0.1306262227
C  C32  1  0.93555000  0.22861000  0.42391000  1.0 0.1306262227
C  C33  1  0.93555000  0.42391000  0.41193000  1.0 0.1306262227
C  C34  1  0.41193000  0.22861000  0.93555000  1.0 0.1306262227
C  C35  1  0.22861000  0.41193000  0.42391000  1.0 0.1306262227
C  C36  1  0.42391000  0.93555000  0.22861000  1.0 0.1306262227
C  C37  1  0.08807000  0.56445000  0.27139000  1.0 0.1306262227
C  C38  1  0.56445000  0.08807000  0.07609000  1.0 0.1306262227
C  C39  1  0.07609000  0.27139000  0.56445000  1.0 0.1306262227
C  C40  1  0.27139000  0.07609000  0.08807000  1.0 0.1306262227
C  C41  1  0.07609000  0.08807000  0.27139000  1.0 0.1306262227
C  C42  1  0.27139000  0.56445000  0.07609000  1.0 0.1306262227
C  C43  1  0.08807000  0.07609000  0.56445000  1.0 0.1306262227
C  C44  1  0.56445000  0.27139000  0.08807000  1.0 0.1306262227
C  C45  1  0.56445000  0.07609000  0.27139000  1.0 0.1306262227
C  C46  1  0.08807000  0.27139000  0.07609000  1.0 0.1306262227
C  C47  1  0.27139000  0.08807000  0.56445000  1.0 0.1306262227
C  C48  1  0.07609000  0.56445000  0.08807000  1.0 0.1306262227
C  C49  1  0.61750000  0.06404000  0.61156000  1.0 0.0898569237
C  C50  1  0.06404000  0.61750000  0.70690000  1.0 0.0898569237
C  C51  1  0.61156000  0.70690000  0.61750000  1.0 0.0898569237
C  C52  1  0.70690000  0.61156000  0.06404000  1.0 0.0898569237
C  C53  1  0.61156000  0.61750000  0.06404000  1.0 0.0898569237
C  C54  1  0.70690000  0.06404000  0.61750000  1.0 0.0898569237
C  C55  1  0.61750000  0.61156000  0.70690000  1.0 0.0898569237
C  C56  1  0.06404000  0.70690000  0.61156000  1.0 0.0898569237
C  C57  1  0.06404000  0.61156000  0.61750000  1.0 0.0898569237
C  C58  1  0.61750000  0.70690000  0.06404000  1.0 0.0898569237
C  C59  1  0.70690000  0.61750000  0.61156000  1.0 0.0898569237
C  C60  1  0.61156000  0.06404000  0.70690000  1.0 0.0898569237
C  C61  1  0.88250000  0.43596000  0.79310000  1.0 0.0898569237
C  C62  1  0.43596000  0.88250000  0.88844000  1.0 0.0898569237
C  C63  1  0.88844000  0.79310000  0.43596000  1.0 0.0898569237
C  C64  1  0.79310000  0.88844000  0.88250000  1.0 0.0898569237
C  C65  1  0.88844000  0.88250000  0.79310000  1.0 0.0898569237
C  C66  1  0.79310000  0.43596000  0.88844000  1.0 0.0898569237
C  C67  1  0.88250000  0.88844000  0.43596000  1.0 0.0898569237
C  C68  1  0.43596000  0.79310000  0.88250000  1.0 0.0898569237
C  C69  1  0.43596000  0.88844000  0.79310000  1.0 0.0898569237
C  C70  1  0.88250000  0.79310000  0.88844000  1.0 0.0898569237
C  C71  1  0.79310000  0.88250000  0.43596000  1.0 0.0898569237
C  C72  1  0.88844000  0.43596000  0.88250000  1.0 0.0898569237
C  C73  1  0.38250000  0.93596000  0.38844000  1.0 0.0898569237
C  C74  1  0.93596000  0.38250000  0.29310000  1.0 0.0898569237
C  C75  1  0.38844000  0.29310000  0.38250000  1.0 0.0898569237
C  C76  1  0.29310000  0.38844000  0.93596000  1.0 0.0898569237
C  C77  1  0.38844000  0.38250000  0.93596000  1.0 0.0898569237
C  C78  1  0.29310000  0.93596000  0.38250000  1.0 0.0898569237
C  C79  1  0.38250000  0.38844000  0.29310000  1.0 0.0898569237
C  C80  1  0.93596000  0.29310000  0.38844000  1.0 0.0898569237
C  C81  1  0.93596000  0.38844000  0.38250000  1.0 0.0898569237
C  C82  1  0.38250000  0.29310000  0.93596000  1.0 0.0898569237
C  C83  1  0.29310000  0.38250000  0.38844000  1.0 0.0898569237
C  C84  1  0.38844000  0.93596000  0.29310000  1.0 0.0898569237
C  C85  1  0.11750000  0.56404000  0.20690000  1.0 0.0898569237
C  C86  1  0.56404000  0.11750000  0.11156000  1.0 0.0898569237
C  C87  1  0.11156000  0.20690000  0.56404000  1.0 0.0898569237
C  C88  1  0.20690000  0.11156000  0.11750000  1.0 0.0898569237
C  C89  1  0.11156000  0.11750000  0.20690000  1.0 0.0898569237
C  C90  1  0.20690000  0.56404000  0.11156000  1.0 0.0898569237
C  C91  1  0.11750000  0.11156000  0.56404000  1.0 0.0898569237
C  C92  1  0.56404000  0.20690000  0.11750000  1.0 0.0898569237
C  C93  1  0.56404000  0.11156000  0.20690000  1.0 0.0898569237
C  C94  1  0.11750000  0.20690000  0.11156000  1.0 0.0898569237
C  C95  1  0.20690000  0.11750000  0.56404000  1.0 0.0898569237
C  C96  1  0.11156000  0.56404000  0.11750000  1.0 0.0898569237
C  C97  1  0.67869000  0.06395000  0.58447000  1.0 -0.1944089945
C  C98  1  0.06395000  0.67869000  0.67289000  1.0 -0.1944089945
C  C99  1  0.58447000  0.67289000  0.67869000  1.0 -0.1944089945
C  C100  1  0.67289000  0.58447000  0.06395000  1.0 -0.1944089945
C  C101  1  0.58447000  0.67869000  0.06395000  1.0 -0.1944089945
C  C102  1  0.67289000  0.06395000  0.67869000  1.0 -0.1944089945
C  C103  1  0.67869000  0.58447000  0.67289000  1.0 -0.1944089945
C  C104  1  0.06395000  0.67289000  0.58447000  1.0 -0.1944089945
C  C105  1  0.06395000  0.58447000  0.67869000  1.0 -0.1944089945
C  C106  1  0.67869000  0.67289000  0.06395000  1.0 -0.1944089945
C  C107  1  0.67289000  0.67869000  0.58447000  1.0 -0.1944089945
C  C108  1  0.58447000  0.06395000  0.67289000  1.0 -0.1944089945
C  C109  1  0.82131000  0.43605000  0.82711000  1.0 -0.1944089945
C  C110  1  0.43605000  0.82131000  0.91553000  1.0 -0.1944089945
C  C111  1  0.91553000  0.82711000  0.43605000  1.0 -0.1944089945
C  C112  1  0.82711000  0.91553000  0.82131000  1.0 -0.1944089945
C  C113  1  0.91553000  0.82131000  0.82711000  1.0 -0.1944089945
C  C114  1  0.82711000  0.43605000  0.91553000  1.0 -0.1944089945
C  C115  1  0.82131000  0.91553000  0.43605000  1.0 -0.1944089945
C  C116  1  0.43605000  0.82711000  0.82131000  1.0 -0.1944089945
C  C117  1  0.43605000  0.91553000  0.82711000  1.0 -0.1944089945
C  C118  1  0.82131000  0.82711000  0.91553000  1.0 -0.1944089945
C  C119  1  0.82711000  0.82131000  0.43605000  1.0 -0.1944089945
C  C120  1  0.91553000  0.43605000  0.82131000  1.0 -0.1944089945
C  C121  1  0.32131000  0.93605000  0.41553000  1.0 -0.1944089945
C  C122  1  0.93605000  0.32131000  0.32711000  1.0 -0.1944089945
C  C123  1  0.41553000  0.32711000  0.32131000  1.0 -0.1944089945
C  C124  1  0.32711000  0.41553000  0.93605000  1.0 -0.1944089945
C  C125  1  0.41553000  0.32131000  0.93605000  1.0 -0.1944089945
C  C126  1  0.32711000  0.93605000  0.32131000  1.0 -0.1944089945
C  C127  1  0.32131000  0.41553000  0.32711000  1.0 -0.1944089945
C  C128  1  0.93605000  0.32711000  0.41553000  1.0 -0.1944089945
C  C129  1  0.93605000  0.41553000  0.32131000  1.0 -0.1944089945
C  C130  1  0.32131000  0.32711000  0.93605000  1.0 -0.1944089945
C  C131  1  0.32711000  0.32131000  0.41553000  1.0 -0.1944089945
C  C132  1  0.41553000  0.93605000  0.32711000  1.0 -0.1944089945
C  C133  1  0.17869000  0.56395000  0.17289000  1.0 -0.1944089945
C  C134  1  0.56395000  0.17869000  0.08447000  1.0 -0.1944089945
C  C135  1  0.08447000  0.17289000  0.56395000  1.0 -0.1944089945
C  C136  1  0.17289000  0.08447000  0.17869000  1.0 -0.1944089945
C  C137  1  0.08447000  0.17869000  0.17289000  1.0 -0.1944089945
C  C138  1  0.17289000  0.56395000  0.08447000  1.0 -0.1944089945
C  C139  1  0.17869000  0.08447000  0.56395000  1.0 -0.1944089945
C  C140  1  0.56395000  0.17289000  0.17869000  1.0 -0.1944089945
C  C141  1  0.56395000  0.08447000  0.17289000  1.0 -0.1944089945
C  C142  1  0.17869000  0.17289000  0.08447000  1.0 -0.1944089945
C  C143  1  0.17289000  0.17869000  0.56395000  1.0 -0.1944089945
C  C144  1  0.08447000  0.56395000  0.17869000  1.0 -0.1944089945
C  C145  1  0.61305000  0.06181000  0.51683000  1.0 -0.1060687889
C  C146  1  0.06181000  0.61305000  0.80831000  1.0 -0.1060687889
C  C147  1  0.51683000  0.80831000  0.61305000  1.0 -0.1060687889
C  C148  1  0.80831000  0.51683000  0.06181000  1.0 -0.1060687889
C  C149  1  0.51683000  0.61305000  0.06181000  1.0 -0.1060687889
C  C150  1  0.80831000  0.06181000  0.61305000  1.0 -0.1060687889
C  C151  1  0.61305000  0.51683000  0.80831000  1.0 -0.1060687889
C  C152  1  0.06181000  0.80831000  0.51683000  1.0 -0.1060687889
C  C153  1  0.06181000  0.51683000  0.61305000  1.0 -0.1060687889
C  C154  1  0.61305000  0.80831000  0.06181000  1.0 -0.1060687889
C  C155  1  0.80831000  0.61305000  0.51683000  1.0 -0.1060687889
C  C156  1  0.51683000  0.06181000  0.80831000  1.0 -0.1060687889
C  C157  1  0.88695000  0.43819000  0.69169000  1.0 -0.1060687889
C  C158  1  0.43819000  0.88695000  0.98317000  1.0 -0.1060687889
C  C159  1  0.98317000  0.69169000  0.43819000  1.0 -0.1060687889
C  C160  1  0.69169000  0.98317000  0.88695000  1.0 -0.1060687889
C  C161  1  0.98317000  0.88695000  0.69169000  1.0 -0.1060687889
C  C162  1  0.69169000  0.43819000  0.98317000  1.0 -0.1060687889
C  C163  1  0.88695000  0.98317000  0.43819000  1.0 -0.1060687889
C  C164  1  0.43819000  0.69169000  0.88695000  1.0 -0.1060687889
C  C165  1  0.43819000  0.98317000  0.69169000  1.0 -0.1060687889
C  C166  1  0.88695000  0.69169000  0.98317000  1.0 -0.1060687889
C  C167  1  0.69169000  0.88695000  0.43819000  1.0 -0.1060687889
C  C168  1  0.98317000  0.43819000  0.88695000  1.0 -0.1060687889
C  C169  1  0.38695000  0.93819000  0.48317000  1.0 -0.1060687889
C  C170  1  0.93819000  0.38695000  0.19169000  1.0 -0.1060687889
C  C171  1  0.48317000  0.19169000  0.38695000  1.0 -0.1060687889
C  C172  1  0.19169000  0.48317000  0.93819000  1.0 -0.1060687889
C  C173  1  0.48317000  0.38695000  0.93819000  1.0 -0.1060687889
C  C174  1  0.19169000  0.93819000  0.38695000  1.0 -0.1060687889
C  C175  1  0.38695000  0.48317000  0.19169000  1.0 -0.1060687889
C  C176  1  0.93819000  0.19169000  0.48317000  1.0 -0.1060687889
C  C177  1  0.93819000  0.48317000  0.38695000  1.0 -0.1060687889
C  C178  1  0.38695000  0.19169000  0.93819000  1.0 -0.1060687889
C  C179  1  0.19169000  0.38695000  0.48317000  1.0 -0.1060687889
C  C180  1  0.48317000  0.93819000  0.19169000  1.0 -0.1060687889
C  C181  1  0.11305000  0.56181000  0.30831000  1.0 -0.1060687889
C  C182  1  0.56181000  0.11305000  0.01683000  1.0 -0.1060687889
C  C183  1  0.01683000  0.30831000  0.56181000  1.0 -0.1060687889
C  C184  1  0.30831000  0.01683000  0.11305000  1.0 -0.1060687889
C  C185  1  0.01683000  0.11305000  0.30831000  1.0 -0.1060687889
C  C186  1  0.30831000  0.56181000  0.01683000  1.0 -0.1060687889
C  C187  1  0.11305000  0.01683000  0.56181000  1.0 -0.1060687889
C  C188  1  0.56181000  0.30831000  0.11305000  1.0 -0.1060687889
C  C189  1  0.56181000  0.01683000  0.30831000  1.0 -0.1060687889
C  C190  1  0.11305000  0.30831000  0.01683000  1.0 -0.1060687889
C  C191  1  0.30831000  0.11305000  0.56181000  1.0 -0.1060687889
C  C192  1  0.01683000  0.56181000  0.11305000  1.0 -0.1060687889
N  N1  1  0.56865000  0.06317000  0.50465000  1.0 -0.1272473959
N  N2  1  0.06317000  0.56865000  0.86353000  1.0 -0.1272473959
N  N3  1  0.50465000  0.86353000  0.56865000  1.0 -0.1272473959
N  N4  1  0.86353000  0.50465000  0.06317000  1.0 -0.1272473959
N  N5  1  0.50465000  0.56865000  0.06317000  1.0 -0.1272473959
N  N6  1  0.86353000  0.06317000  0.56865000  1.0 -0.1272473959
N  N7  1  0.56865000  0.50465000  0.86353000  1.0 -0.1272473959
N  N8  1  0.06317000  0.86353000  0.50465000  1.0 -0.1272473959
N  N9  1  0.06317000  0.50465000  0.56865000  1.0 -0.1272473959
N  N10  1  0.56865000  0.86353000  0.06317000  1.0 -0.1272473959
N  N11  1  0.86353000  0.56865000  0.50465000  1.0 -0.1272473959
N  N12  1  0.50465000  0.06317000  0.86353000  1.0 -0.1272473959
N  N13  1  0.93135000  0.43683000  0.63647000  1.0 -0.1272473959
N  N14  1  0.43683000  0.93135000  0.99535000  1.0 -0.1272473959
N  N15  1  0.99535000  0.63647000  0.43683000  1.0 -0.1272473959
N  N16  1  0.63647000  0.99535000  0.93135000  1.0 -0.1272473959
N  N17  1  0.99535000  0.93135000  0.63647000  1.0 -0.1272473959
N  N18  1  0.63647000  0.43683000  0.99535000  1.0 -0.1272473959
N  N19  1  0.93135000  0.99535000  0.43683000  1.0 -0.1272473959
N  N20  1  0.43683000  0.63647000  0.93135000  1.0 -0.1272473959
N  N21  1  0.43683000  0.99535000  0.63647000  1.0 -0.1272473959
N  N22  1  0.93135000  0.63647000  0.99535000  1.0 -0.1272473959
N  N23  1  0.63647000  0.93135000  0.43683000  1.0 -0.1272473959
N  N24  1  0.99535000  0.43683000  0.93135000  1.0 -0.1272473959
N  N25  1  0.43135000  0.93683000  0.49535000  1.0 -0.1272473959
N  N26  1  0.93683000  0.43135000  0.13647000  1.0 -0.1272473959
N  N27  1  0.49535000  0.13647000  0.43135000  1.0 -0.1272473959
N  N28  1  0.13647000  0.49535000  0.93683000  1.0 -0.1272473959
N  N29  1  0.49535000  0.43135000  0.93683000  1.0 -0.1272473959
N  N30  1  0.13647000  0.93683000  0.43135000  1.0 -0.1272473959
N  N31  1  0.43135000  0.49535000  0.13647000  1.0 -0.1272473959
N  N32  1  0.93683000  0.13647000  0.49535000  1.0 -0.1272473959
N  N33  1  0.93683000  0.49535000  0.43135000  1.0 -0.1272473959
N  N34  1  0.43135000  0.13647000  0.93683000  1.0 -0.1272473959
N  N35  1  0.13647000  0.43135000  0.49535000  1.0 -0.1272473959
N  N36  1  0.49535000  0.93683000  0.13647000  1.0 -0.1272473959
N  N37  1  0.06865000  0.56317000  0.36353000  1.0 -0.1272473959
N  N38  1  0.56317000  0.06865000  0.00465000  1.0 -0.1272473959
N  N39  1  0.00465000  0.36353000  0.56317000  1.0 -0.1272473959
N  N40  1  0.36353000  0.00465000  0.06865000  1.0 -0.1272473959
N  N41  1  0.00465000  0.06865000  0.36353000  1.0 -0.1272473959
N  N42  1  0.36353000  0.56317000  0.00465000  1.0 -0.1272473959
N  N43  1  0.06865000  0.00465000  0.56317000  1.0 -0.1272473959
N  N44  1  0.56317000  0.36353000  0.06865000  1.0 -0.1272473959
N  N45  1  0.56317000  0.00465000  0.36353000  1.0 -0.1272473959
N  N46  1  0.06865000  0.36353000  0.00465000  1.0 -0.1272473959
N  N47  1  0.36353000  0.06865000  0.56317000  1.0 -0.1272473959
N  N48  1  0.00465000  0.56317000  0.06865000  1.0 -0.1272473959
N  N49  1  0.51755000  0.06595000  0.55545000  1.0 0.0257056145
N  N50  1  0.06595000  0.51755000  0.86105000  1.0 0.0257056145
N  N51  1  0.55545000  0.86105000  0.51755000  1.0 0.0257056145
N  N52  1  0.86105000  0.55545000  0.06595000  1.0 0.0257056145
N  N53  1  0.55545000  0.51755000  0.06595000  1.0 0.0257056145
N  N54  1  0.86105000  0.06595000  0.51755000  1.0 0.0257056145
N  N55  1  0.51755000  0.55545000  0.86105000  1.0 0.0257056145
N  N56  1  0.06595000  0.86105000  0.55545000  1.0 0.0257056145
N  N57  1  0.06595000  0.55545000  0.51755000  1.0 0.0257056145
N  N58  1  0.51755000  0.86105000  0.06595000  1.0 0.0257056145
N  N59  1  0.86105000  0.51755000  0.55545000  1.0 0.0257056145
N  N60  1  0.55545000  0.06595000  0.86105000  1.0 0.0257056145
N  N61  1  0.98245000  0.43405000  0.63895000  1.0 0.0257056145
N  N62  1  0.43405000  0.98245000  0.94455000  1.0 0.0257056145
N  N63  1  0.94455000  0.63895000  0.43405000  1.0 0.0257056145
N  N64  1  0.63895000  0.94455000  0.98245000  1.0 0.0257056145
N  N65  1  0.94455000  0.98245000  0.63895000  1.0 0.0257056145
N  N66  1  0.63895000  0.43405000  0.94455000  1.0 0.0257056145
N  N67  1  0.98245000  0.94455000  0.43405000  1.0 0.0257056145
N  N68  1  0.43405000  0.63895000  0.98245000  1.0 0.0257056145
N  N69  1  0.43405000  0.94455000  0.63895000  1.0 0.0257056145
N  N70  1  0.98245000  0.63895000  0.94455000  1.0 0.0257056145
N  N71  1  0.63895000  0.98245000  0.43405000  1.0 0.0257056145
N  N72  1  0.94455000  0.43405000  0.98245000  1.0 0.0257056145
N  N73  1  0.48245000  0.93405000  0.44455000  1.0 0.0257056145
N  N74  1  0.93405000  0.48245000  0.13895000  1.0 0.0257056145
N  N75  1  0.44455000  0.13895000  0.48245000  1.0 0.0257056145
N  N76  1  0.13895000  0.44455000  0.93405000  1.0 0.0257056145
N  N77  1  0.44455000  0.48245000  0.93405000  1.0 0.0257056145
N  N78  1  0.13895000  0.93405000  0.48245000  1.0 0.0257056145
N  N79  1  0.48245000  0.44455000  0.13895000  1.0 0.0257056145
N  N80  1  0.93405000  0.13895000  0.44455000  1.0 0.0257056145
N  N81  1  0.93405000  0.44455000  0.48245000  1.0 0.0257056145
N  N82  1  0.48245000  0.13895000  0.93405000  1.0 0.0257056145
N  N83  1  0.13895000  0.48245000  0.44455000  1.0 0.0257056145
N  N84  1  0.44455000  0.93405000  0.13895000  1.0 0.0257056145
N  N85  1  0.01755000  0.56595000  0.36105000  1.0 0.0257056145
N  N86  1  0.56595000  0.01755000  0.05545000  1.0 0.0257056145
N  N87  1  0.05545000  0.36105000  0.56595000  1.0 0.0257056145
N  N88  1  0.36105000  0.05545000  0.01755000  1.0 0.0257056145
N  N89  1  0.05545000  0.01755000  0.36105000  1.0 0.0257056145
N  N90  1  0.36105000  0.56595000  0.05545000  1.0 0.0257056145
N  N91  1  0.01755000  0.05545000  0.56595000  1.0 0.0257056145
N  N92  1  0.56595000  0.36105000  0.01755000  1.0 0.0257056145
N  N93  1  0.56595000  0.05545000  0.36105000  1.0 0.0257056145
N  N94  1  0.01755000  0.36105000  0.05545000  1.0 0.0257056145
N  N95  1  0.36105000  0.01755000  0.56595000  1.0 0.0257056145
N  N96  1  0.05545000  0.56595000  0.01755000  1.0 0.0257056145
N  N97  1  0.52796000  0.06648000  0.59960000  1.0 -0.1602041448
N  N98  1  0.06648000  0.52796000  0.80596000  1.0 -0.1602041448
N  N99  1  0.59960000  0.80596000  0.52796000  1.0 -0.1602041448
N  N100  1  0.80596000  0.59960000  0.06648000  1.0 -0.1602041448
N  N101  1  0.59960000  0.52796000  0.06648000  1.0 -0.1602041448
N  N102  1  0.80596000  0.06648000  0.52796000  1.0 -0.1602041448
N  N103  1  0.52796000  0.59960000  0.80596000  1.0 -0.1602041448
N  N104  1  0.06648000  0.80596000  0.59960000  1.0 -0.1602041448
N  N105  1  0.06648000  0.59960000  0.52796000  1.0 -0.1602041448
N  N106  1  0.52796000  0.80596000  0.06648000  1.0 -0.1602041448
N  N107  1  0.80596000  0.52796000  0.59960000  1.0 -0.1602041448
N  N108  1  0.59960000  0.06648000  0.80596000  1.0 -0.1602041448
N  N109  1  0.97204000  0.43352000  0.69404000  1.0 -0.1602041448
N  N110  1  0.43352000  0.97204000  0.90040000  1.0 -0.1602041448
N  N111  1  0.90040000  0.69404000  0.43352000  1.0 -0.1602041448
N  N112  1  0.69404000  0.90040000  0.97204000  1.0 -0.1602041448
N  N113  1  0.90040000  0.97204000  0.69404000  1.0 -0.1602041448
N  N114  1  0.69404000  0.43352000  0.90040000  1.0 -0.1602041448
N  N115  1  0.97204000  0.90040000  0.43352000  1.0 -0.1602041448
N  N116  1  0.43352000  0.69404000  0.97204000  1.0 -0.1602041448
N  N117  1  0.43352000  0.90040000  0.69404000  1.0 -0.1602041448
N  N118  1  0.97204000  0.69404000  0.90040000  1.0 -0.1602041448
N  N119  1  0.69404000  0.97204000  0.43352000  1.0 -0.1602041448
N  N120  1  0.90040000  0.43352000  0.97204000  1.0 -0.1602041448
N  N121  1  0.47204000  0.93352000  0.40040000  1.0 -0.1602041448
N  N122  1  0.93352000  0.47204000  0.19404000  1.0 -0.1602041448
N  N123  1  0.40040000  0.19404000  0.47204000  1.0 -0.1602041448
N  N124  1  0.19404000  0.40040000  0.93352000  1.0 -0.1602041448
N  N125  1  0.40040000  0.47204000  0.93352000  1.0 -0.1602041448
N  N126  1  0.19404000  0.93352000  0.47204000  1.0 -0.1602041448
N  N127  1  0.47204000  0.40040000  0.19404000  1.0 -0.1602041448
N  N128  1  0.93352000  0.19404000  0.40040000  1.0 -0.1602041448
N  N129  1  0.93352000  0.40040000  0.47204000  1.0 -0.1602041448
N  N130  1  0.47204000  0.19404000  0.93352000  1.0 -0.1602041448
N  N131  1  0.19404000  0.47204000  0.40040000  1.0 -0.1602041448
N  N132  1  0.40040000  0.93352000  0.19404000  1.0 -0.1602041448
N  N133  1  0.02796000  0.56648000  0.30596000  1.0 -0.1602041448
N  N134  1  0.56648000  0.02796000  0.09960000  1.0 -0.1602041448
N  N135  1  0.09960000  0.30596000  0.56648000  1.0 -0.1602041448
N  N136  1  0.30596000  0.09960000  0.02796000  1.0 -0.1602041448
N  N137  1  0.09960000  0.02796000  0.30596000  1.0 -0.1602041448
N  N138  1  0.30596000  0.56648000  0.09960000  1.0 -0.1602041448
N  N139  1  0.02796000  0.09960000  0.56648000  1.0 -0.1602041448
N  N140  1  0.56648000  0.30596000  0.02796000  1.0 -0.1602041448
N  N141  1  0.56648000  0.09960000  0.30596000  1.0 -0.1602041448
N  N142  1  0.02796000  0.30596000  0.09960000  1.0 -0.1602041448
N  N143  1  0.30596000  0.02796000  0.56648000  1.0 -0.1602041448
N  N144  1  0.09960000  0.56648000  0.02796000  1.0 -0.1602041448
Cl  Cl1  1  0.50000000  0.00000000  0.50000000  1.0 -0.31916444
Cl  Cl2  1  0.00000000  0.50000000  0.00000000  1.0 -0.31916444
Cl  Cl3  1  0.50000000  0.50000000  0.00000000  1.0 -0.31916444
Cl  Cl4  1  0.00000000  0.00000000  0.50000000  1.0 -0.31916444
Cl  Cl5  1  0.00000000  0.50000000  0.50000000  1.0 -0.31916444
Cl  Cl6  1  0.50000000  0.00000000  0.00000000  1.0 -0.31916444
