# DDEC6 charges by PACMAN v1.1 (https://github.com/mtap-research/PACMAN-charge/)
data_AQOMAW_ASR_pacman
_symmetry_space_group_name_H-M   'P 1'
_cell_length_a   18.83450000
_cell_length_b   18.83450000
_cell_length_c   18.83450000
_cell_angle_alpha   90.00000000
_cell_angle_beta   90.00000000
_cell_angle_gamma   90.00000000
_symmetry_Int_Tables_number   1
_chemical_formula_structural   Co12H24C40N16ClO4
_chemical_formula_sum   'Co36 H72 C120 N48 Cl3 O12'
_cell_volume   6681.32021116
_cell_formula_units_Z   3
loop_
 _symmetry_equiv_pos_site_id
 _symmetry_equiv_pos_as_xyz
  1  'x, y, z'
loop_
 _atom_site_type_symbol
 _atom_site_label
 _atom_site_symmetry_multiplicity
 _atom_site_fract_x
 _atom_site_fract_y
 _atom_site_fract_z
 _atom_site_occupancy
 _atom_site_charge
Co  Co1  1  0.36808000  0.00000000  0.50000000  1.0 0.6018485994
Co  Co2  1  0.63192000  0.00000000  0.50000000  1.0 0.6018485994
Co  Co3  1  0.50000000  0.36808000  0.00000000  1.0 0.6018485994
Co  Co4  1  0.50000000  0.63192000  0.00000000  1.0 0.6018485994
Co  Co5  1  0.00000000  0.50000000  0.36808000  1.0 0.6018485994
Co  Co6  1  0.00000000  0.50000000  0.63192000  1.0 0.6018485994
Co  Co7  1  0.00000000  0.36808000  0.50000000  1.0 0.6018485994
Co  Co8  1  0.00000000  0.63192000  0.50000000  1.0 0.6018485994
Co  Co9  1  0.36808000  0.50000000  0.00000000  1.0 0.6018485994
Co  Co10  1  0.63192000  0.50000000  0.00000000  1.0 0.6018485994
Co  Co11  1  0.50000000  0.00000000  0.63192000  1.0 0.6018485994
Co  Co12  1  0.50000000  0.00000000  0.36808000  1.0 0.6018485994
Co  Co13  1  0.28080000  0.15670000  0.50000000  1.0 -0.012772415
Co  Co14  1  0.71920000  0.84330000  0.50000000  1.0 -0.012772415
Co  Co15  1  0.71920000  0.15670000  0.50000000  1.0 -0.012772415
Co  Co16  1  0.28080000  0.84330000  0.50000000  1.0 -0.012772415
Co  Co17  1  0.50000000  0.28080000  0.15670000  1.0 -0.012772415
Co  Co18  1  0.50000000  0.71920000  0.84330000  1.0 -0.012772415
Co  Co19  1  0.50000000  0.71920000  0.15670000  1.0 -0.012772415
Co  Co20  1  0.50000000  0.28080000  0.84330000  1.0 -0.012772415
Co  Co21  1  0.15670000  0.50000000  0.28080000  1.0 -0.012772415
Co  Co22  1  0.84330000  0.50000000  0.71920000  1.0 -0.012772415
Co  Co23  1  0.15670000  0.50000000  0.71920000  1.0 -0.012772415
Co  Co24  1  0.84330000  0.50000000  0.28080000  1.0 -0.012772415
Co  Co25  1  0.15670000  0.28080000  0.50000000  1.0 -0.012772415
Co  Co26  1  0.84330000  0.71920000  0.50000000  1.0 -0.012772415
Co  Co27  1  0.15670000  0.71920000  0.50000000  1.0 -0.012772415
Co  Co28  1  0.84330000  0.28080000  0.50000000  1.0 -0.012772415
Co  Co29  1  0.28080000  0.50000000  0.84330000  1.0 -0.012772415
Co  Co30  1  0.71920000  0.50000000  0.15670000  1.0 -0.012772415
Co  Co31  1  0.71920000  0.50000000  0.84330000  1.0 -0.012772415
Co  Co32  1  0.28080000  0.50000000  0.15670000  1.0 -0.012772415
Co  Co33  1  0.50000000  0.15670000  0.71920000  1.0 -0.012772415
Co  Co34  1  0.50000000  0.84330000  0.28080000  1.0 -0.012772415
Co  Co35  1  0.50000000  0.15670000  0.28080000  1.0 -0.012772415
Co  Co36  1  0.50000000  0.84330000  0.71920000  1.0 -0.012772415
H  H1  1  0.39050000  0.23850000  0.76150000  1.0 0.1125672208
H  H2  1  0.60950000  0.76150000  0.76150000  1.0 0.1125672208
H  H3  1  0.60950000  0.23850000  0.23850000  1.0 0.1125672208
H  H4  1  0.39050000  0.76150000  0.23850000  1.0 0.1125672208
H  H5  1  0.76150000  0.39050000  0.23850000  1.0 0.1125672208
H  H6  1  0.76150000  0.60950000  0.76150000  1.0 0.1125672208
H  H7  1  0.23850000  0.60950000  0.23850000  1.0 0.1125672208
H  H8  1  0.23850000  0.39050000  0.76150000  1.0 0.1125672208
H  H9  1  0.23850000  0.76150000  0.39050000  1.0 0.1125672208
H  H10  1  0.76150000  0.76150000  0.60950000  1.0 0.1125672208
H  H11  1  0.23850000  0.23850000  0.60950000  1.0 0.1125672208
H  H12  1  0.76150000  0.23850000  0.39050000  1.0 0.1125672208
H  H13  1  0.23850000  0.39050000  0.23850000  1.0 0.1125672208
H  H14  1  0.76150000  0.60950000  0.23850000  1.0 0.1125672208
H  H15  1  0.23850000  0.60950000  0.76150000  1.0 0.1125672208
H  H16  1  0.76150000  0.39050000  0.76150000  1.0 0.1125672208
H  H17  1  0.39050000  0.76150000  0.76150000  1.0 0.1125672208
H  H18  1  0.60950000  0.76150000  0.23850000  1.0 0.1125672208
H  H19  1  0.60950000  0.23850000  0.76150000  1.0 0.1125672208
H  H20  1  0.39050000  0.23850000  0.23850000  1.0 0.1125672208
H  H21  1  0.76150000  0.23850000  0.60950000  1.0 0.1125672208
H  H22  1  0.76150000  0.76150000  0.39050000  1.0 0.1125672208
H  H23  1  0.23850000  0.23850000  0.39050000  1.0 0.1125672208
H  H24  1  0.23850000  0.76150000  0.60950000  1.0 0.1125672208
H  H25  1  0.28800000  0.14130000  0.56170000  1.0 0.1187710245
H  H26  1  0.71200000  0.85870000  0.56170000  1.0 0.1187710245
H  H27  1  0.71200000  0.14130000  0.43830000  1.0 0.1187710245
H  H28  1  0.28800000  0.85870000  0.43830000  1.0 0.1187710245
H  H29  1  0.56170000  0.28800000  0.14130000  1.0 0.1187710245
H  H30  1  0.56170000  0.71200000  0.85870000  1.0 0.1187710245
H  H31  1  0.43830000  0.71200000  0.14130000  1.0 0.1187710245
H  H32  1  0.43830000  0.28800000  0.85870000  1.0 0.1187710245
H  H33  1  0.14130000  0.56170000  0.28800000  1.0 0.1187710245
H  H34  1  0.85870000  0.56170000  0.71200000  1.0 0.1187710245
H  H35  1  0.14130000  0.43830000  0.71200000  1.0 0.1187710245
H  H36  1  0.85870000  0.43830000  0.28800000  1.0 0.1187710245
H  H37  1  0.14130000  0.28800000  0.43830000  1.0 0.1187710245
H  H38  1  0.85870000  0.71200000  0.43830000  1.0 0.1187710245
H  H39  1  0.14130000  0.71200000  0.56170000  1.0 0.1187710245
H  H40  1  0.85870000  0.28800000  0.56170000  1.0 0.1187710245
H  H41  1  0.28800000  0.56170000  0.85870000  1.0 0.1187710245
H  H42  1  0.71200000  0.56170000  0.14130000  1.0 0.1187710245
H  H43  1  0.71200000  0.43830000  0.85870000  1.0 0.1187710245
H  H44  1  0.28800000  0.43830000  0.14130000  1.0 0.1187710245
H  H45  1  0.56170000  0.14130000  0.71200000  1.0 0.1187710245
H  H46  1  0.56170000  0.85870000  0.28800000  1.0 0.1187710245
H  H47  1  0.43830000  0.14130000  0.28800000  1.0 0.1187710245
H  H48  1  0.43830000  0.85870000  0.71200000  1.0 0.1187710245
H  H49  1  0.71200000  0.85870000  0.43830000  1.0 0.1187710245
H  H50  1  0.28800000  0.14130000  0.43830000  1.0 0.1187710245
H  H51  1  0.28800000  0.85870000  0.56170000  1.0 0.1187710245
H  H52  1  0.71200000  0.14130000  0.56170000  1.0 0.1187710245
H  H53  1  0.43830000  0.71200000  0.85870000  1.0 0.1187710245
H  H54  1  0.43830000  0.28800000  0.14130000  1.0 0.1187710245
H  H55  1  0.56170000  0.28800000  0.85870000  1.0 0.1187710245
H  H56  1  0.56170000  0.71200000  0.14130000  1.0 0.1187710245
H  H57  1  0.85870000  0.43830000  0.71200000  1.0 0.1187710245
H  H58  1  0.14130000  0.43830000  0.28800000  1.0 0.1187710245
H  H59  1  0.85870000  0.56170000  0.28800000  1.0 0.1187710245
H  H60  1  0.14130000  0.56170000  0.71200000  1.0 0.1187710245
H  H61  1  0.85870000  0.71200000  0.56170000  1.0 0.1187710245
H  H62  1  0.14130000  0.28800000  0.56170000  1.0 0.1187710245
H  H63  1  0.85870000  0.28800000  0.43830000  1.0 0.1187710245
H  H64  1  0.14130000  0.71200000  0.43830000  1.0 0.1187710245
H  H65  1  0.71200000  0.43830000  0.14130000  1.0 0.1187710245
H  H66  1  0.28800000  0.43830000  0.85870000  1.0 0.1187710245
H  H67  1  0.28800000  0.56170000  0.14130000  1.0 0.1187710245
H  H68  1  0.71200000  0.56170000  0.85870000  1.0 0.1187710245
H  H69  1  0.43830000  0.85870000  0.28800000  1.0 0.1187710245
H  H70  1  0.43830000  0.14130000  0.71200000  1.0 0.1187710245
H  H71  1  0.56170000  0.85870000  0.71200000  1.0 0.1187710245
H  H72  1  0.56170000  0.14130000  0.28800000  1.0 0.1187710245
C  C1  1  0.35155000  0.16474000  0.64845000  1.0 0.0079482681
C  C2  1  0.64845000  0.83526000  0.64845000  1.0 0.0079482681
C  C3  1  0.64845000  0.16474000  0.35155000  1.0 0.0079482681
C  C4  1  0.35155000  0.83526000  0.35155000  1.0 0.0079482681
C  C5  1  0.64845000  0.35155000  0.16474000  1.0 0.0079482681
C  C6  1  0.64845000  0.64845000  0.83526000  1.0 0.0079482681
C  C7  1  0.35155000  0.64845000  0.16474000  1.0 0.0079482681
C  C8  1  0.35155000  0.35155000  0.83526000  1.0 0.0079482681
C  C9  1  0.16474000  0.64845000  0.35155000  1.0 0.0079482681
C  C10  1  0.83526000  0.64845000  0.64845000  1.0 0.0079482681
C  C11  1  0.16474000  0.35155000  0.64845000  1.0 0.0079482681
C  C12  1  0.83526000  0.35155000  0.35155000  1.0 0.0079482681
C  C13  1  0.16474000  0.35155000  0.35155000  1.0 0.0079482681
C  C14  1  0.83526000  0.64845000  0.35155000  1.0 0.0079482681
C  C15  1  0.16474000  0.64845000  0.64845000  1.0 0.0079482681
C  C16  1  0.83526000  0.35155000  0.64845000  1.0 0.0079482681
C  C17  1  0.35155000  0.64845000  0.83526000  1.0 0.0079482681
C  C18  1  0.64845000  0.64845000  0.16474000  1.0 0.0079482681
C  C19  1  0.64845000  0.35155000  0.83526000  1.0 0.0079482681
C  C20  1  0.35155000  0.35155000  0.16474000  1.0 0.0079482681
C  C21  1  0.64845000  0.16474000  0.64845000  1.0 0.0079482681
C  C22  1  0.64845000  0.83526000  0.35155000  1.0 0.0079482681
C  C23  1  0.35155000  0.16474000  0.35155000  1.0 0.0079482681
C  C24  1  0.35155000  0.83526000  0.64845000  1.0 0.0079482681
C  C25  1  0.32005000  0.22839000  0.67995000  1.0 0.1187710245
C  C26  1  0.67995000  0.77161000  0.67995000  1.0 0.1187710245
C  C27  1  0.67995000  0.22839000  0.32005000  1.0 0.1187710245
C  C28  1  0.32005000  0.77161000  0.32005000  1.0 0.1187710245
C  C29  1  0.67995000  0.32005000  0.22839000  1.0 0.1187710245
C  C30  1  0.67995000  0.67995000  0.77161000  1.0 0.1187710245
C  C31  1  0.32005000  0.67995000  0.22839000  1.0 0.1187710245
C  C32  1  0.32005000  0.32005000  0.77161000  1.0 0.1187710245
C  C33  1  0.22839000  0.67995000  0.32005000  1.0 0.1187710245
C  C34  1  0.77161000  0.67995000  0.67995000  1.0 0.1187710245
C  C35  1  0.22839000  0.32005000  0.67995000  1.0 0.1187710245
C  C36  1  0.77161000  0.32005000  0.32005000  1.0 0.1187710245
C  C37  1  0.22839000  0.32005000  0.32005000  1.0 0.1187710245
C  C38  1  0.77161000  0.67995000  0.32005000  1.0 0.1187710245
C  C39  1  0.22839000  0.67995000  0.67995000  1.0 0.1187710245
C  C40  1  0.77161000  0.32005000  0.67995000  1.0 0.1187710245
C  C41  1  0.32005000  0.67995000  0.77161000  1.0 0.1187710245
C  C42  1  0.67995000  0.67995000  0.22839000  1.0 0.1187710245
C  C43  1  0.67995000  0.32005000  0.77161000  1.0 0.1187710245
C  C44  1  0.32005000  0.32005000  0.22839000  1.0 0.1187710245
C  C45  1  0.67995000  0.22839000  0.67995000  1.0 0.1187710245
C  C46  1  0.67995000  0.77161000  0.32005000  1.0 0.1187710245
C  C47  1  0.32005000  0.22839000  0.32005000  1.0 0.1187710245
C  C48  1  0.32005000  0.77161000  0.67995000  1.0 0.1187710245
C  C49  1  0.34951000  0.25930000  0.74070000  1.0 -0.2060553683
C  C50  1  0.65049000  0.74070000  0.74070000  1.0 -0.2060553683
C  C51  1  0.65049000  0.25930000  0.25930000  1.0 -0.2060553683
C  C52  1  0.34951000  0.74070000  0.25930000  1.0 -0.2060553683
C  C53  1  0.74070000  0.34951000  0.25930000  1.0 -0.2060553683
C  C54  1  0.74070000  0.65049000  0.74070000  1.0 -0.2060553683
C  C55  1  0.25930000  0.65049000  0.25930000  1.0 -0.2060553683
C  C56  1  0.25930000  0.34951000  0.74070000  1.0 -0.2060553683
C  C57  1  0.25930000  0.74070000  0.34951000  1.0 -0.2060553683
C  C58  1  0.74070000  0.74070000  0.65049000  1.0 -0.2060553683
C  C59  1  0.25930000  0.25930000  0.65049000  1.0 -0.2060553683
C  C60  1  0.74070000  0.25930000  0.34951000  1.0 -0.2060553683
C  C61  1  0.25930000  0.34951000  0.25930000  1.0 -0.2060553683
C  C62  1  0.74070000  0.65049000  0.25930000  1.0 -0.2060553683
C  C63  1  0.25930000  0.65049000  0.74070000  1.0 -0.2060553683
C  C64  1  0.74070000  0.34951000  0.74070000  1.0 -0.2060553683
C  C65  1  0.34951000  0.74070000  0.74070000  1.0 -0.2060553683
C  C66  1  0.65049000  0.74070000  0.25930000  1.0 -0.2060553683
C  C67  1  0.65049000  0.25930000  0.74070000  1.0 -0.2060553683
C  C68  1  0.34951000  0.25930000  0.25930000  1.0 -0.2060553683
C  C69  1  0.74070000  0.25930000  0.65049000  1.0 -0.2060553683
C  C70  1  0.74070000  0.74070000  0.34951000  1.0 -0.2060553683
C  C71  1  0.25930000  0.25930000  0.34951000  1.0 -0.2060553683
C  C72  1  0.25930000  0.74070000  0.65049000  1.0 -0.2060553683
C  C73  1  0.32826000  0.12903000  0.58949000  1.0 -0.0682570367
C  C74  1  0.67174000  0.87097000  0.58949000  1.0 -0.0682570367
C  C75  1  0.67174000  0.12903000  0.41051000  1.0 -0.0682570367
C  C76  1  0.32826000  0.87097000  0.41051000  1.0 -0.0682570367
C  C77  1  0.58949000  0.32826000  0.12903000  1.0 -0.0682570367
C  C78  1  0.58949000  0.67174000  0.87097000  1.0 -0.0682570367
C  C79  1  0.41051000  0.67174000  0.12903000  1.0 -0.0682570367
C  C80  1  0.41051000  0.32826000  0.87097000  1.0 -0.0682570367
C  C81  1  0.12903000  0.58949000  0.32826000  1.0 -0.0682570367
C  C82  1  0.87097000  0.58949000  0.67174000  1.0 -0.0682570367
C  C83  1  0.12903000  0.41051000  0.67174000  1.0 -0.0682570367
C  C84  1  0.87097000  0.41051000  0.32826000  1.0 -0.0682570367
C  C85  1  0.12903000  0.32826000  0.41051000  1.0 -0.0682570367
C  C86  1  0.87097000  0.67174000  0.41051000  1.0 -0.0682570367
C  C87  1  0.12903000  0.67174000  0.58949000  1.0 -0.0682570367
C  C88  1  0.87097000  0.32826000  0.58949000  1.0 -0.0682570367
C  C89  1  0.32826000  0.58949000  0.87097000  1.0 -0.0682570367
C  C90  1  0.67174000  0.58949000  0.12903000  1.0 -0.0682570367
C  C91  1  0.67174000  0.41051000  0.87097000  1.0 -0.0682570367
C  C92  1  0.32826000  0.41051000  0.12903000  1.0 -0.0682570367
C  C93  1  0.58949000  0.12903000  0.67174000  1.0 -0.0682570367
C  C94  1  0.58949000  0.87097000  0.32826000  1.0 -0.0682570367
C  C95  1  0.41051000  0.12903000  0.32826000  1.0 -0.0682570367
C  C96  1  0.41051000  0.87097000  0.67174000  1.0 -0.0682570367
C  C97  1  0.67174000  0.87097000  0.41051000  1.0 -0.0682570367
C  C98  1  0.32826000  0.12903000  0.41051000  1.0 -0.0682570367
C  C99  1  0.32826000  0.87097000  0.58949000  1.0 -0.0682570367
C  C100  1  0.67174000  0.12903000  0.58949000  1.0 -0.0682570367
C  C101  1  0.41051000  0.67174000  0.87097000  1.0 -0.0682570367
C  C102  1  0.41051000  0.32826000  0.12903000  1.0 -0.0682570367
C  C103  1  0.58949000  0.32826000  0.87097000  1.0 -0.0682570367
C  C104  1  0.58949000  0.67174000  0.12903000  1.0 -0.0682570367
C  C105  1  0.87097000  0.41051000  0.67174000  1.0 -0.0682570367
C  C106  1  0.12903000  0.41051000  0.32826000  1.0 -0.0682570367
C  C107  1  0.87097000  0.58949000  0.32826000  1.0 -0.0682570367
C  C108  1  0.12903000  0.58949000  0.67174000  1.0 -0.0682570367
C  C109  1  0.87097000  0.67174000  0.58949000  1.0 -0.0682570367
C  C110  1  0.12903000  0.32826000  0.58949000  1.0 -0.0682570367
C  C111  1  0.87097000  0.32826000  0.41051000  1.0 -0.0682570367
C  C112  1  0.12903000  0.67174000  0.41051000  1.0 -0.0682570367
C  C113  1  0.67174000  0.41051000  0.12903000  1.0 -0.0682570367
C  C114  1  0.32826000  0.41051000  0.87097000  1.0 -0.0682570367
C  C115  1  0.32826000  0.58949000  0.12903000  1.0 -0.0682570367
C  C116  1  0.67174000  0.58949000  0.87097000  1.0 -0.0682570367
C  C117  1  0.41051000  0.87097000  0.32826000  1.0 -0.0682570367
C  C118  1  0.41051000  0.12903000  0.67174000  1.0 -0.0682570367
C  C119  1  0.58949000  0.87097000  0.67174000  1.0 -0.0682570367
C  C120  1  0.58949000  0.12903000  0.32826000  1.0 -0.0682570367
N  N1  1  0.37154000  0.07406000  0.57762000  1.0 -0.1117474043
N  N2  1  0.62846000  0.92594000  0.57762000  1.0 -0.1117474043
N  N3  1  0.62846000  0.07406000  0.42238000  1.0 -0.1117474043
N  N4  1  0.37154000  0.92594000  0.42238000  1.0 -0.1117474043
N  N5  1  0.57762000  0.37154000  0.07406000  1.0 -0.1117474043
N  N6  1  0.57762000  0.62846000  0.92594000  1.0 -0.1117474043
N  N7  1  0.42238000  0.62846000  0.07406000  1.0 -0.1117474043
N  N8  1  0.42238000  0.37154000  0.92594000  1.0 -0.1117474043
N  N9  1  0.07406000  0.57762000  0.37154000  1.0 -0.1117474043
N  N10  1  0.92594000  0.57762000  0.62846000  1.0 -0.1117474043
N  N11  1  0.07406000  0.42238000  0.62846000  1.0 -0.1117474043
N  N12  1  0.92594000  0.42238000  0.37154000  1.0 -0.1117474043
N  N13  1  0.07406000  0.37154000  0.42238000  1.0 -0.1117474043
N  N14  1  0.92594000  0.62846000  0.42238000  1.0 -0.1117474043
N  N15  1  0.07406000  0.62846000  0.57762000  1.0 -0.1117474043
N  N16  1  0.92594000  0.37154000  0.57762000  1.0 -0.1117474043
N  N17  1  0.37154000  0.57762000  0.92594000  1.0 -0.1117474043
N  N18  1  0.62846000  0.57762000  0.07406000  1.0 -0.1117474043
N  N19  1  0.62846000  0.42238000  0.92594000  1.0 -0.1117474043
N  N20  1  0.37154000  0.42238000  0.07406000  1.0 -0.1117474043
N  N21  1  0.57762000  0.07406000  0.62846000  1.0 -0.1117474043
N  N22  1  0.57762000  0.92594000  0.37154000  1.0 -0.1117474043
N  N23  1  0.42238000  0.07406000  0.37154000  1.0 -0.1117474043
N  N24  1  0.42238000  0.92594000  0.62846000  1.0 -0.1117474043
N  N25  1  0.62846000  0.92594000  0.42238000  1.0 -0.1117474043
N  N26  1  0.37154000  0.07406000  0.42238000  1.0 -0.1117474043
N  N27  1  0.37154000  0.92594000  0.57762000  1.0 -0.1117474043
N  N28  1  0.62846000  0.07406000  0.57762000  1.0 -0.1117474043
N  N29  1  0.42238000  0.62846000  0.92594000  1.0 -0.1117474043
N  N30  1  0.42238000  0.37154000  0.07406000  1.0 -0.1117474043
N  N31  1  0.57762000  0.37154000  0.92594000  1.0 -0.1117474043
N  N32  1  0.57762000  0.62846000  0.07406000  1.0 -0.1117474043
N  N33  1  0.92594000  0.42238000  0.62846000  1.0 -0.1117474043
N  N34  1  0.07406000  0.42238000  0.37154000  1.0 -0.1117474043
N  N35  1  0.92594000  0.57762000  0.37154000  1.0 -0.1117474043
N  N36  1  0.07406000  0.57762000  0.62846000  1.0 -0.1117474043
N  N37  1  0.92594000  0.62846000  0.57762000  1.0 -0.1117474043
N  N38  1  0.07406000  0.37154000  0.57762000  1.0 -0.1117474043
N  N39  1  0.92594000  0.37154000  0.42238000  1.0 -0.1117474043
N  N40  1  0.07406000  0.62846000  0.42238000  1.0 -0.1117474043
N  N41  1  0.62846000  0.42238000  0.07406000  1.0 -0.1117474043
N  N42  1  0.37154000  0.42238000  0.92594000  1.0 -0.1117474043
N  N43  1  0.37154000  0.57762000  0.07406000  1.0 -0.1117474043
N  N44  1  0.62846000  0.57762000  0.92594000  1.0 -0.1117474043
N  N45  1  0.42238000  0.92594000  0.37154000  1.0 -0.1117474043
N  N46  1  0.42238000  0.07406000  0.62846000  1.0 -0.1117474043
N  N47  1  0.57762000  0.92594000  0.62846000  1.0 -0.1117474043
N  N48  1  0.57762000  0.07406000  0.37154000  1.0 -0.1117474043
Cl  Cl1  1  0.50000000  0.00000000  0.50000000  1.0 -0.4050194799
Cl  Cl2  1  0.50000000  0.50000000  0.00000000  1.0 -0.4050194799
Cl  Cl3  1  0.00000000  0.50000000  0.50000000  1.0 -0.404525715
O  O1  1  0.17360000  0.17360000  0.50000000  1.0 -0.2966186706
O  O2  1  0.82640000  0.82640000  0.50000000  1.0 -0.2966186706
O  O3  1  0.82640000  0.17360000  0.50000000  1.0 -0.2966186706
O  O4  1  0.17360000  0.82640000  0.50000000  1.0 -0.2966186706
O  O5  1  0.50000000  0.17360000  0.17360000  1.0 -0.2966186706
O  O6  1  0.50000000  0.82640000  0.82640000  1.0 -0.2966186706
O  O7  1  0.50000000  0.82640000  0.17360000  1.0 -0.2966186706
O  O8  1  0.50000000  0.17360000  0.82640000  1.0 -0.2966186706
O  O9  1  0.17360000  0.50000000  0.17360000  1.0 -0.2966186706
O  O10  1  0.82640000  0.50000000  0.82640000  1.0 -0.2966186706
O  O11  1  0.17360000  0.50000000  0.82640000  1.0 -0.2966186706
O  O12  1  0.82640000  0.50000000  0.17360000  1.0 -0.2966186706
