# DDEC6 charges by PACMAN v1.1 (https://github.com/mtap-research/PACMAN-charge/)
data_AQOMEA_ASR_pacman
_symmetry_space_group_name_H-M   'P 1'
_cell_length_a   26.66130000
_cell_length_b   26.66130000
_cell_length_c   26.66130000
_cell_angle_alpha   60.00000000
_cell_angle_beta   60.00000000
_cell_angle_gamma   60.00000000
_symmetry_Int_Tables_number   1
_chemical_formula_structural   Co4H16C32N24Cl
_chemical_formula_sum   'Co24 H96 C192 N144 Cl6'
_cell_volume   13400.74574466
_cell_formula_units_Z   6
loop_
 _symmetry_equiv_pos_site_id
 _symmetry_equiv_pos_as_xyz
  1  'x, y, z'
loop_
 _atom_site_type_symbol
 _atom_site_label
 _atom_site_symmetry_multiplicity
 _atom_site_fract_x
 _atom_site_fract_y
 _atom_site_fract_z
 _atom_site_occupancy
 _atom_site_charge
Co  Co1  1  0.07107000  0.56309000  0.92893000  1.0 0.5831353254
Co  Co2  1  0.56309000  0.07107000  0.43691000  1.0 0.5831353254
Co  Co3  1  0.92893000  0.43691000  0.07107000  1.0 0.5831353254
Co  Co4  1  0.43691000  0.92893000  0.56309000  1.0 0.5831353254
Co  Co5  1  0.92893000  0.07107000  0.56309000  1.0 0.5831353254
Co  Co6  1  0.43691000  0.56309000  0.07107000  1.0 0.5831353254
Co  Co7  1  0.07107000  0.92893000  0.43691000  1.0 0.5831353254
Co  Co8  1  0.56309000  0.43691000  0.92893000  1.0 0.5831353254
Co  Co9  1  0.56309000  0.92893000  0.07107000  1.0 0.5831353254
Co  Co10  1  0.07107000  0.43691000  0.56309000  1.0 0.5831353254
Co  Co11  1  0.43691000  0.07107000  0.92893000  1.0 0.5831353254
Co  Co12  1  0.92893000  0.56309000  0.43691000  1.0 0.5831353254
Co  Co13  1  0.42893000  0.93691000  0.06309000  1.0 0.5831353254
Co  Co14  1  0.93691000  0.42893000  0.57107000  1.0 0.5831353254
Co  Co15  1  0.57107000  0.06309000  0.93691000  1.0 0.5831353254
Co  Co16  1  0.06309000  0.57107000  0.42893000  1.0 0.5831353254
Co  Co17  1  0.57107000  0.42893000  0.06309000  1.0 0.5831353254
Co  Co18  1  0.06309000  0.93691000  0.57107000  1.0 0.5831353254
Co  Co19  1  0.42893000  0.57107000  0.93691000  1.0 0.5831353254
Co  Co20  1  0.93691000  0.06309000  0.42893000  1.0 0.5831353254
Co  Co21  1  0.93691000  0.57107000  0.06309000  1.0 0.5831353254
Co  Co22  1  0.42893000  0.06309000  0.57107000  1.0 0.5831353254
Co  Co23  1  0.06309000  0.42893000  0.93691000  1.0 0.5831353254
Co  Co24  1  0.57107000  0.93691000  0.42893000  1.0 0.5831353254
H  H1  1  0.05910000  0.49210000  0.79490000  1.0 0.1269334194
H  H2  1  0.49210000  0.05910000  0.65390000  1.0 0.1269334194
H  H3  1  0.79490000  0.65390000  0.05910000  1.0 0.1269334194
H  H4  1  0.65390000  0.79490000  0.49210000  1.0 0.1269334194
H  H5  1  0.79490000  0.05910000  0.49210000  1.0 0.1269334194
H  H6  1  0.65390000  0.49210000  0.05910000  1.0 0.1269334194
H  H7  1  0.05910000  0.79490000  0.65390000  1.0 0.1269334194
H  H8  1  0.49210000  0.65390000  0.79490000  1.0 0.1269334194
H  H9  1  0.49210000  0.79490000  0.05910000  1.0 0.1269334194
H  H10  1  0.05910000  0.65390000  0.49210000  1.0 0.1269334194
H  H11  1  0.65390000  0.05910000  0.79490000  1.0 0.1269334194
H  H12  1  0.79490000  0.49210000  0.65390000  1.0 0.1269334194
H  H13  1  0.44090000  0.00790000  0.84610000  1.0 0.1269334194
H  H14  1  0.00790000  0.44090000  0.70510000  1.0 0.1269334194
H  H15  1  0.70510000  0.84610000  0.00790000  1.0 0.1269334194
H  H16  1  0.84610000  0.70510000  0.44090000  1.0 0.1269334194
H  H17  1  0.70510000  0.44090000  0.84610000  1.0 0.1269334194
H  H18  1  0.84610000  0.00790000  0.70510000  1.0 0.1269334194
H  H19  1  0.44090000  0.70510000  0.00790000  1.0 0.1269334194
H  H20  1  0.00790000  0.84610000  0.44090000  1.0 0.1269334194
H  H21  1  0.00790000  0.70510000  0.84610000  1.0 0.1269334194
H  H22  1  0.44090000  0.84610000  0.70510000  1.0 0.1269334194
H  H23  1  0.84610000  0.44090000  0.00790000  1.0 0.1269334194
H  H24  1  0.70510000  0.00790000  0.44090000  1.0 0.1269334194
H  H25  1  0.94090000  0.50790000  0.20510000  1.0 0.1269334194
H  H26  1  0.50790000  0.94090000  0.34610000  1.0 0.1269334194
H  H27  1  0.20510000  0.34610000  0.94090000  1.0 0.1269334194
H  H28  1  0.34610000  0.20510000  0.50790000  1.0 0.1269334194
H  H29  1  0.20510000  0.94090000  0.50790000  1.0 0.1269334194
H  H30  1  0.34610000  0.50790000  0.94090000  1.0 0.1269334194
H  H31  1  0.94090000  0.20510000  0.34610000  1.0 0.1269334194
H  H32  1  0.50790000  0.34610000  0.20510000  1.0 0.1269334194
H  H33  1  0.50790000  0.20510000  0.94090000  1.0 0.1269334194
H  H34  1  0.94090000  0.34610000  0.50790000  1.0 0.1269334194
H  H35  1  0.34610000  0.94090000  0.20510000  1.0 0.1269334194
H  H36  1  0.20510000  0.50790000  0.34610000  1.0 0.1269334194
H  H37  1  0.55910000  0.99210000  0.15390000  1.0 0.1269334194
H  H38  1  0.99210000  0.55910000  0.29490000  1.0 0.1269334194
H  H39  1  0.29490000  0.15390000  0.99210000  1.0 0.1269334194
H  H40  1  0.15390000  0.29490000  0.55910000  1.0 0.1269334194
H  H41  1  0.29490000  0.55910000  0.15390000  1.0 0.1269334194
H  H42  1  0.15390000  0.99210000  0.29490000  1.0 0.1269334194
H  H43  1  0.55910000  0.29490000  0.99210000  1.0 0.1269334194
H  H44  1  0.99210000  0.15390000  0.55910000  1.0 0.1269334194
H  H45  1  0.99210000  0.29490000  0.15390000  1.0 0.1269334194
H  H46  1  0.55910000  0.15390000  0.29490000  1.0 0.1269334194
H  H47  1  0.15390000  0.55910000  0.99210000  1.0 0.1269334194
H  H48  1  0.29490000  0.99210000  0.55910000  1.0 0.1269334194
H  H49  1  0.06180000  0.54600000  0.69120000  1.0 0.118735259
H  H50  1  0.54600000  0.06180000  0.70100000  1.0 0.118735259
H  H51  1  0.69120000  0.70100000  0.06180000  1.0 0.118735259
H  H52  1  0.70100000  0.69120000  0.54600000  1.0 0.118735259
H  H53  1  0.69120000  0.06180000  0.54600000  1.0 0.118735259
H  H54  1  0.70100000  0.54600000  0.06180000  1.0 0.118735259
H  H55  1  0.06180000  0.69120000  0.70100000  1.0 0.118735259
H  H56  1  0.54600000  0.70100000  0.69120000  1.0 0.118735259
H  H57  1  0.54600000  0.69120000  0.06180000  1.0 0.118735259
H  H58  1  0.06180000  0.70100000  0.54600000  1.0 0.118735259
H  H59  1  0.70100000  0.06180000  0.69120000  1.0 0.118735259
H  H60  1  0.69120000  0.54600000  0.70100000  1.0 0.118735259
H  H61  1  0.43820000  0.95400000  0.79900000  1.0 0.118735259
H  H62  1  0.95400000  0.43820000  0.80880000  1.0 0.118735259
H  H63  1  0.80880000  0.79900000  0.95400000  1.0 0.118735259
H  H64  1  0.79900000  0.80880000  0.43820000  1.0 0.118735259
H  H65  1  0.80880000  0.43820000  0.79900000  1.0 0.118735259
H  H66  1  0.79900000  0.95400000  0.80880000  1.0 0.118735259
H  H67  1  0.43820000  0.80880000  0.95400000  1.0 0.118735259
H  H68  1  0.95400000  0.79900000  0.43820000  1.0 0.118735259
H  H69  1  0.95400000  0.80880000  0.79900000  1.0 0.118735259
H  H70  1  0.43820000  0.79900000  0.80880000  1.0 0.118735259
H  H71  1  0.79900000  0.43820000  0.95400000  1.0 0.118735259
H  H72  1  0.80880000  0.95400000  0.43820000  1.0 0.118735259
H  H73  1  0.93820000  0.45400000  0.30880000  1.0 0.118735259
H  H74  1  0.45400000  0.93820000  0.29900000  1.0 0.118735259
H  H75  1  0.30880000  0.29900000  0.93820000  1.0 0.118735259
H  H76  1  0.29900000  0.30880000  0.45400000  1.0 0.118735259
H  H77  1  0.30880000  0.93820000  0.45400000  1.0 0.118735259
H  H78  1  0.29900000  0.45400000  0.93820000  1.0 0.118735259
H  H79  1  0.93820000  0.30880000  0.29900000  1.0 0.118735259
H  H80  1  0.45400000  0.29900000  0.30880000  1.0 0.118735259
H  H81  1  0.45400000  0.30880000  0.93820000  1.0 0.118735259
H  H82  1  0.93820000  0.29900000  0.45400000  1.0 0.118735259
H  H83  1  0.29900000  0.93820000  0.30880000  1.0 0.118735259
H  H84  1  0.30880000  0.45400000  0.29900000  1.0 0.118735259
H  H85  1  0.56180000  0.04600000  0.20100000  1.0 0.118735259
H  H86  1  0.04600000  0.56180000  0.19120000  1.0 0.118735259
H  H87  1  0.19120000  0.20100000  0.04600000  1.0 0.118735259
H  H88  1  0.20100000  0.19120000  0.56180000  1.0 0.118735259
H  H89  1  0.19120000  0.56180000  0.20100000  1.0 0.118735259
H  H90  1  0.20100000  0.04600000  0.19120000  1.0 0.118735259
H  H91  1  0.56180000  0.19120000  0.04600000  1.0 0.118735259
H  H92  1  0.04600000  0.20100000  0.56180000  1.0 0.118735259
H  H93  1  0.04600000  0.19120000  0.20100000  1.0 0.118735259
H  H94  1  0.56180000  0.20100000  0.19120000  1.0 0.118735259
H  H95  1  0.20100000  0.56180000  0.04600000  1.0 0.118735259
H  H96  1  0.19120000  0.04600000  0.56180000  1.0 0.118735259
C  C1  1  0.06178000  0.51850000  0.80598000  1.0 -0.069380572
C  C2  1  0.51850000  0.06178000  0.61374000  1.0 -0.069380572
C  C3  1  0.80598000  0.61374000  0.06178000  1.0 -0.069380572
C  C4  1  0.61374000  0.80598000  0.51850000  1.0 -0.069380572
C  C5  1  0.80598000  0.06178000  0.51850000  1.0 -0.069380572
C  C6  1  0.61374000  0.51850000  0.06178000  1.0 -0.069380572
C  C7  1  0.06178000  0.80598000  0.61374000  1.0 -0.069380572
C  C8  1  0.51850000  0.61374000  0.80598000  1.0 -0.069380572
C  C9  1  0.51850000  0.80598000  0.06178000  1.0 -0.069380572
C  C10  1  0.06178000  0.61374000  0.51850000  1.0 -0.069380572
C  C11  1  0.61374000  0.06178000  0.80598000  1.0 -0.069380572
C  C12  1  0.80598000  0.51850000  0.61374000  1.0 -0.069380572
C  C13  1  0.43822000  0.98150000  0.88626000  1.0 -0.069380572
C  C14  1  0.98150000  0.43822000  0.69402000  1.0 -0.069380572
C  C15  1  0.69402000  0.88626000  0.98150000  1.0 -0.069380572
C  C16  1  0.88626000  0.69402000  0.43822000  1.0 -0.069380572
C  C17  1  0.69402000  0.43822000  0.88626000  1.0 -0.069380572
C  C18  1  0.88626000  0.98150000  0.69402000  1.0 -0.069380572
C  C19  1  0.43822000  0.69402000  0.98150000  1.0 -0.069380572
C  C20  1  0.98150000  0.88626000  0.43822000  1.0 -0.069380572
C  C21  1  0.98150000  0.69402000  0.88626000  1.0 -0.069380572
C  C22  1  0.43822000  0.88626000  0.69402000  1.0 -0.069380572
C  C23  1  0.88626000  0.43822000  0.98150000  1.0 -0.069380572
C  C24  1  0.69402000  0.98150000  0.43822000  1.0 -0.069380572
C  C25  1  0.93822000  0.48150000  0.19402000  1.0 -0.069380572
C  C26  1  0.48150000  0.93822000  0.38626000  1.0 -0.069380572
C  C27  1  0.19402000  0.38626000  0.93822000  1.0 -0.069380572
C  C28  1  0.38626000  0.19402000  0.48150000  1.0 -0.069380572
C  C29  1  0.19402000  0.93822000  0.48150000  1.0 -0.069380572
C  C30  1  0.38626000  0.48150000  0.93822000  1.0 -0.069380572
C  C31  1  0.93822000  0.19402000  0.38626000  1.0 -0.069380572
C  C32  1  0.48150000  0.38626000  0.19402000  1.0 -0.069380572
C  C33  1  0.48150000  0.19402000  0.93822000  1.0 -0.069380572
C  C34  1  0.93822000  0.38626000  0.48150000  1.0 -0.069380572
C  C35  1  0.38626000  0.93822000  0.19402000  1.0 -0.069380572
C  C36  1  0.19402000  0.48150000  0.38626000  1.0 -0.069380572
C  C37  1  0.56178000  0.01850000  0.11374000  1.0 -0.069380572
C  C38  1  0.01850000  0.56178000  0.30598000  1.0 -0.069380572
C  C39  1  0.30598000  0.11374000  0.01850000  1.0 -0.069380572
C  C40  1  0.11374000  0.30598000  0.56178000  1.0 -0.069380572
C  C41  1  0.30598000  0.56178000  0.11374000  1.0 -0.069380572
C  C42  1  0.11374000  0.01850000  0.30598000  1.0 -0.069380572
C  C43  1  0.56178000  0.30598000  0.01850000  1.0 -0.069380572
C  C44  1  0.01850000  0.11374000  0.56178000  1.0 -0.069380572
C  C45  1  0.01850000  0.30598000  0.11374000  1.0 -0.069380572
C  C46  1  0.56178000  0.11374000  0.30598000  1.0 -0.069380572
C  C47  1  0.11374000  0.56178000  0.01850000  1.0 -0.069380572
C  C48  1  0.30598000  0.01850000  0.56178000  1.0 -0.069380572
C  C49  1  0.06401000  0.57705000  0.76953000  1.0 0.1081162684
C  C50  1  0.57705000  0.06401000  0.58941000  1.0 0.1081162684
C  C51  1  0.76953000  0.58941000  0.06401000  1.0 0.1081162684
C  C52  1  0.58941000  0.76953000  0.57705000  1.0 0.1081162684
C  C53  1  0.76953000  0.06401000  0.57705000  1.0 0.1081162684
C  C54  1  0.58941000  0.57705000  0.06401000  1.0 0.1081162684
C  C55  1  0.06401000  0.76953000  0.58941000  1.0 0.1081162684
C  C56  1  0.57705000  0.58941000  0.76953000  1.0 0.1081162684
C  C57  1  0.57705000  0.76953000  0.06401000  1.0 0.1081162684
C  C58  1  0.06401000  0.58941000  0.57705000  1.0 0.1081162684
C  C59  1  0.58941000  0.06401000  0.76953000  1.0 0.1081162684
C  C60  1  0.76953000  0.57705000  0.58941000  1.0 0.1081162684
C  C61  1  0.43599000  0.92295000  0.91059000  1.0 0.1081162684
C  C62  1  0.92295000  0.43599000  0.73047000  1.0 0.1081162684
C  C63  1  0.73047000  0.91059000  0.92295000  1.0 0.1081162684
C  C64  1  0.91059000  0.73047000  0.43599000  1.0 0.1081162684
C  C65  1  0.73047000  0.43599000  0.91059000  1.0 0.1081162684
C  C66  1  0.91059000  0.92295000  0.73047000  1.0 0.1081162684
C  C67  1  0.43599000  0.73047000  0.92295000  1.0 0.1081162684
C  C68  1  0.92295000  0.91059000  0.43599000  1.0 0.1081162684
C  C69  1  0.92295000  0.73047000  0.91059000  1.0 0.1081162684
C  C70  1  0.43599000  0.91059000  0.73047000  1.0 0.1081162684
C  C71  1  0.91059000  0.43599000  0.92295000  1.0 0.1081162684
C  C72  1  0.73047000  0.92295000  0.43599000  1.0 0.1081162684
C  C73  1  0.93599000  0.42295000  0.23047000  1.0 0.1081162684
C  C74  1  0.42295000  0.93599000  0.41059000  1.0 0.1081162684
C  C75  1  0.23047000  0.41059000  0.93599000  1.0 0.1081162684
C  C76  1  0.41059000  0.23047000  0.42295000  1.0 0.1081162684
C  C77  1  0.23047000  0.93599000  0.42295000  1.0 0.1081162684
C  C78  1  0.41059000  0.42295000  0.93599000  1.0 0.1081162684
C  C79  1  0.93599000  0.23047000  0.41059000  1.0 0.1081162684
C  C80  1  0.42295000  0.41059000  0.23047000  1.0 0.1081162684
C  C81  1  0.42295000  0.23047000  0.93599000  1.0 0.1081162684
C  C82  1  0.93599000  0.41059000  0.42295000  1.0 0.1081162684
C  C83  1  0.41059000  0.93599000  0.23047000  1.0 0.1081162684
C  C84  1  0.23047000  0.42295000  0.41059000  1.0 0.1081162684
C  C85  1  0.56401000  0.07705000  0.08941000  1.0 0.1081162684
C  C86  1  0.07705000  0.56401000  0.26953000  1.0 0.1081162684
C  C87  1  0.26953000  0.08941000  0.07705000  1.0 0.1081162684
C  C88  1  0.08941000  0.26953000  0.56401000  1.0 0.1081162684
C  C89  1  0.26953000  0.56401000  0.08941000  1.0 0.1081162684
C  C90  1  0.08941000  0.07705000  0.26953000  1.0 0.1081162684
C  C91  1  0.56401000  0.26953000  0.07705000  1.0 0.1081162684
C  C92  1  0.07705000  0.08941000  0.56401000  1.0 0.1081162684
C  C93  1  0.07705000  0.26953000  0.08941000  1.0 0.1081162684
C  C94  1  0.56401000  0.08941000  0.26953000  1.0 0.1081162684
C  C95  1  0.08941000  0.56401000  0.07705000  1.0 0.1081162684
C  C96  1  0.26953000  0.07705000  0.56401000  1.0 0.1081162684
C  C97  1  0.06296000  0.61254000  0.70604000  1.0 0.0770333118
C  C98  1  0.61254000  0.06296000  0.61846000  1.0 0.0770333118
C  C99  1  0.70604000  0.61846000  0.06296000  1.0 0.0770333118
C  C100  1  0.61846000  0.70604000  0.61254000  1.0 0.0770333118
C  C101  1  0.70604000  0.06296000  0.61254000  1.0 0.0770333118
C  C102  1  0.61846000  0.61254000  0.06296000  1.0 0.0770333118
C  C103  1  0.06296000  0.70604000  0.61846000  1.0 0.0770333118
C  C104  1  0.61254000  0.61846000  0.70604000  1.0 0.0770333118
C  C105  1  0.61254000  0.70604000  0.06296000  1.0 0.0770333118
C  C106  1  0.06296000  0.61846000  0.61254000  1.0 0.0770333118
C  C107  1  0.61846000  0.06296000  0.70604000  1.0 0.0770333118
C  C108  1  0.70604000  0.61254000  0.61846000  1.0 0.0770333118
C  C109  1  0.43704000  0.88746000  0.88154000  1.0 0.0770333118
C  C110  1  0.88746000  0.43704000  0.79396000  1.0 0.0770333118
C  C111  1  0.79396000  0.88154000  0.88746000  1.0 0.0770333118
C  C112  1  0.88154000  0.79396000  0.43704000  1.0 0.0770333118
C  C113  1  0.79396000  0.43704000  0.88154000  1.0 0.0770333118
C  C114  1  0.88154000  0.88746000  0.79396000  1.0 0.0770333118
C  C115  1  0.43704000  0.79396000  0.88746000  1.0 0.0770333118
C  C116  1  0.88746000  0.88154000  0.43704000  1.0 0.0770333118
C  C117  1  0.88746000  0.79396000  0.88154000  1.0 0.0770333118
C  C118  1  0.43704000  0.88154000  0.79396000  1.0 0.0770333118
C  C119  1  0.88154000  0.43704000  0.88746000  1.0 0.0770333118
C  C120  1  0.79396000  0.88746000  0.43704000  1.0 0.0770333118
C  C121  1  0.93704000  0.38746000  0.29396000  1.0 0.0770333118
C  C122  1  0.38746000  0.93704000  0.38154000  1.0 0.0770333118
C  C123  1  0.29396000  0.38154000  0.93704000  1.0 0.0770333118
C  C124  1  0.38154000  0.29396000  0.38746000  1.0 0.0770333118
C  C125  1  0.29396000  0.93704000  0.38746000  1.0 0.0770333118
C  C126  1  0.38154000  0.38746000  0.93704000  1.0 0.0770333118
C  C127  1  0.93704000  0.29396000  0.38154000  1.0 0.0770333118
C  C128  1  0.38746000  0.38154000  0.29396000  1.0 0.0770333118
C  C129  1  0.38746000  0.29396000  0.93704000  1.0 0.0770333118
C  C130  1  0.93704000  0.38154000  0.38746000  1.0 0.0770333118
C  C131  1  0.38154000  0.93704000  0.29396000  1.0 0.0770333118
C  C132  1  0.29396000  0.38746000  0.38154000  1.0 0.0770333118
C  C133  1  0.56296000  0.11254000  0.11846000  1.0 0.0770333118
C  C134  1  0.11254000  0.56296000  0.20604000  1.0 0.0770333118
C  C135  1  0.20604000  0.11846000  0.11254000  1.0 0.0770333118
C  C136  1  0.11846000  0.20604000  0.56296000  1.0 0.0770333118
C  C137  1  0.20604000  0.56296000  0.11846000  1.0 0.0770333118
C  C138  1  0.11846000  0.11254000  0.20604000  1.0 0.0770333118
C  C139  1  0.56296000  0.20604000  0.11254000  1.0 0.0770333118
C  C140  1  0.11254000  0.11846000  0.56296000  1.0 0.0770333118
C  C141  1  0.11254000  0.20604000  0.11846000  1.0 0.0770333118
C  C142  1  0.56296000  0.11846000  0.20604000  1.0 0.0770333118
C  C143  1  0.11846000  0.56296000  0.11254000  1.0 0.0770333118
C  C144  1  0.20604000  0.11254000  0.56296000  1.0 0.0770333118
C  C145  1  0.06243000  0.58605000  0.67283000  1.0 -0.1738999465
C  C146  1  0.58605000  0.06243000  0.67869000  1.0 -0.1738999465
C  C147  1  0.67283000  0.67869000  0.06243000  1.0 -0.1738999465
C  C148  1  0.67869000  0.67283000  0.58605000  1.0 -0.1738999465
C  C149  1  0.67283000  0.06243000  0.58605000  1.0 -0.1738999465
C  C150  1  0.67869000  0.58605000  0.06243000  1.0 -0.1738999465
C  C151  1  0.06243000  0.67283000  0.67869000  1.0 -0.1738999465
C  C152  1  0.58605000  0.67869000  0.67283000  1.0 -0.1738999465
C  C153  1  0.58605000  0.67283000  0.06243000  1.0 -0.1738999465
C  C154  1  0.06243000  0.67869000  0.58605000  1.0 -0.1738999465
C  C155  1  0.67869000  0.06243000  0.67283000  1.0 -0.1738999465
C  C156  1  0.67283000  0.58605000  0.67869000  1.0 -0.1738999465
C  C157  1  0.43757000  0.91395000  0.82131000  1.0 -0.1738999465
C  C158  1  0.91395000  0.43757000  0.82717000  1.0 -0.1738999465
C  C159  1  0.82717000  0.82131000  0.91395000  1.0 -0.1738999465
C  C160  1  0.82131000  0.82717000  0.43757000  1.0 -0.1738999465
C  C161  1  0.82717000  0.43757000  0.82131000  1.0 -0.1738999465
C  C162  1  0.82131000  0.91395000  0.82717000  1.0 -0.1738999465
C  C163  1  0.43757000  0.82717000  0.91395000  1.0 -0.1738999465
C  C164  1  0.91395000  0.82131000  0.43757000  1.0 -0.1738999465
C  C165  1  0.91395000  0.82717000  0.82131000  1.0 -0.1738999465
C  C166  1  0.43757000  0.82131000  0.82717000  1.0 -0.1738999465
C  C167  1  0.82131000  0.43757000  0.91395000  1.0 -0.1738999465
C  C168  1  0.82717000  0.91395000  0.43757000  1.0 -0.1738999465
C  C169  1  0.93757000  0.41395000  0.32717000  1.0 -0.1738999465
C  C170  1  0.41395000  0.93757000  0.32131000  1.0 -0.1738999465
C  C171  1  0.32717000  0.32131000  0.93757000  1.0 -0.1738999465
C  C172  1  0.32131000  0.32717000  0.41395000  1.0 -0.1738999465
C  C173  1  0.32717000  0.93757000  0.41395000  1.0 -0.1738999465
C  C174  1  0.32131000  0.41395000  0.93757000  1.0 -0.1738999465
C  C175  1  0.93757000  0.32717000  0.32131000  1.0 -0.1738999465
C  C176  1  0.41395000  0.32131000  0.32717000  1.0 -0.1738999465
C  C177  1  0.41395000  0.32717000  0.93757000  1.0 -0.1738999465
C  C178  1  0.93757000  0.32131000  0.41395000  1.0 -0.1738999465
C  C179  1  0.32131000  0.93757000  0.32717000  1.0 -0.1738999465
C  C180  1  0.32717000  0.41395000  0.32131000  1.0 -0.1738999465
C  C181  1  0.56243000  0.08605000  0.17869000  1.0 -0.1738999465
C  C182  1  0.08605000  0.56243000  0.17283000  1.0 -0.1738999465
C  C183  1  0.17283000  0.17869000  0.08605000  1.0 -0.1738999465
C  C184  1  0.17869000  0.17283000  0.56243000  1.0 -0.1738999465
C  C185  1  0.17283000  0.56243000  0.17869000  1.0 -0.1738999465
C  C186  1  0.17869000  0.08605000  0.17283000  1.0 -0.1738999465
C  C187  1  0.56243000  0.17283000  0.08605000  1.0 -0.1738999465
C  C188  1  0.08605000  0.17869000  0.56243000  1.0 -0.1738999465
C  C189  1  0.08605000  0.17283000  0.17869000  1.0 -0.1738999465
C  C190  1  0.56243000  0.17869000  0.17283000  1.0 -0.1738999465
C  C191  1  0.17869000  0.56243000  0.08605000  1.0 -0.1738999465
C  C192  1  0.17283000  0.08605000  0.56243000  1.0 -0.1738999465
N  N1  1  0.06422000  0.50632000  0.85966000  1.0 -0.1608319001
N  N2  1  0.50632000  0.06422000  0.56980000  1.0 -0.1608319001
N  N3  1  0.85966000  0.56980000  0.06422000  1.0 -0.1608319001
N  N4  1  0.56980000  0.85966000  0.50632000  1.0 -0.1608319001
N  N5  1  0.85966000  0.06422000  0.50632000  1.0 -0.1608319001
N  N6  1  0.56980000  0.50632000  0.06422000  1.0 -0.1608319001
N  N7  1  0.06422000  0.85966000  0.56980000  1.0 -0.1608319001
N  N8  1  0.50632000  0.56980000  0.85966000  1.0 -0.1608319001
N  N9  1  0.50632000  0.85966000  0.06422000  1.0 -0.1608319001
N  N10  1  0.06422000  0.56980000  0.50632000  1.0 -0.1608319001
N  N11  1  0.56980000  0.06422000  0.85966000  1.0 -0.1608319001
N  N12  1  0.85966000  0.50632000  0.56980000  1.0 -0.1608319001
N  N13  1  0.43578000  0.99368000  0.93020000  1.0 -0.1608319001
N  N14  1  0.99368000  0.43578000  0.64034000  1.0 -0.1608319001
N  N15  1  0.64034000  0.93020000  0.99368000  1.0 -0.1608319001
N  N16  1  0.93020000  0.64034000  0.43578000  1.0 -0.1608319001
N  N17  1  0.64034000  0.43578000  0.93020000  1.0 -0.1608319001
N  N18  1  0.93020000  0.99368000  0.64034000  1.0 -0.1608319001
N  N19  1  0.43578000  0.64034000  0.99368000  1.0 -0.1608319001
N  N20  1  0.99368000  0.93020000  0.43578000  1.0 -0.1608319001
N  N21  1  0.99368000  0.64034000  0.93020000  1.0 -0.1608319001
N  N22  1  0.43578000  0.93020000  0.64034000  1.0 -0.1608319001
N  N23  1  0.93020000  0.43578000  0.99368000  1.0 -0.1608319001
N  N24  1  0.64034000  0.99368000  0.43578000  1.0 -0.1608319001
N  N25  1  0.93578000  0.49368000  0.14034000  1.0 -0.1608319001
N  N26  1  0.49368000  0.93578000  0.43020000  1.0 -0.1608319001
N  N27  1  0.14034000  0.43020000  0.93578000  1.0 -0.1608319001
N  N28  1  0.43020000  0.14034000  0.49368000  1.0 -0.1608319001
N  N29  1  0.14034000  0.93578000  0.49368000  1.0 -0.1608319001
N  N30  1  0.43020000  0.49368000  0.93578000  1.0 -0.1608319001
N  N31  1  0.93578000  0.14034000  0.43020000  1.0 -0.1608319001
N  N32  1  0.49368000  0.43020000  0.14034000  1.0 -0.1608319001
N  N33  1  0.49368000  0.14034000  0.93578000  1.0 -0.1608319001
N  N34  1  0.93578000  0.43020000  0.49368000  1.0 -0.1608319001
N  N35  1  0.43020000  0.93578000  0.14034000  1.0 -0.1608319001
N  N36  1  0.14034000  0.49368000  0.43020000  1.0 -0.1608319001
N  N37  1  0.56422000  0.00632000  0.06980000  1.0 -0.1608319001
N  N38  1  0.00632000  0.56422000  0.35966000  1.0 -0.1608319001
N  N39  1  0.35966000  0.06980000  0.00632000  1.0 -0.1608319001
N  N40  1  0.06980000  0.35966000  0.56422000  1.0 -0.1608319001
N  N41  1  0.35966000  0.56422000  0.06980000  1.0 -0.1608319001
N  N42  1  0.06980000  0.00632000  0.35966000  1.0 -0.1608319001
N  N43  1  0.56422000  0.35966000  0.00632000  1.0 -0.1608319001
N  N44  1  0.00632000  0.06980000  0.56422000  1.0 -0.1608319001
N  N45  1  0.00632000  0.35966000  0.06980000  1.0 -0.1608319001
N  N46  1  0.56422000  0.06980000  0.35966000  1.0 -0.1608319001
N  N47  1  0.06980000  0.56422000  0.00632000  1.0 -0.1608319001
N  N48  1  0.35966000  0.00632000  0.56422000  1.0 -0.1608319001
N  N49  1  0.06727000  0.55695000  0.85661000  1.0 -0.0136875708
N  N50  1  0.55695000  0.06727000  0.51917000  1.0 -0.0136875708
N  N51  1  0.85661000  0.51917000  0.06727000  1.0 -0.0136875708
N  N52  1  0.51917000  0.85661000  0.55695000  1.0 -0.0136875708
N  N53  1  0.85661000  0.06727000  0.55695000  1.0 -0.0136875708
N  N54  1  0.51917000  0.55695000  0.06727000  1.0 -0.0136875708
N  N55  1  0.06727000  0.85661000  0.51917000  1.0 -0.0136875708
N  N56  1  0.55695000  0.51917000  0.85661000  1.0 -0.0136875708
N  N57  1  0.55695000  0.85661000  0.06727000  1.0 -0.0136875708
N  N58  1  0.06727000  0.51917000  0.55695000  1.0 -0.0136875708
N  N59  1  0.51917000  0.06727000  0.85661000  1.0 -0.0136875708
N  N60  1  0.85661000  0.55695000  0.51917000  1.0 -0.0136875708
N  N61  1  0.43273000  0.94305000  0.98083000  1.0 -0.0136875708
N  N62  1  0.94305000  0.43273000  0.64339000  1.0 -0.0136875708
N  N63  1  0.64339000  0.98083000  0.94305000  1.0 -0.0136875708
N  N64  1  0.98083000  0.64339000  0.43273000  1.0 -0.0136875708
N  N65  1  0.64339000  0.43273000  0.98083000  1.0 -0.0136875708
N  N66  1  0.98083000  0.94305000  0.64339000  1.0 -0.0136875708
N  N67  1  0.43273000  0.64339000  0.94305000  1.0 -0.0136875708
N  N68  1  0.94305000  0.98083000  0.43273000  1.0 -0.0136875708
N  N69  1  0.94305000  0.64339000  0.98083000  1.0 -0.0136875708
N  N70  1  0.43273000  0.98083000  0.64339000  1.0 -0.0136875708
N  N71  1  0.98083000  0.43273000  0.94305000  1.0 -0.0136875708
N  N72  1  0.64339000  0.94305000  0.43273000  1.0 -0.0136875708
N  N73  1  0.93273000  0.44305000  0.14339000  1.0 -0.0136875708
N  N74  1  0.44305000  0.93273000  0.48083000  1.0 -0.0136875708
N  N75  1  0.14339000  0.48083000  0.93273000  1.0 -0.0136875708
N  N76  1  0.48083000  0.14339000  0.44305000  1.0 -0.0136875708
N  N77  1  0.14339000  0.93273000  0.44305000  1.0 -0.0136875708
N  N78  1  0.48083000  0.44305000  0.93273000  1.0 -0.0136875708
N  N79  1  0.93273000  0.14339000  0.48083000  1.0 -0.0136875708
N  N80  1  0.44305000  0.48083000  0.14339000  1.0 -0.0136875708
N  N81  1  0.44305000  0.14339000  0.93273000  1.0 -0.0136875708
N  N82  1  0.93273000  0.48083000  0.44305000  1.0 -0.0136875708
N  N83  1  0.48083000  0.93273000  0.14339000  1.0 -0.0136875708
N  N84  1  0.14339000  0.44305000  0.48083000  1.0 -0.0136875708
N  N85  1  0.56727000  0.05695000  0.01917000  1.0 -0.0136875708
N  N86  1  0.05695000  0.56727000  0.35661000  1.0 -0.0136875708
N  N87  1  0.35661000  0.01917000  0.05695000  1.0 -0.0136875708
N  N88  1  0.01917000  0.35661000  0.56727000  1.0 -0.0136875708
N  N89  1  0.35661000  0.56727000  0.01917000  1.0 -0.0136875708
N  N90  1  0.01917000  0.05695000  0.35661000  1.0 -0.0136875708
N  N91  1  0.56727000  0.35661000  0.05695000  1.0 -0.0136875708
N  N92  1  0.05695000  0.01917000  0.56727000  1.0 -0.0136875708
N  N93  1  0.05695000  0.35661000  0.01917000  1.0 -0.0136875708
N  N94  1  0.56727000  0.01917000  0.35661000  1.0 -0.0136875708
N  N95  1  0.01917000  0.56727000  0.05695000  1.0 -0.0136875708
N  N96  1  0.35661000  0.05695000  0.56727000  1.0 -0.0136875708
N  N97  1  0.06738000  0.60016000  0.80246000  1.0 -0.2476445772
N  N98  1  0.60016000  0.06738000  0.53000000  1.0 -0.2476445772
N  N99  1  0.80246000  0.53000000  0.06738000  1.0 -0.2476445772
N  N100  1  0.53000000  0.80246000  0.60016000  1.0 -0.2476445772
N  N101  1  0.80246000  0.06738000  0.60016000  1.0 -0.2476445772
N  N102  1  0.53000000  0.60016000  0.06738000  1.0 -0.2476445772
N  N103  1  0.06738000  0.80246000  0.53000000  1.0 -0.2476445772
N  N104  1  0.60016000  0.53000000  0.80246000  1.0 -0.2476445772
N  N105  1  0.60016000  0.80246000  0.06738000  1.0 -0.2476445772
N  N106  1  0.06738000  0.53000000  0.60016000  1.0 -0.2476445772
N  N107  1  0.53000000  0.06738000  0.80246000  1.0 -0.2476445772
N  N108  1  0.80246000  0.60016000  0.53000000  1.0 -0.2476445772
N  N109  1  0.43262000  0.89984000  0.97000000  1.0 -0.2476445772
N  N110  1  0.89984000  0.43262000  0.69754000  1.0 -0.2476445772
N  N111  1  0.69754000  0.97000000  0.89984000  1.0 -0.2476445772
N  N112  1  0.97000000  0.69754000  0.43262000  1.0 -0.2476445772
N  N113  1  0.69754000  0.43262000  0.97000000  1.0 -0.2476445772
N  N114  1  0.97000000  0.89984000  0.69754000  1.0 -0.2476445772
N  N115  1  0.43262000  0.69754000  0.89984000  1.0 -0.2476445772
N  N116  1  0.89984000  0.97000000  0.43262000  1.0 -0.2476445772
N  N117  1  0.89984000  0.69754000  0.97000000  1.0 -0.2476445772
N  N118  1  0.43262000  0.97000000  0.69754000  1.0 -0.2476445772
N  N119  1  0.97000000  0.43262000  0.89984000  1.0 -0.2476445772
N  N120  1  0.69754000  0.89984000  0.43262000  1.0 -0.2476445772
N  N121  1  0.93262000  0.39984000  0.19754000  1.0 -0.2476445772
N  N122  1  0.39984000  0.93262000  0.47000000  1.0 -0.2476445772
N  N123  1  0.19754000  0.47000000  0.93262000  1.0 -0.2476445772
N  N124  1  0.47000000  0.19754000  0.39984000  1.0 -0.2476445772
N  N125  1  0.19754000  0.93262000  0.39984000  1.0 -0.2476445772
N  N126  1  0.47000000  0.39984000  0.93262000  1.0 -0.2476445772
N  N127  1  0.93262000  0.19754000  0.47000000  1.0 -0.2476445772
N  N128  1  0.39984000  0.47000000  0.19754000  1.0 -0.2476445772
N  N129  1  0.39984000  0.19754000  0.93262000  1.0 -0.2476445772
N  N130  1  0.93262000  0.47000000  0.39984000  1.0 -0.2476445772
N  N131  1  0.47000000  0.93262000  0.19754000  1.0 -0.2476445772
N  N132  1  0.19754000  0.39984000  0.47000000  1.0 -0.2476445772
N  N133  1  0.56738000  0.10016000  0.03000000  1.0 -0.2476445772
N  N134  1  0.10016000  0.56738000  0.30246000  1.0 -0.2476445772
N  N135  1  0.30246000  0.03000000  0.10016000  1.0 -0.2476445772
N  N136  1  0.03000000  0.30246000  0.56738000  1.0 -0.2476445772
N  N137  1  0.30246000  0.56738000  0.03000000  1.0 -0.2476445772
N  N138  1  0.03000000  0.10016000  0.30246000  1.0 -0.2476445772
N  N139  1  0.56738000  0.30246000  0.10016000  1.0 -0.2476445772
N  N140  1  0.10016000  0.03000000  0.56738000  1.0 -0.2476445772
N  N141  1  0.10016000  0.30246000  0.03000000  1.0 -0.2476445772
N  N142  1  0.56738000  0.03000000  0.30246000  1.0 -0.2476445772
N  N143  1  0.03000000  0.56738000  0.10016000  1.0 -0.2476445772
N  N144  1  0.30246000  0.10016000  0.56738000  1.0 -0.2476445772
Cl  Cl1  1  0.00000000  0.50000000  0.00000000  1.0 -0.4544955555
Cl  Cl2  1  0.50000000  0.00000000  0.50000000  1.0 -0.4544955555
Cl  Cl3  1  0.00000000  0.00000000  0.50000000  1.0 -0.4544955555
Cl  Cl4  1  0.50000000  0.50000000  0.00000000  1.0 -0.4565661215
Cl  Cl5  1  0.50000000  0.00000000  0.00000000  1.0 -0.4565661215
Cl  Cl6  1  0.00000000  0.50000000  0.50000000  1.0 -0.4565661215
