# DDEC6 charges by PACMAN v1.1 (https://github.com/mtap-research/PACMAN-charge/)
data_ARUYOB_FSR_pacman
_symmetry_space_group_name_H-M   'P 1'
_cell_length_a   7.99460000
_cell_length_b   26.40500000
_cell_length_c   9.54670000
_cell_angle_alpha   90.00000000
_cell_angle_beta   99.47200000
_cell_angle_gamma   90.00000000
_symmetry_Int_Tables_number   1
_chemical_formula_structural   Zn3P4(HO3)4
_chemical_formula_sum   'Zn12 P16 H16 O48'
_cell_volume   1987.80757973
_cell_formula_units_Z   4
loop_
 _symmetry_equiv_pos_site_id
 _symmetry_equiv_pos_as_xyz
  1  'x, y, z'
loop_
 _atom_site_type_symbol
 _atom_site_label
 _atom_site_symmetry_multiplicity
 _atom_site_fract_x
 _atom_site_fract_y
 _atom_site_fract_z
 _atom_site_occupancy
 _atom_site_charge
Zn  Zn1  1  0.50765000  0.43153000  0.39504000  1.0 1.1031547041
Zn  Zn2  1  0.00765000  0.06847000  0.39504000  1.0 1.1105803461
Zn  Zn3  1  0.49235000  0.56847000  0.60496000  1.0 1.1031547041
Zn  Zn4  1  0.99235000  0.93153000  0.60496000  1.0 1.1031547041
Zn  Zn5  1  0.74829000  0.23620000  0.63238000  1.0 1.0923200102
Zn  Zn6  1  0.24829000  0.26380000  0.63238000  1.0 1.0923200102
Zn  Zn7  1  0.25171000  0.76380000  0.36762000  1.0 1.0923200102
Zn  Zn8  1  0.75171000  0.73620000  0.36762000  1.0 1.0923200102
Zn  Zn9  1  0.01213000  0.44413000  0.82496000  1.0 1.1861198993
Zn  Zn10  1  0.51213000  0.05587000  0.82496000  1.0 1.1861198993
Zn  Zn11  1  0.98787000  0.55587000  0.17504000  1.0 1.1806749753
Zn  Zn12  1  0.48787000  0.94413000  0.17504000  1.0 1.1806749753
P  P1  1  0.24321000  0.47973000  0.57850000  1.0 1.1968759151
P  P2  1  0.74321000  0.02027000  0.57850000  1.0 1.1968759151
P  P3  1  0.75679000  0.52027000  0.42150000  1.0 1.1968759151
P  P4  1  0.25679000  0.97973000  0.42150000  1.0 1.1968759151
P  P5  1  0.51455000  0.31219000  0.45402000  1.0 1.1105803461
P  P6  1  0.01455000  0.18781000  0.45402000  1.0 1.1105803461
P  P7  1  0.48545000  0.68781000  0.54598000  1.0 1.1105803461
P  P8  1  0.98545000  0.81219000  0.54598000  1.0 1.1105803461
P  P9  1  0.97760000  0.32317000  0.79511000  1.0 1.2341181488
P  P10  1  0.47760000  0.17683000  0.79511000  1.0 1.2364035499
P  P11  1  0.02240000  0.67683000  0.20489000  1.0 1.2364035499
P  P12  1  0.52240000  0.82317000  0.20489000  1.0 1.2364035499
P  P13  1  0.25656000  0.47069000  0.12275000  1.0 1.1806749753
P  P14  1  0.75656000  0.02931000  0.12275000  1.0 1.1806749753
P  P15  1  0.74344000  0.52931000  0.87725000  1.0 1.1806749753
P  P16  1  0.24344000  0.97069000  0.87725000  1.0 1.1806749753
H  H1  1  0.12700000  0.47230000  0.45700000  1.0 -0.07998142
H  H2  1  0.62700000  0.02770000  0.45700000  1.0 -0.07998142
H  H3  1  0.87300000  0.52770000  0.54300000  1.0 -0.07998142
H  H4  1  0.37300000  0.97230000  0.54300000  1.0 -0.07998142
H  H5  1  0.42700000  0.30400000  0.34600000  1.0 -0.1284459431
H  H6  1  0.92700000  0.19600000  0.34600000  1.0 -0.1284459431
H  H7  1  0.57300000  0.69600000  0.65400000  1.0 -0.1284459431
H  H8  1  0.07300000  0.80400000  0.65400000  1.0 -0.1215453295
H  H9  1  0.05800000  0.31500000  0.92600000  1.0 -0.1825482397
H  H10  1  0.55800000  0.18500000  0.92600000  1.0 -0.1853581963
H  H11  1  0.94200000  0.68500000  0.07400000  1.0 -0.1825482397
H  H12  1  0.44200000  0.81500000  0.07400000  1.0 -0.1825482397
H  H13  1  0.34400000  0.49100000  0.03300000  1.0 -0.0963174029
H  H14  1  0.84400000  0.00900000  0.03300000  1.0 -0.0963174029
H  H15  1  0.65600000  0.50900000  0.96700000  1.0 -0.0925751253
H  H16  1  0.15600000  0.99100000  0.96700000  1.0 -0.0925751253
O  O1  1  0.40500000  0.45159000  0.56040000  1.0 -0.6687245665
O  O2  1  0.90500000  0.04841000  0.56040000  1.0 -0.6687245665
O  O3  1  0.59500000  0.54841000  0.43960000  1.0 -0.6687245665
O  O4  1  0.09500000  0.95159000  0.43960000  1.0 -0.6687245665
O  O5  1  0.27800000  0.53439000  0.61460000  1.0 -0.6507122306
O  O6  1  0.77800000  0.96561000  0.61460000  1.0 -0.6507122306
O  O7  1  0.72200000  0.46561000  0.38540000  1.0 -0.6507122306
O  O8  1  0.22200000  0.03439000  0.38540000  1.0 -0.6507122306
O  O9  1  0.59640000  0.36357000  0.44790000  1.0 -0.5656073241
O  O10  1  0.09640000  0.13643000  0.44790000  1.0 -0.562346354
O  O11  1  0.40360000  0.63643000  0.55210000  1.0 -0.562346354
O  O12  1  0.90360000  0.86357000  0.55210000  1.0 -0.562346354
O  O13  1  0.64060000  0.26954000  0.45930000  1.0 -0.6200061787
O  O14  1  0.14060000  0.23046000  0.45930000  1.0 -0.6200061787
O  O15  1  0.35940000  0.73046000  0.54070000  1.0 -0.6200061787
O  O16  1  0.85940000  0.76954000  0.54070000  1.0 -0.6200061787
O  O17  1  0.41600000  0.30995000  0.57760000  1.0 -0.6315281538
O  O18  1  0.91600000  0.19005000  0.57760000  1.0 -0.6393069534
O  O19  1  0.58400000  0.69005000  0.42240000  1.0 -0.6393069534
O  O20  1  0.08400000  0.80995000  0.42240000  1.0 -0.6315281538
O  O21  1  0.83450000  0.28511000  0.77490000  1.0 -0.6507122306
O  O22  1  0.33450000  0.21489000  0.77490000  1.0 -0.6507122306
O  O23  1  0.16550000  0.71489000  0.22510000  1.0 -0.6393069534
O  O24  1  0.66550000  0.78511000  0.22510000  1.0 -0.6393069534
O  O25  1  0.10570000  0.31481000  0.69770000  1.0 -0.6315281538
O  O26  1  0.60570000  0.18519000  0.69770000  1.0 -0.6315281538
O  O27  1  0.89430000  0.68519000  0.30230000  1.0 -0.6315281538
O  O28  1  0.39430000  0.81481000  0.30230000  1.0 -0.6393069534
O  O29  1  0.91080000  0.37690000  0.78070000  1.0 -0.6200061787
O  O30  1  0.41080000  0.12310000  0.78070000  1.0 -0.6200061787
O  O31  1  0.08920000  0.62310000  0.21930000  1.0 -0.6315281538
O  O32  1  0.58920000  0.87690000  0.21930000  1.0 -0.6315281538
O  O33  1  0.14800000  0.45279000  0.67670000  1.0 -0.6315281538
O  O34  1  0.64800000  0.04721000  0.67670000  1.0 -0.6315281538
O  O35  1  0.85200000  0.54721000  0.32330000  1.0 -0.6315281538
O  O36  1  0.35200000  0.95279000  0.32330000  1.0 -0.6315281538
O  O37  1  0.12940000  0.44406000  0.01420000  1.0 -0.6507122306
O  O38  1  0.62940000  0.05594000  0.01420000  1.0 -0.6507122306
O  O39  1  0.87060000  0.55594000  0.98580000  1.0 -0.6507122306
O  O40  1  0.37060000  0.94406000  0.98580000  1.0 -0.6507122306
O  O41  1  0.34990000  0.43231000  0.22340000  1.0 -0.6315281538
O  O42  1  0.84990000  0.06769000  0.22340000  1.0 -0.6315281538
O  O43  1  0.65010000  0.56769000  0.77660000  1.0 -0.6315281538
O  O44  1  0.15010000  0.93231000  0.77660000  1.0 -0.6315281538
O  O45  1  0.18530000  0.51316000  0.19880000  1.0 -0.6642525195
O  O46  1  0.68530000  0.98684000  0.19880000  1.0 -0.6642525195
O  O47  1  0.81470000  0.48684000  0.80120000  1.0 -0.6642525195
O  O48  1  0.31470000  0.01316000  0.80120000  1.0 -0.6642525195
