# DDEC6 charges by PACMAN v1.1 (https://github.com/mtap-research/PACMAN-charge/)
data_ASECUY_ASR_pacman
_symmetry_space_group_name_H-M   'P 1'
_cell_length_a   10.59730000
_cell_length_b   10.59730000
_cell_length_c   44.30140000
_cell_angle_alpha   89.55170000
_cell_angle_beta   90.44830000
_cell_angle_gamma   47.60350000
_symmetry_Int_Tables_number   1
_chemical_formula_structural   NaU2H30C60(N3O8)2
_chemical_formula_sum   'Na2 U4 H60 C120 N12 O32'
_cell_volume   3673.45507761
_cell_formula_units_Z   2
loop_
 _symmetry_equiv_pos_site_id
 _symmetry_equiv_pos_as_xyz
  1  'x, y, z'
loop_
 _atom_site_type_symbol
 _atom_site_label
 _atom_site_symmetry_multiplicity
 _atom_site_fract_x
 _atom_site_fract_y
 _atom_site_fract_z
 _atom_site_occupancy
 _atom_site_charge
Na  Na1  1  0.19570000  0.19570000  0.25000000  1.0 0.8281970474
Na  Na2  1  0.80430000  0.80430000  0.75000000  1.0 0.8281970474
U  U1  1  0.11604000  0.27626000  0.15661000  1.0 1.9119687233
U  U2  1  0.27626000  0.11604000  0.34339000  1.0 1.9119687233
U  U3  1  0.88396000  0.72374000  0.84339000  1.0 1.9119687233
U  U4  1  0.72374000  0.88396000  0.65661000  1.0 1.9119687233
H  H1  1  0.29790000  0.77090000  0.14210000  1.0 0.120177548
H  H2  1  0.77090000  0.29790000  0.35790000  1.0 0.120177548
H  H3  1  0.70210000  0.22910000  0.85790000  1.0 0.120177548
H  H4  1  0.22910000  0.70210000  0.64210000  1.0 0.120177548
H  H5  1  0.26910000  0.57490000  0.15340000  1.0 0.1322939654
H  H6  1  0.57490000  0.26910000  0.34660000  1.0 0.1322939654
H  H7  1  0.73090000  0.42510000  0.84660000  1.0 0.1322939654
H  H8  1  0.42510000  0.73090000  0.65340000  1.0 0.1322939654
H  H9  1  0.14340000  0.34060000  0.04260000  1.0 0.1322939654
H  H10  1  0.34060000  0.14340000  0.45740000  1.0 0.1322939654
H  H11  1  0.85660000  0.65940000  0.95740000  1.0 0.1322939654
H  H12  1  0.65940000  0.85660000  0.54260000  1.0 0.1322939654
H  H13  1  0.89070000  0.20430000  0.26750000  1.0 0.1322939654
H  H14  1  0.20430000  0.89070000  0.23250000  1.0 0.1322939654
H  H15  1  0.10930000  0.79570000  0.73250000  1.0 0.1322939654
H  H16  1  0.79570000  0.10930000  0.76750000  1.0 0.1322939654
H  H17  1  0.50350000  0.18270000  0.23320000  1.0 0.1322939654
H  H18  1  0.18270000  0.50350000  0.26680000  1.0 0.1322939654
H  H19  1  0.49650000  0.81730000  0.76680000  1.0 0.1322939654
H  H20  1  0.81730000  0.49650000  0.73320000  1.0 0.1322939654
H  H21  1  0.67500000  0.56960000  0.20290000  1.0 0.1322939654
H  H22  1  0.56960000  0.67500000  0.29710000  1.0 0.1322939654
H  H23  1  0.32500000  0.43040000  0.79710000  1.0 0.1322939654
H  H24  1  0.43040000  0.32500000  0.70290000  1.0 0.1322939654
H  H25  1  0.14250000  0.77930000  0.34500000  1.0 0.1322939654
H  H26  1  0.77930000  0.14250000  0.15500000  1.0 0.1322939654
H  H27  1  0.85750000  0.22070000  0.65500000  1.0 0.1322939654
H  H28  1  0.22070000  0.85750000  0.84500000  1.0 0.1322939654
H  H29  1  0.50610000  0.74630000  0.16000000  1.0 0.1110730584
H  H30  1  0.74630000  0.50610000  0.34000000  1.0 0.1110730584
H  H31  1  0.49390000  0.25370000  0.84000000  1.0 0.1110730584
H  H32  1  0.25370000  0.49390000  0.66000000  1.0 0.1110730584
H  H33  1  0.72540000  0.82820000  0.29730000  1.0 0.1322939654
H  H34  1  0.82820000  0.72540000  0.20270000  1.0 0.1322939654
H  H35  1  0.27460000  0.17180000  0.70270000  1.0 0.1322939654
H  H36  1  0.17180000  0.27460000  0.79730000  1.0 0.1322939654
H  H37  1  0.09620000  0.61220000  0.35980000  1.0 0.120177548
H  H38  1  0.61220000  0.09620000  0.14020000  1.0 0.120177548
H  H39  1  0.90380000  0.38780000  0.64020000  1.0 0.120177548
H  H40  1  0.38780000  0.90380000  0.85980000  1.0 0.120177548
H  H41  1  0.86700000  0.63440000  0.33910000  1.0 0.09446767
H  H42  1  0.63440000  0.86700000  0.16090000  1.0 0.09446767
H  H43  1  0.13300000  0.36560000  0.66090000  1.0 0.09446767
H  H44  1  0.36560000  0.13300000  0.83910000  1.0 0.09446767
H  H45  1  0.28030000  0.03050000  0.05620000  1.0 0.1110730584
H  H46  1  0.03050000  0.28030000  0.44380000  1.0 0.1110730584
H  H47  1  0.71970000  0.96950000  0.94380000  1.0 0.1110730584
H  H48  1  0.96950000  0.71970000  0.55620000  1.0 0.1110730584
H  H49  1  0.39860000  0.87360000  0.10230000  1.0 0.1110730584
H  H50  1  0.87360000  0.39860000  0.39770000  1.0 0.1110730584
H  H51  1  0.60140000  0.12640000  0.89770000  1.0 0.1110730584
H  H52  1  0.12640000  0.60140000  0.60230000  1.0 0.1110730584
H  H53  1  0.46290000  0.92230000  0.01470000  1.0 0.120177548
H  H54  1  0.92230000  0.46290000  0.48530000  1.0 0.120177548
H  H55  1  0.53710000  0.07770000  0.98530000  1.0 0.120177548
H  H56  1  0.07770000  0.53710000  0.51470000  1.0 0.120177548
H  H57  1  0.68490000  0.63510000  0.10760000  1.0 0.1110730584
H  H58  1  0.63510000  0.68490000  0.39240000  1.0 0.1110730584
H  H59  1  0.31510000  0.36490000  0.89240000  1.0 0.1110730584
H  H60  1  0.36490000  0.31510000  0.60760000  1.0 0.1110730584
C  C1  1  0.75380000  0.13120000  0.26370000  1.0 0.1835048686
C  C2  1  0.13120000  0.75380000  0.23630000  1.0 0.1835048686
C  C3  1  0.24620000  0.86880000  0.73630000  1.0 0.1835048686
C  C4  1  0.86880000  0.24620000  0.76370000  1.0 0.1835048686
C  C5  1  0.82740000  0.92400000  0.29730000  1.0 0.1726605821
C  C6  1  0.92400000  0.82740000  0.20270000  1.0 0.1726605821
C  C7  1  0.17260000  0.07600000  0.70270000  1.0 0.1726605821
C  C8  1  0.07600000  0.17260000  0.79730000  1.0 0.1726605821
C  C9  1  0.37030000  0.68610000  0.15670000  1.0 -0.1050027308
C  C10  1  0.68610000  0.37030000  0.34330000  1.0 -0.1000112155
C  C11  1  0.62970000  0.31390000  0.84330000  1.0 -0.1050027308
C  C12  1  0.31390000  0.62970000  0.65670000  1.0 -0.1050027308
C  C13  1  0.01470000  0.39210000  0.09480000  1.0 0.5347537848
C  C14  1  0.39210000  0.01470000  0.40520000  1.0 0.5355620834
C  C15  1  0.98530000  0.60790000  0.90520000  1.0 0.5355620834
C  C16  1  0.60790000  0.98530000  0.59480000  1.0 0.5355620834
C  C17  1  0.34300000  0.57740000  0.16410000  1.0 -0.1000112155
C  C18  1  0.57740000  0.34300000  0.33590000  1.0 -0.1000112155
C  C19  1  0.65700000  0.42260000  0.83590000  1.0 -0.1000112155
C  C20  1  0.42260000  0.65700000  0.66410000  1.0 -0.1000112155
C  C21  1  0.68150000  0.71750000  0.03620000  1.0 0.1835048686
C  C22  1  0.71750000  0.68150000  0.46380000  1.0 0.1835048686
C  C23  1  0.31850000  0.28250000  0.96380000  1.0 0.1835048686
C  C24  1  0.28250000  0.31850000  0.53620000  1.0 0.1835048686
C  C25  1  0.02610000  0.43410000  0.04120000  1.0 -0.1604488153
C  C26  1  0.43410000  0.02610000  0.45880000  1.0 -0.1604488153
C  C27  1  0.97390000  0.56590000  0.95880000  1.0 -0.1604488153
C  C28  1  0.56590000  0.97390000  0.54120000  1.0 -0.1604488153
C  C29  1  0.75440000  0.62840000  0.06430000  1.0 0.0354420993
C  C30  1  0.62840000  0.75440000  0.43570000  1.0 0.0354420993
C  C31  1  0.24560000  0.37160000  0.93570000  1.0 0.0354420993
C  C32  1  0.37160000  0.24560000  0.56430000  1.0 0.0354420993
C  C33  1  0.92960000  0.48300000  0.06570000  1.0 -0.0223079991
C  C34  1  0.48300000  0.92960000  0.43430000  1.0 -0.0223079991
C  C35  1  0.07040000  0.51700000  0.93430000  1.0 -0.0223079991
C  C36  1  0.51700000  0.07040000  0.56570000  1.0 -0.0223079991
C  C37  1  0.97370000  0.02870000  0.29980000  1.0 -0.0579919253
C  C38  1  0.02870000  0.97370000  0.20020000  1.0 -0.0579919253
C  C39  1  0.02630000  0.97130000  0.70020000  1.0 -0.0579919253
C  C40  1  0.97130000  0.02630000  0.79980000  1.0 -0.0579919253
C  C41  1  0.41650000  0.35950000  0.20080000  1.0 -0.0135260883
C  C42  1  0.35950000  0.41650000  0.29920000  1.0 -0.0135260883
C  C43  1  0.58350000  0.64050000  0.79920000  1.0 -0.0135260883
C  C44  1  0.64050000  0.58350000  0.70080000  1.0 -0.0135260883
C  C45  1  0.87680000  0.13340000  0.27580000  1.0 -0.151859411
C  C46  1  0.13340000  0.87680000  0.22420000  1.0 -0.151859411
C  C47  1  0.12320000  0.86660000  0.72420000  1.0 -0.151859411
C  C48  1  0.86660000  0.12320000  0.77580000  1.0 -0.151859411
C  C49  1  0.51730000  0.25390000  0.22510000  1.0 -0.171222435
C  C50  1  0.25390000  0.51730000  0.27490000  1.0 -0.171222435
C  C51  1  0.48270000  0.74610000  0.77490000  1.0 -0.171222435
C  C52  1  0.74610000  0.48270000  0.72510000  1.0 -0.171222435
C  C53  1  0.56270000  0.46110000  0.20380000  1.0 0.1888955537
C  C54  1  0.46110000  0.56270000  0.29620000  1.0 0.1888955537
C  C55  1  0.43730000  0.53890000  0.79620000  1.0 0.1888955537
C  C56  1  0.53890000  0.43730000  0.70380000  1.0 0.1888955537
C  C57  1  0.59500000  0.57060000  0.19380000  1.0 -0.1394801025
C  C58  1  0.57060000  0.59500000  0.30620000  1.0 -0.1394801025
C  C59  1  0.40500000  0.42940000  0.80620000  1.0 -0.1394801025
C  C60  1  0.42940000  0.40500000  0.69380000  1.0 -0.1394801025
C  C61  1  0.05560000  0.79220000  0.33560000  1.0 -0.1394801025
C  C62  1  0.79220000  0.05560000  0.16440000  1.0 -0.1394801025
C  C63  1  0.94440000  0.20780000  0.66440000  1.0 -0.1394801025
C  C64  1  0.20780000  0.94440000  0.83560000  1.0 -0.1394801025
C  C65  1  0.48930000  0.67810000  0.16850000  1.0 -0.1000112155
C  C66  1  0.67810000  0.48930000  0.33150000  1.0 -0.1000112155
C  C67  1  0.51070000  0.32190000  0.83150000  1.0 -0.1000112155
C  C68  1  0.32190000  0.51070000  0.66850000  1.0 -0.1000112155
C  C69  1  0.95550000  0.91790000  0.31190000  1.0 0.051901542
C  C70  1  0.91790000  0.95550000  0.18810000  1.0 0.051901542
C  C71  1  0.04450000  0.08210000  0.68810000  1.0 0.051901542
C  C72  1  0.08210000  0.04450000  0.81190000  1.0 0.051901542
C  C73  1  0.80750000  0.82030000  0.30760000  1.0 -0.151859411
C  C74  1  0.82030000  0.80750000  0.19240000  1.0 -0.151859411
C  C75  1  0.19250000  0.17970000  0.69240000  1.0 -0.151859411
C  C76  1  0.17970000  0.19250000  0.80760000  1.0 -0.151859411
C  C77  1  0.29740000  0.34400000  0.18690000  1.0 0.5580223206
C  C78  1  0.34400000  0.29740000  0.31310000  1.0 0.5580223206
C  C79  1  0.70260000  0.65600000  0.81310000  1.0 0.5580223206
C  C80  1  0.65600000  0.70260000  0.68690000  1.0 0.5580223206
C  C81  1  0.09340000  0.04080000  0.31310000  1.0 0.5801106992
C  C82  1  0.04080000  0.09340000  0.18690000  1.0 0.5801106992
C  C83  1  0.90660000  0.95920000  0.68690000  1.0 0.5801106992
C  C84  1  0.95920000  0.90660000  0.81310000  1.0 0.5801106992
C  C85  1  0.02590000  0.69230000  0.34450000  1.0 -0.0833128092
C  C86  1  0.69230000  0.02590000  0.15550000  1.0 -0.0833128092
C  C87  1  0.97410000  0.30770000  0.65550000  1.0 -0.0833128092
C  C88  1  0.30770000  0.97410000  0.84450000  1.0 -0.0833128092
C  C89  1  0.89210000  0.69850000  0.33210000  1.0 -0.0896395646
C  C90  1  0.69850000  0.89210000  0.16790000  1.0 -0.0896395646
C  C91  1  0.10790000  0.30150000  0.66790000  1.0 -0.0896395646
C  C92  1  0.30150000  0.10790000  0.83210000  1.0 -0.0896395646
C  C93  1  0.39530000  0.93130000  0.05790000  1.0 -0.0896395646
C  C94  1  0.93130000  0.39530000  0.44210000  1.0 -0.0896395646
C  C95  1  0.60470000  0.06870000  0.94210000  1.0 -0.0896395646
C  C96  1  0.06870000  0.60470000  0.55790000  1.0 -0.0896395646
C  C97  1  0.46890000  0.83690000  0.08570000  1.0 -0.1000112155
C  C98  1  0.83690000  0.46890000  0.41430000  1.0 -0.1000112155
C  C99  1  0.53110000  0.16310000  0.91430000  1.0 -0.1000112155
C  C100  1  0.16310000  0.53110000  0.58570000  1.0 -0.1000112155
C  C101  1  0.94920000  0.52520000  0.01300000  1.0 0.1645157787
C  C102  1  0.52520000  0.94920000  0.48700000  1.0 0.1645157787
C  C103  1  0.05080000  0.47480000  0.98700000  1.0 0.1645157787
C  C104  1  0.47480000  0.05080000  0.51300000  1.0 0.1645157787
C  C105  1  0.43740000  0.47460000  0.18910000  1.0 -0.0027187032
C  C106  1  0.47460000  0.43740000  0.31090000  1.0 -0.0027187032
C  C107  1  0.56260000  0.52540000  0.81090000  1.0 -0.0027187032
C  C108  1  0.52540000  0.56260000  0.68910000  1.0 -0.0027187032
C  C109  1  0.50610000  0.86610000  0.03340000  1.0 -0.171222435
C  C110  1  0.86610000  0.50610000  0.46660000  1.0 -0.171222435
C  C111  1  0.49390000  0.13390000  0.96660000  1.0 -0.171222435
C  C112  1  0.13390000  0.49390000  0.53340000  1.0 -0.171222435
C  C113  1  0.64190000  0.69190000  0.08900000  1.0 -0.151859411
C  C114  1  0.69190000  0.64190000  0.41100000  1.0 -0.151859411
C  C115  1  0.35810000  0.30810000  0.91100000  1.0 -0.151859411
C  C116  1  0.30810000  0.35810000  0.58900000  1.0 -0.151859411
C  C117  1  0.64160000  0.25220000  0.23790000  1.0 0.1888955537
C  C118  1  0.25220000  0.64160000  0.26210000  1.0 0.1888955537
C  C119  1  0.35840000  0.74780000  0.76210000  1.0 0.1888955537
C  C120  1  0.74780000  0.35840000  0.73790000  1.0 0.1888955537
N  N1  1  0.72870000  0.03350000  0.27380000  1.0 -0.2894324881
N  N2  1  0.03350000  0.72870000  0.22620000  1.0 -0.2894324881
N  N3  1  0.27130000  0.96650000  0.72620000  1.0 -0.2894324881
N  N4  1  0.96650000  0.27130000  0.77380000  1.0 -0.2894324881
N  N5  1  0.66710000  0.34970000  0.22780000  1.0 -0.3152204674
N  N6  1  0.34970000  0.66710000  0.27220000  1.0 -0.3152204674
N  N7  1  0.33290000  0.65030000  0.77220000  1.0 -0.3152204674
N  N8  1  0.65030000  0.33290000  0.72780000  1.0 -0.3152204674
N  N9  1  0.78290000  0.66310000  0.01100000  1.0 -0.3392790702
N  N10  1  0.66310000  0.78290000  0.48900000  1.0 -0.3392790702
N  N11  1  0.21710000  0.33690000  0.98900000  1.0 -0.3392790702
N  N12  1  0.33690000  0.21710000  0.51100000  1.0 -0.3392790702
O  O1  1  0.25410000  0.27930000  0.20237000  1.0 -0.6096162495
O  O2  1  0.27930000  0.25410000  0.29763000  1.0 -0.6096162495
O  O3  1  0.74590000  0.72070000  0.79763000  1.0 -0.6096162495
O  O4  1  0.72070000  0.74590000  0.70237000  1.0 -0.6096162495
O  O5  1  0.97910000  0.30670000  0.10800000  1.0 -0.6096162495
O  O6  1  0.30670000  0.97910000  0.39200000  1.0 -0.6096162495
O  O7  1  0.02090000  0.69330000  0.89200000  1.0 -0.6096162495
O  O8  1  0.69330000  0.02090000  0.60800000  1.0 -0.6096162495
O  O9  1  0.11220000  0.40040000  0.10840000  1.0 -0.5396597829
O  O10  1  0.40040000  0.11220000  0.39160000  1.0 -0.5396597829
O  O11  1  0.88780000  0.59960000  0.89160000  1.0 -0.5396597829
O  O12  1  0.59960000  0.88780000  0.60840000  1.0 -0.5396597829
O  O13  1  0.88480000  0.43980000  0.24970000  1.0 -0.2894324881
O  O14  1  0.43980000  0.88480000  0.25030000  1.0 -0.2894324881
O  O15  1  0.11520000  0.56020000  0.75030000  1.0 -0.2894324881
O  O16  1  0.56020000  0.11520000  0.74970000  1.0 -0.2894324881
O  O17  1  0.25610000  0.39050000  0.15973000  1.0 -0.5455493775
O  O18  1  0.39050000  0.25610000  0.34027000  1.0 -0.5455493775
O  O19  1  0.74390000  0.60950000  0.84027000  1.0 -0.5455493775
O  O20  1  0.60950000  0.74390000  0.65973000  1.0 -0.5455493775
O  O21  1  0.14200000  0.10680000  0.29841000  1.0 -0.628332704
O  O22  1  0.10680000  0.14200000  0.20159000  1.0 -0.628332704
O  O23  1  0.85800000  0.89320000  0.70159000  1.0 -0.628332704
O  O24  1  0.89320000  0.85800000  0.79841000  1.0 -0.628332704
O  O25  1  0.14470000  0.00350000  0.34110000  1.0 -0.5736766603
O  O26  1  0.00350000  0.14470000  0.15890000  1.0 -0.5736766603
O  O27  1  0.85530000  0.99650000  0.65890000  1.0 -0.5736766603
O  O28  1  0.99650000  0.85530000  0.84110000  1.0 -0.5736766603
O  O29  1  0.95440000  0.51380000  0.24910000  1.0 -0.253355309
O  O30  1  0.51380000  0.95440000  0.25090000  1.0 -0.2561685291
O  O31  1  0.04560000  0.48620000  0.75090000  1.0 -0.253355309
O  O32  1  0.48620000  0.04560000  0.74910000  1.0 -0.253355309
