# DDEC6 charges by PACMAN v1.1 (https://github.com/mtap-research/PACMAN-charge/)
data_ASINEX_ASR_pacman
_symmetry_space_group_name_H-M   'P 1'
_cell_length_a   40.30160000
_cell_length_b   40.27560000
_cell_length_c   20.99020000
_cell_angle_alpha   74.96890000
_cell_angle_beta   74.83200000
_cell_angle_gamma   30.19920000
_symmetry_Int_Tables_number   1
_chemical_formula_structural   Zn3H58C90(N2O3)4
_chemical_formula_sum   'Zn12 H232 C360 N32 O48'
_cell_volume   16502.05841080
_cell_formula_units_Z   4
loop_
 _symmetry_equiv_pos_site_id
 _symmetry_equiv_pos_as_xyz
  1  'x, y, z'
loop_
 _atom_site_type_symbol
 _atom_site_label
 _atom_site_symmetry_multiplicity
 _atom_site_fract_x
 _atom_site_fract_y
 _atom_site_fract_z
 _atom_site_occupancy
 _atom_site_charge
Zn  Zn1  1  0.91788000  0.40746000  0.71112000  1.0 0.8007462141
Zn  Zn2  1  0.28646000  0.53888000  0.84254000  1.0 0.8007462141
Zn  Zn3  1  0.91054000  0.40340000  0.55366000  1.0 1.0105998781
Zn  Zn4  1  0.11760000  0.69634000  0.84660000  1.0 1.0105998781
Zn  Zn5  1  0.82255000  0.46849000  0.40205000  1.0 0.8155579236
Zn  Zn6  1  0.94309000  0.84795000  0.78151000  1.0 0.8155579236
Zn  Zn7  1  0.71112000  0.96354000  0.91788000  1.0 0.8007462141
Zn  Zn8  1  0.84254000  0.33212000  0.28646000  1.0 0.8007462141
Zn  Zn9  1  0.55366000  0.13240000  0.91054000  1.0 1.0105998781
Zn  Zn10  1  0.84660000  0.33946000  0.11760000  1.0 1.0105998781
Zn  Zn11  1  0.40205000  0.30691000  0.82255000  1.0 0.8148867753
Zn  Zn12  1  0.78151000  0.42745000  0.94309000  1.0 0.8155579236
H  H1  1  0.88920000  0.48440000  0.17880000  1.0 0.1380459255
H  H2  1  0.80240000  0.07120000  0.76560000  1.0 0.1380459255
H  H3  1  0.86300000  0.39700000  0.30000000  1.0 0.1089937807
H  H4  1  0.81000000  0.95000000  0.85300000  1.0 0.1089937807
H  H5  1  0.84790000  0.50930000  0.29290000  1.0 0.1193421123
H  H6  1  0.90010000  0.95710000  0.74070000  1.0 0.1193421123
H  H7  1  0.24550000  0.85910000  0.68790000  1.0 0.1193421123
H  H8  1  0.04250000  0.56210000  0.39090000  1.0 0.1193421123
H  H9  1  0.22020000  0.82160000  0.71880000  1.0 0.1089937807
H  H10  1  0.01060000  0.53120000  0.42840000  1.0 0.1089937807
H  H11  1  0.54020000  0.63380000  0.65540000  1.0 0.1089937807
H  H12  1  0.07940000  0.59460000  0.61620000  1.0 0.1089937807
H  H13  1  0.90160000  0.37420000  0.18680000  1.0 0.1488309619
H  H14  1  0.71260000  0.06320000  0.87580000  1.0 0.1488309619
H  H15  1  0.83310000  0.46690000  0.83630000  1.0 0.1089937807
H  H16  1  0.38630000  0.41370000  0.78310000  1.0 0.1089937807
H  H17  1  0.72720000  0.53380000  0.58700000  1.0 0.1283072849
H  H18  1  0.09800000  0.66300000  0.71620000  1.0 0.1283072849
H  H19  1  0.61900000  0.61080000  0.59900000  1.0 0.1089937807
H  H20  1  0.07880000  0.65100000  0.63920000  1.0 0.1089937807
H  H21  1  0.60150000  0.64530000  0.77850000  1.0 0.1089937807
H  H22  1  0.27530000  0.47150000  0.60470000  1.0 0.1089937807
H  H23  1  0.71230000  0.56730000  0.76430000  1.0 0.1193421123
H  H24  1  0.29390000  0.48570000  0.68270000  1.0 0.1193421123
H  H25  1  0.83350000  0.47310000  0.93890000  1.0 0.1380459255
H  H26  1  0.49550000  0.31110000  0.77690000  1.0 0.1380459255
H  H27  1  0.42860000  0.71400000  0.66940000  1.0 0.1193421123
H  H28  1  0.06200000  0.58060000  0.53600000  1.0 0.1193421123
H  H29  1  0.01620000  0.35940000  0.89360000  1.0 0.1380459255
H  H30  1  0.51920000  0.35640000  0.89060000  1.0 0.1380459255
H  H31  1  0.38900000  0.81580000  0.78100000  1.0 0.1283072849
H  H32  1  0.23580000  0.46900000  0.43420000  1.0 0.1283072849
H  H33  1  0.49290000  0.74650000  0.75350000  1.0 0.1089937807
H  H34  1  0.24290000  0.49650000  0.50350000  1.0 0.1089937807
H  H35  1  0.34420000  0.58880000  0.84460000  1.0 0.1193421123
H  H36  1  0.02760000  0.40540000  0.66120000  1.0 0.1193421123
H  H37  1  0.36160000  0.63240000  0.83180000  1.0 0.1089937807
H  H38  1  0.07580000  0.41820000  0.61760000  1.0 0.1089937807
H  H39  1  0.17640000  0.81020000  0.77520000  1.0 0.1089937807
H  H40  1  0.01180000  0.47480000  0.43980000  1.0 0.1089937807
H  H41  1  0.15230000  0.77410000  0.80130000  1.0 0.1193421123
H  H42  1  0.97770000  0.44870000  0.47590000  1.0 0.1193421123
H  H43  1  0.35890000  0.68630000  0.84930000  1.0 0.1089937807
H  H44  1  0.14450000  0.40070000  0.56370000  1.0 0.1089937807
H  H45  1  0.38150000  0.72390000  0.81830000  1.0 0.1283072849
H  H46  1  0.17370000  0.43170000  0.52610000  1.0 0.1283072849
H  H47  1  0.00580000  0.36320000  0.78440000  1.0 0.1089937807
H  H48  1  0.40340000  0.46560000  0.88680000  1.0 0.1089937807
H  H49  1  0.01170000  0.22470000  0.77330000  1.0 0.1283072849
H  H50  1  0.25970000  0.47670000  0.02530000  1.0 0.1283072849
H  H51  1  0.08870000  0.11730000  0.78650000  1.0 0.1193421123
H  H52  1  0.24250000  0.46350000  0.13270000  1.0 0.1193421123
H  H53  1  0.17250000  0.08550000  0.60470000  1.0 0.1089937807
H  H54  1  0.11270000  0.64530000  0.16450000  1.0 0.1089937807
H  H55  1  0.09290000  0.19550000  0.59050000  1.0 0.1283072849
H  H56  1  0.12890000  0.65950000  0.05450000  1.0 0.1283072849
H  H57  1  0.13400000  0.02700000  0.78140000  1.0 0.1193421123
H  H58  1  0.19240000  0.46860000  0.22300000  1.0 0.1193421123
H  H59  1  0.21250000  0.92030000  0.80010000  1.0 0.1283072849
H  H60  1  0.18290000  0.44990000  0.32970000  1.0 0.1283072849
H  H61  1  0.33390000  0.87350000  0.65270000  1.0 0.1283072849
H  H62  1  0.11010000  0.59730000  0.37650000  1.0 0.1283072849
H  H63  1  0.25500000  0.98520000  0.63620000  1.0 0.1089937807
H  H64  1  0.12640000  0.61380000  0.26480000  1.0 0.1089937807
H  H65  1  0.81890000  0.47430000  0.02170000  1.0 0.2708384808
H  H66  1  0.56490000  0.22830000  0.77570000  1.0 0.2708384808
H  H67  1  0.81250000  0.47630000  0.09590000  1.0 0.2708384808
H  H68  1  0.63470000  0.15410000  0.77370000  1.0 0.2708384808
H  H69  1  0.97040000  0.25980000  0.58400000  1.0 0.1089937807
H  H70  1  0.06420000  0.66600000  0.99020000  1.0 0.1089937807
H  H71  1  0.04520000  0.14920000  0.59260000  1.0 0.1089937807
H  H72  1  0.03700000  0.65740000  0.10080000  1.0 0.1089937807
H  H73  1  0.03190000  0.16350000  0.40090000  1.0 0.1089937807
H  H74  1  0.84630000  0.84910000  0.08650000  1.0 0.1089937807
H  H75  1  0.96200000  0.27260000  0.38820000  1.0 0.1089937807
H  H76  1  0.87280000  0.86180000  0.97740000  1.0 0.1089937807
H  H77  1  0.15730000  0.03830000  0.56250000  1.0 0.1089937807
H  H78  1  0.00810000  0.68750000  0.21170000  1.0 0.1089937807
H  H79  1  0.23120000  0.93080000  0.56800000  1.0 0.1193421123
H  H80  1  0.98000000  0.68200000  0.31920000  1.0 0.1193421123
H  H81  1  0.12320000  0.98060000  0.45780000  1.0 0.1283072849
H  H82  1  0.81160000  0.79220000  0.26940000  1.0 0.1283072849
H  H83  1  0.04800000  0.08980000  0.44360000  1.0 0.1089937807
H  H84  1  0.83140000  0.80640000  0.16020000  1.0 0.1089937807
H  H85  1  0.65420000  0.54280000  0.48400000  1.0 0.1089937807
H  H86  1  0.93100000  0.76600000  0.70720000  1.0 0.1089937807
H  H87  1  0.54370000  0.61390000  0.50210000  1.0 0.1089937807
H  H88  1  0.90970000  0.74790000  0.63610000  1.0 0.1089937807
H  H89  1  0.47540000  0.76400000  0.40320000  1.0 0.1089937807
H  H90  1  0.89260000  0.84680000  0.48600000  1.0 0.1089937807
H  H91  1  0.58340000  0.69280000  0.38760000  1.0 0.1193421123
H  H92  1  0.91380000  0.86240000  0.55720000  1.0 0.1193421123
H  H93  1  0.44650000  0.68810000  0.54990000  1.0 0.1089937807
H  H94  1  0.93450000  0.70010000  0.56190000  1.0 0.1089937807
H  H95  1  0.33600000  0.76800000  0.58620000  1.0 0.1193421123
H  H96  1  0.94020000  0.66380000  0.48200000  1.0 0.1193421123
H  H97  1  0.28470000  0.87690000  0.41390000  1.0 0.1283072849
H  H98  1  0.82550000  0.83610000  0.37310000  1.0 0.1283072849
H  H99  1  0.39030000  0.80430000  0.38570000  1.0 0.1089937807
H  H100  1  0.83030000  0.86430000  0.44570000  1.0 0.1089937807
H  H101  1  0.99820000  0.90560000  0.71120000  1.0 0.1089937807
H  H102  1  0.86500000  0.53880000  0.34440000  1.0 0.1089937807
H  H103  1  0.04570000  0.91890000  0.66030000  1.0 0.1049274993
H  H104  1  0.87490000  0.58970000  0.33110000  1.0 0.1049274993
H  H105  1  0.22020000  0.72660000  0.62820000  1.0 0.1089937807
H  H106  1  0.82500000  0.62180000  0.52340000  1.0 0.1089937807
H  H107  1  0.17410000  0.70890000  0.67970000  1.0 0.1283072849
H  H108  1  0.81270000  0.57030000  0.54110000  1.0 0.1283072849
H  H109  1  0.09390000  0.92110000  0.65330000  1.0 0.1089937807
H  H110  1  0.91830000  0.59670000  0.32890000  1.0 0.1089937807
H  H111  1  0.13580000  0.94000000  0.60720000  1.0 0.1283072849
H  H112  1  0.93300000  0.64280000  0.31000000  1.0 0.1283072849
H  H113  1  0.27950000  0.77950000  0.50310000  1.0 0.1283072849
H  H114  1  0.81210000  0.74690000  0.47050000  1.0 0.1283072849
H  H115  1  0.24200000  0.75420000  0.55440000  1.0 0.1089937807
H  H116  1  0.80060000  0.69560000  0.49580000  1.0 0.1193421123
H  H117  1  0.17880000  0.44760000  0.88920000  1.0 0.1380459255
H  H118  1  0.76560000  0.36080000  0.80240000  1.0 0.1380459255
H  H119  1  0.30000000  0.44000000  0.86300000  1.0 0.1089937807
H  H120  1  0.85300000  0.38700000  0.81000000  1.0 0.1089937807
H  H121  1  0.29290000  0.34990000  0.84790000  1.0 0.1193421123
H  H122  1  0.74070000  0.40210000  0.90010000  1.0 0.1193421123
H  H123  1  0.68790000  0.20750000  0.24550000  1.0 0.1193421123
H  H124  1  0.39090000  0.00450000  0.04250000  1.0 0.1193421123
H  H125  1  0.71880000  0.23940000  0.22020000  1.0 0.1089937807
H  H126  1  0.42840000  0.02980000  0.01060000  1.0 0.1089937807
H  H127  1  0.65540000  0.17060000  0.54020000  1.0 0.1089937807
H  H128  1  0.61620000  0.70980000  0.07940000  1.0 0.1089937807
H  H129  1  0.18680000  0.53740000  0.90160000  1.0 0.1488309619
H  H130  1  0.87580000  0.34840000  0.71260000  1.0 0.1488309619
H  H131  1  0.83630000  0.86370000  0.83310000  1.0 0.1089937807
H  H132  1  0.78310000  0.41690000  0.38630000  1.0 0.1089937807
H  H133  1  0.58700000  0.15200000  0.72720000  1.0 0.1283072849
H  H134  1  0.71620000  0.52280000  0.09800000  1.0 0.1283072849
H  H135  1  0.59900000  0.17120000  0.61900000  1.0 0.1089937807
H  H136  1  0.63920000  0.63100000  0.07880000  1.0 0.1089937807
H  H137  1  0.77850000  0.97470000  0.60150000  1.0 0.1089937807
H  H138  1  0.60470000  0.64850000  0.27530000  1.0 0.1089937807
H  H139  1  0.76430000  0.95610000  0.71230000  1.0 0.1193421123
H  H140  1  0.68270000  0.53770000  0.29390000  1.0 0.1193421123
H  H141  1  0.93890000  0.75450000  0.83350000  1.0 0.1380459255
H  H142  1  0.77690000  0.41650000  0.49550000  1.0 0.1380459255
H  H143  1  0.66940000  0.18800000  0.42860000  1.0 0.1193421123
H  H144  1  0.53600000  0.82140000  0.06200000  1.0 0.1193421123
H  H145  1  0.89360000  0.73080000  0.01620000  1.0 0.1380459255
H  H146  1  0.89060000  0.23380000  0.51920000  1.0 0.1380459255
H  H147  1  0.78100000  0.01420000  0.38900000  1.0 0.1283072849
H  H148  1  0.43420000  0.86100000  0.23580000  1.0 0.1283072849
H  H149  1  0.75350000  0.00710000  0.49290000  1.0 0.1089937807
H  H150  1  0.50350000  0.75710000  0.24290000  1.0 0.1089937807
H  H151  1  0.84460000  0.22240000  0.34420000  1.0 0.1193421123
H  H152  1  0.66120000  0.90580000  0.02760000  1.0 0.1193421123
H  H153  1  0.83180000  0.17420000  0.36160000  1.0 0.1089937807
H  H154  1  0.61760000  0.88840000  0.07580000  1.0 0.1089937807
H  H155  1  0.77520000  0.23820000  0.17640000  1.0 0.1089937807
H  H156  1  0.43980000  0.07360000  0.01180000  1.0 0.1089937807
H  H157  1  0.80130000  0.27230000  0.15230000  1.0 0.1193421123
H  H158  1  0.47590000  0.09770000  0.97770000  1.0 0.1193421123
H  H159  1  0.84930000  0.10550000  0.35890000  1.0 0.1089937807
H  H160  1  0.56370000  0.89110000  0.14450000  1.0 0.1089937807
H  H161  1  0.81830000  0.07630000  0.38150000  1.0 0.1283072849
H  H162  1  0.52610000  0.86850000  0.17370000  1.0 0.1283072849
H  H163  1  0.78440000  0.84660000  0.00580000  1.0 0.1089937807
H  H164  1  0.88680000  0.24420000  0.40340000  1.0 0.1089937807
H  H165  1  0.77330000  0.99030000  0.01170000  1.0 0.1283072849
H  H166  1  0.02530000  0.23830000  0.25970000  1.0 0.1283072849
H  H167  1  0.78650000  0.00750000  0.08870000  1.0 0.1193421123
H  H168  1  0.13270000  0.16130000  0.24250000  1.0 0.1193421123
H  H169  1  0.60470000  0.13730000  0.17250000  1.0 0.1089937807
H  H170  1  0.16450000  0.07750000  0.11270000  1.0 0.1089937807
H  H171  1  0.59050000  0.12110000  0.09290000  1.0 0.1283072849
H  H172  1  0.05450000  0.15710000  0.12890000  1.0 0.1283072849
H  H173  1  0.78140000  0.05760000  0.13400000  1.0 0.1193421123
H  H174  1  0.22300000  0.11600000  0.19240000  1.0 0.1193421123
H  H175  1  0.80010000  0.06710000  0.21250000  1.0 0.1283072849
H  H176  1  0.32970000  0.03750000  0.18290000  1.0 0.1283072849
H  H177  1  0.65270000  0.13990000  0.33390000  1.0 0.1283072849
H  H178  1  0.37650000  0.91610000  0.11010000  1.0 0.1283072849
H  H179  1  0.63620000  0.12360000  0.25500000  1.0 0.1089937807
H  H180  1  0.26480000  0.99500000  0.12640000  1.0 0.1089937807
H  H181  1  0.02170000  0.68510000  0.81890000  1.0 0.2708384808
H  H182  1  0.77570000  0.43110000  0.56490000  1.0 0.2708384808
H  H183  1  0.09590000  0.61530000  0.81250000  1.0 0.2708384808
H  H184  1  0.77370000  0.43750000  0.63470000  1.0 0.2708384808
H  H185  1  0.58400000  0.18580000  0.97040000  1.0 0.1089937807
H  H186  1  0.99020000  0.27960000  0.06420000  1.0 0.1089937807
H  H187  1  0.59260000  0.21300000  0.04520000  1.0 0.1089937807
H  H188  1  0.10080000  0.20480000  0.03700000  1.0 0.1089937807
H  H189  1  0.40090000  0.40370000  0.03190000  1.0 0.1089937807
H  H190  1  0.08650000  0.21810000  0.84630000  1.0 0.1089937807
H  H191  1  0.38820000  0.37720000  0.96200000  1.0 0.1089937807
H  H192  1  0.97740000  0.28800000  0.87280000  1.0 0.1089937807
H  H193  1  0.56250000  0.24190000  0.15730000  1.0 0.1089937807
H  H194  1  0.21170000  0.09270000  0.00810000  1.0 0.1089937807
H  H195  1  0.56800000  0.27000000  0.23120000  1.0 0.1193421123
H  H196  1  0.31920000  0.01880000  0.98000000  1.0 0.1193421123
H  H197  1  0.45780000  0.43840000  0.12320000  1.0 0.1283072849
H  H198  1  0.26940000  0.12680000  0.81160000  1.0 0.1283072849
H  H199  1  0.44360000  0.41860000  0.04800000  1.0 0.1089937807
H  H200  1  0.16020000  0.20200000  0.83140000  1.0 0.1089937807
H  H201  1  0.48400000  0.31900000  0.65420000  1.0 0.1089937807
H  H202  1  0.70720000  0.59580000  0.93100000  1.0 0.1089937807
H  H203  1  0.50210000  0.34030000  0.54370000  1.0 0.1089937807
H  H204  1  0.63610000  0.70630000  0.90970000  1.0 0.1089937807
H  H205  1  0.40320000  0.35740000  0.47540000  1.0 0.1089937807
H  H206  1  0.48600000  0.77460000  0.89260000  1.0 0.1089937807
H  H207  1  0.38760000  0.33620000  0.58340000  1.0 0.1193421123
H  H208  1  0.55720000  0.66666667  0.91380000  1.0 0.1193421123
H  H209  1  0.54990000  0.31550000  0.44650000  1.0 0.1089937807
H  H210  1  0.56190000  0.80350000  0.93450000  1.0 0.1089937807
H  H211  1  0.58620000  0.30980000  0.33600000  1.0 0.1193421123
H  H212  1  0.48200000  0.91400000  0.94020000  1.0 0.1193421123
H  H213  1  0.41390000  0.42450000  0.28470000  1.0 0.1283072849
H  H214  1  0.37310000  0.96530000  0.82550000  1.0 0.1283072849
H  H215  1  0.38570000  0.41970000  0.39030000  1.0 0.1089937807
H  H216  1  0.44570000  0.85970000  0.83030000  1.0 0.1089937807
H  H217  1  0.71120000  0.38500000  0.99820000  1.0 0.1089937807
H  H218  1  0.34440000  0.25180000  0.86500000  1.0 0.1089937807
H  H219  1  0.66030000  0.37510000  0.04570000  1.0 0.1089937807
H  H220  1  0.33110000  0.20430000  0.87490000  1.0 0.1049274993
H  H221  1  0.62820000  0.42500000  0.22020000  1.0 0.1089937807
H  H222  1  0.52340000  0.02980000  0.82500000  1.0 0.1089937807
H  H223  1  0.67970000  0.43730000  0.17410000  1.0 0.1283072849
H  H224  1  0.54110000  0.07590000  0.81270000  1.0 0.1283072849
H  H225  1  0.65330000  0.33170000  0.09390000  1.0 0.1089937807
H  H226  1  0.32890000  0.15610000  0.91830000  1.0 0.1089937807
H  H227  1  0.60720000  0.31700000  0.13580000  1.0 0.1283072849
H  H228  1  0.31000000  0.11420000  0.93300000  1.0 0.1283072849
H  H229  1  0.50310000  0.43790000  0.27950000  1.0 0.1283072849
H  H230  1  0.47050000  0.97050000  0.81210000  1.0 0.1283072849
H  H231  1  0.55440000  0.44940000  0.24200000  1.0 0.1193421123
H  H232  1  0.49580000  0.00800000  0.80060000  1.0 0.1193421123
C  C1  1  0.88350000  0.46610000  0.20410000  1.0 -0.1812103256
C  C2  1  0.80370000  0.04590000  0.78390000  1.0 -0.1812103256
C  C3  1  0.86743000  0.41643000  0.27497000  1.0 0.1380459255
C  C4  1  0.80883000  0.97503000  0.83357000  1.0 0.1380459255
C  C5  1  0.53242000  0.67922000  0.70078000  1.0 0.0491226137
C  C6  1  0.16242000  0.54922000  0.57078000  1.0 0.0491226137
C  C7  1  0.85860000  0.48220000  0.27220000  1.0 0.0491226137
C  C8  1  0.86300000  0.97780000  0.76780000  1.0 0.0491226137
C  C9  1  0.26702000  0.82502000  0.72178000  1.0 -0.1897529734
C  C10  1  0.06382000  0.52822000  0.42498000  1.0 -0.1897529734
C  C11  1  0.90038000  0.42578000  0.17142000  1.0 0.0792650105
C  C12  1  0.74758000  0.07858000  0.82422000  1.0 0.0792650105
C  C13  1  0.92301000  0.41641000  0.10019000  1.0 0.1815700051
C  C14  1  0.68961000  0.14981000  0.83359000  1.0 0.1815700051
C  C15  1  0.39804000  0.77004000  0.72596000  1.0 0.1594783146
C  C16  1  0.14404000  0.52404000  0.47996000  1.0 0.1594783146
C  C17  1  0.25378000  0.80098000  0.74022000  1.0 -0.1505017885
C  C18  1  0.04498000  0.50978000  0.44902000  1.0 -0.1505017885
C  C19  1  0.50994000  0.67154000  0.67846000  1.0 -0.141415023
C  C20  1  0.10994000  0.57154000  0.57846000  1.0 -0.1505017885
C  C21  1  0.89204000  0.40104000  0.20596000  1.0 -0.1897529734
C  C22  1  0.74904000  0.04404000  0.84896000  1.0 -0.1897529734
C  C23  1  0.87006000  0.44606000  0.84774000  1.0 0.0886843873
C  C24  1  0.41386000  0.40226000  0.80394000  1.0 0.0886843873
C  C25  1  0.80389000  0.48549000  0.66991000  1.0 0.585753421
C  C26  1  0.20929000  0.58009000  0.76451000  1.0 0.585753421
C  C27  1  0.73165000  0.53945000  0.67595000  1.0 -0.028311386
C  C28  1  0.19705000  0.57405000  0.71055000  1.0 -0.028311386
C  C29  1  0.70195000  0.55535000  0.62705000  1.0 -0.1103176021
C  C30  1  0.13435000  0.62295000  0.69465000  1.0 -0.1103176021
C  C31  1  0.63772000  0.60092000  0.63448000  1.0 -0.141415023
C  C32  1  0.12312000  0.61552000  0.64908000  1.0 -0.141415023
C  C33  1  0.59805000  0.63385000  0.69195000  1.0 0.0669695939
C  C34  1  0.17385000  0.55805000  0.61615000  1.0 0.0669695939
C  C35  1  0.62741000  0.62141000  0.73979000  1.0 -0.141415023
C  C36  1  0.23861000  0.51021000  0.62859000  1.0 -0.141415023
C  C37  1  0.69357000  0.57477000  0.73163000  1.0 -0.1004803586
C  C38  1  0.24997000  0.51837000  0.67523000  1.0 -0.1004803586
C  C39  1  0.92647000  0.41547000  0.92873000  1.0 0.0886843873
C  C40  1  0.52067000  0.32127000  0.83453000  1.0 0.0886843873
C  C41  1  0.87069000  0.44869000  0.90831000  1.0 -0.2005838636
C  C42  1  0.47769000  0.34169000  0.80131000  1.0 -0.2005838636
C  C43  1  0.44275000  0.71895000  0.68945000  1.0 -0.1812103256
C  C44  1  0.10115000  0.56055000  0.53105000  1.0 -0.1812103256
C  C45  1  0.97760000  0.38280000  0.88280000  1.0 -0.1686411645
C  C46  1  0.49320000  0.36720000  0.86720000  1.0 -0.1686411645
C  C47  1  0.41853000  0.78053000  0.75367000  1.0 -0.1610428266
C  C48  1  0.20273000  0.49633000  0.46947000  1.0 -0.1610428266
C  C49  1  0.48052000  0.73792000  0.73828000  1.0 -0.1203950105
C  C50  1  0.20672000  0.51172000  0.51208000  1.0 -0.1203950105
C  C51  1  0.23616000  0.64636000  0.83124000  1.0 0.5709246066
C  C52  1  0.96376000  0.41876000  0.60364000  1.0 0.5709246066
C  C53  1  0.24767000  0.67607000  0.82193000  1.0 -0.0091048835
C  C54  1  0.99567000  0.42807000  0.57393000  1.0 -0.0091048835
C  C55  1  0.30961000  0.63441000  0.83179000  1.0 -0.1103176021
C  C56  1  0.02581000  0.41821000  0.61559000  1.0 -0.1103176021
C  C57  1  0.32019000  0.65999000  0.82281000  1.0 -0.1505017885
C  C58  1  0.05299000  0.42719000  0.59001000  1.0 -0.1505017885
C  C59  1  0.27049000  0.72649000  0.80031000  1.0 0.0669695939
C  C60  1  0.04729000  0.44969000  0.52351000  1.0 0.0669695939
C  C61  1  0.20999000  0.76539000  0.79141000  1.0 -0.141415023
C  C62  1  0.01679000  0.45859000  0.48461000  1.0 -0.141415023
C  C63  1  0.19590000  0.74430000  0.80410000  1.0 -0.092530211
C  C64  1  0.99430000  0.44590000  0.50570000  1.0 -0.092530211
C  C65  1  0.28480000  0.75120000  0.78600000  1.0 0.0610838928
C  C66  1  0.07200000  0.46400000  0.49880000  1.0 0.0610838928
C  C67  1  0.33457000  0.72197000  0.81663000  1.0 -0.1331027556
C  C68  1  0.12317000  0.43337000  0.52803000  1.0 -0.1331027556
C  C69  1  0.34677000  0.74537000  0.79863000  1.0 -0.1505017885
C  C70  1  0.14077000  0.45137000  0.50463000  1.0 -0.141415023
C  C71  1  0.31470000  0.79470000  0.75690000  1.0 0.1380459255
C  C72  1  0.11630000  0.49310000  0.45530000  1.0 0.1380459255
C  C73  1  0.97107000  0.38487000  0.81773000  1.0 0.0886843873
C  C74  1  0.42367000  0.43227000  0.86513000  1.0 0.0886843873
C  C75  1  0.93381000  0.41081000  0.99639000  1.0 0.1594783146
C  C76  1  0.59101000  0.25361000  0.83919000  1.0 0.1594783146
C  C77  1  0.99592000  0.29312000  0.66948000  1.0 0.5801895525
C  C78  1  0.20852000  0.58052000  0.95688000  1.0 0.585753421
C  C79  1  0.04505000  0.22145000  0.68015000  1.0 -0.0226851642
C  C80  1  0.19665000  0.56985000  0.02855000  1.0 -0.0226851642
C  C81  1  0.04444000  0.19664000  0.73816000  1.0 -0.1103176021
C  C82  1  0.22924000  0.51184000  0.05336000  1.0 -0.1103176021
C  C83  1  0.08994000  0.13294000  0.74506000  1.0 -0.1505017885
C  C84  1  0.21794000  0.50494000  0.11706000  1.0 -0.141415023
C  C85  1  0.13749000  0.08869000  0.69911000  1.0 0.0610838928
C  C86  1  0.17529000  0.55089000  0.16131000  1.0 0.0610838928
C  C87  1  0.13902000  0.11402000  0.63918000  1.0 -0.1610428266
C  C88  1  0.14222000  0.61082000  0.13598000  1.0 -0.1610428266
C  C89  1  0.09251000  0.17891000  0.63149000  1.0 -0.092530211
C  C90  1  0.15291000  0.61851000  0.07109000  1.0 -0.092530211
C  C91  1  0.18486000  0.02006000  0.70894000  1.0 0.0491226137
C  C92  1  0.16386000  0.54106000  0.22994000  1.0 0.0491226137
C  C93  1  0.17535000  0.99615000  0.75605000  1.0 -0.1203950105
C  C94  1  0.17755000  0.49395000  0.25385000  1.0 -0.1203950105
C  C95  1  0.22114000  0.93334000  0.76606000  1.0 -0.1610428266
C  C96  1  0.17054000  0.48394000  0.31666000  1.0 -0.1610428266
C  C97  1  0.28190000  0.88470000  0.72910000  1.0 0.1713670906
C  C98  1  0.14570000  0.52090000  0.36530000  1.0 0.1713670906
C  C99  1  0.29340000  0.90520000  0.67980000  1.0 -0.2005838636
C  C100  1  0.12840000  0.57020000  0.34480000  1.0 -0.1897529734
C  C101  1  0.24605000  0.97205000  0.66955000  1.0 -0.141415023
C  C102  1  0.13765000  0.58045000  0.27795000  1.0 -0.141415023
C  C103  1  0.91263000  0.34563000  0.48017000  1.0 0.5801895525
C  C104  1  0.98843000  0.76983000  0.90437000  1.0 0.5801895525
C  C105  1  0.95987000  0.27567000  0.48553000  1.0 -0.028311386
C  C106  1  0.97107000  0.76447000  0.97433000  1.0 -0.028311386
C  C107  1  0.98366000  0.24026000  0.54634000  1.0 -0.1203950105
C  C108  1  0.02026000  0.70366000  0.00974000  1.0 -0.1203950105
C  C109  1  0.02782000  0.17462000  0.55138000  1.0 -0.1505017885
C  C110  1  0.00382000  0.69862000  0.07538000  1.0 -0.1505017885
C  C111  1  0.04607000  0.14687000  0.49693000  1.0 0.0669695939
C  C112  1  0.93987000  0.75307000  0.10313000  1.0 0.0669695939
C  C113  1  0.02087000  0.18247000  0.43733000  1.0 -0.1610428266
C  C114  1  0.89067000  0.81267000  0.06753000  1.0 -0.1610428266
C  C115  1  0.97797000  0.24817000  0.42983000  1.0 -0.1103176021
C  C116  1  0.90597000  0.82017000  0.00183000  1.0 -0.1103176021
C  C117  1  0.09484000  0.07604000  0.50196000  1.0 0.0792650105
C  C118  1  0.92284000  0.74804000  0.17396000  1.0 0.0792650105
C  C119  1  0.15061000  0.02681000  0.53999000  1.0 -0.141415023
C  C120  1  0.96741000  0.71001000  0.22319000  1.0 -0.141415023
C  C121  1  0.19348000  0.96408000  0.54352000  1.0 -0.1686411645
C  C122  1  0.95108000  0.70648000  0.28592000  1.0 -0.1686411645
C  C123  1  0.18348000  0.94728000  0.51172000  1.0 0.1380459255
C  C124  1  0.89248000  0.73828000  0.30272000  1.0 0.1380459255
C  C125  1  0.12967000  0.99347000  0.47713000  1.0 -0.1610428266
C  C126  1  0.85027000  0.77287000  0.25653000  1.0 -0.1610428266
C  C127  1  0.08462000  0.05802000  0.46938000  1.0 -0.1505017885
C  C128  1  0.86202000  0.78062000  0.19198000  1.0 -0.1505017885
C  C129  1  0.69835000  0.56355000  0.41525000  1.0 0.5382483121
C  C130  1  0.92715000  0.83475000  0.68645000  1.0 0.5382483121
C  C131  1  0.62803000  0.61043000  0.42977000  1.0 -0.0091048835
C  C132  1  0.91823000  0.82023000  0.63957000  1.0 -0.0091048835
C  C133  1  0.61812000  0.58732000  0.46608000  1.0 -0.1103176021
C  C134  1  0.92152000  0.78392000  0.66268000  1.0 -0.1103176021
C  C135  1  0.55072000  0.63112000  0.47828000  1.0 -0.1505017885
C  C136  1  0.91012000  0.77172000  0.61888000  1.0 -0.1505017885
C  C137  1  0.50059000  0.69299000  0.45721000  1.0 0.0792650105
C  C138  1  0.90079000  0.79279000  0.55701000  1.0 0.0792650105
C  C139  1  0.51123000  0.71903000  0.41997000  1.0 -0.1686411645
C  C140  1  0.90023000  0.83003000  0.53097000  1.0 -0.1686411645
C  C141  1  0.57537000  0.67617000  0.40963000  1.0 -0.1103176021
C  C142  1  0.91117000  0.84037000  0.57383000  1.0 -0.1103176021
C  C143  1  0.42980000  0.73940000  0.47220000  1.0 0.0610838928
C  C144  1  0.89140000  0.77780000  0.51060000  1.0 0.0610838928
C  C145  1  0.41251000  0.72891000  0.52429000  1.0 -0.1331027556
C  C146  1  0.91571000  0.72571000  0.52109000  1.0 -0.1331027556
C  C147  1  0.34731000  0.77411000  0.54449000  1.0 -0.1812103256
C  C148  1  0.91591000  0.70551000  0.47589000  1.0 -0.1812103256
C  C149  1  0.30089000  0.82709000  0.50171000  1.0 0.1713670906
C  C150  1  0.87969000  0.74829000  0.42291000  1.0 0.1713670906
C  C151  1  0.31827000  0.83847000  0.44213000  1.0 -0.1610428266
C  C152  1  0.84887000  0.80787000  0.41153000  1.0 -0.1610428266
C  C153  1  0.37903000  0.79723000  0.42597000  1.0 -0.1004803586
C  C154  1  0.85223000  0.82403000  0.45277000  1.0 -0.1004803586
C  C155  1  0.05250000  0.79730000  0.73650000  1.0 0.585753421
C  C156  1  0.83630000  0.51350000  0.45270000  1.0 0.585753421
C  C157  1  0.08259000  0.80619000  0.70081000  1.0 -0.028311386
C  C158  1  0.83959000  0.54919000  0.44381000  1.0 -0.028311386
C  C159  1  0.04336000  0.86876000  0.69484000  1.0 -0.1103176021
C  C160  1  0.85696000  0.55516000  0.38124000  1.0 -0.1103176021
C  C161  1  0.07192000  0.87632000  0.66428000  1.0 -0.1505017885
C  C162  1  0.86252000  0.58572000  0.37368000  1.0 -0.1505017885
C  C163  1  0.13531000  0.82511000  0.64029000  1.0 0.0669695939
C  C164  1  0.85071000  0.60971000  0.42489000  1.0 0.0669695939
C  C165  1  0.17520000  0.76240000  0.64520000  1.0 -0.1505017885
C  C166  1  0.83280000  0.60480000  0.48760000  1.0 -0.1505017885
C  C167  1  0.14823000  0.75123000  0.67637000  1.0 -0.092530211
C  C168  1  0.82583000  0.57363000  0.49877000  1.0 -0.092530211
C  C169  1  0.16434000  0.83534000  0.60786000  1.0 0.0610838928
C  C170  1  0.85754000  0.64214000  0.41466000  1.0 0.0610838928
C  C171  1  0.13237000  0.89137000  0.62343000  1.0 -0.141415023
C  C172  1  0.89717000  0.62657000  0.35863000  1.0 -0.141415023
C  C173  1  0.15653000  0.90313000  0.59547000  1.0 -0.1897529734
C  C174  1  0.90513000  0.65453000  0.34687000  1.0 -0.1897529734
C  C175  1  0.21177000  0.86077000  0.54963000  1.0 0.1594783146
C  C176  1  0.87217000  0.70037000  0.38923000  1.0 0.1594783146
C  C177  1  0.24215000  0.80775000  0.53445000  1.0 -0.1812103256
C  C178  1  0.83435000  0.71555000  0.44225000  1.0 -0.1812103256
C  C179  1  0.21943000  0.79263000  0.56437000  1.0 -0.1505017885
C  C180  1  0.82643000  0.68563000  0.45737000  1.0 -0.1505017885
C  C181  1  0.20410000  0.44630000  0.88350000  1.0 -0.1897529734
C  C182  1  0.78390000  0.36650000  0.80370000  1.0 -0.1812103256
C  C183  1  0.27497000  0.44117000  0.86743000  1.0 0.1380459255
C  C184  1  0.83357000  0.38257000  0.80883000  1.0 0.1380459255
C  C185  1  0.70078000  0.08758000  0.53242000  1.0 0.0491226137
C  C186  1  0.57078000  0.71758000  0.16242000  1.0 0.0491226137
C  C187  1  0.27220000  0.38700000  0.85860000  1.0 0.0491226137
C  C188  1  0.76780000  0.39140000  0.86300000  1.0 0.0491226137
C  C189  1  0.72178000  0.18618000  0.26702000  1.0 -0.1897529734
C  C190  1  0.42498000  0.98298000  0.06382000  1.0 -0.1897529734
C  C191  1  0.17142000  0.50242000  0.90038000  1.0 0.0792650105
C  C192  1  0.82422000  0.34962000  0.74758000  1.0 0.0792650105
C  C193  1  0.10019000  0.56039000  0.92301000  1.0 0.1815700051
C  C194  1  0.83359000  0.32699000  0.68961000  1.0 0.1815700051
C  C195  1  0.72596000  0.10596000  0.39804000  1.0 0.1594783146
C  C196  1  0.47996000  0.85196000  0.14404000  1.0 0.1594783146
C  C197  1  0.74022000  0.20502000  0.25378000  1.0 -0.1505017885
C  C198  1  0.44902000  0.99622000  0.04498000  1.0 -0.1505017885
C  C199  1  0.67846000  0.14006000  0.50994000  1.0 -0.141415023
C  C200  1  0.57846000  0.74006000  0.10994000  1.0 -0.141415023
C  C201  1  0.20596000  0.50096000  0.89204000  1.0 -0.1897529734
C  C202  1  0.84896000  0.35796000  0.74904000  1.0 -0.1897529734
C  C203  1  0.84774000  0.83614000  0.87006000  1.0 0.0886843873
C  C204  1  0.80394000  0.37994000  0.41386000  1.0 0.0886843873
C  C205  1  0.66991000  0.04071000  0.80389000  1.0 0.585753421
C  C206  1  0.76451000  0.44611000  0.20929000  1.0 0.585753421
C  C207  1  0.67595000  0.05295000  0.73165000  1.0 -0.028311386
C  C208  1  0.71055000  0.51835000  0.19705000  1.0 -0.028311386
C  C209  1  0.62705000  0.11565000  0.70195000  1.0 -0.1103176021
C  C210  1  0.69465000  0.54805000  0.13435000  1.0 -0.1103176021
C  C211  1  0.63448000  0.12688000  0.63772000  1.0 -0.141415023
C  C212  1  0.64908000  0.61228000  0.12312000  1.0 -0.141415023
C  C213  1  0.69195000  0.07615000  0.59805000  1.0 0.0669695939
C  C214  1  0.61615000  0.65195000  0.17385000  1.0 0.0669695939
C  C215  1  0.73979000  0.01139000  0.62741000  1.0 -0.141415023
C  C216  1  0.62859000  0.62259000  0.23861000  1.0 -0.141415023
C  C217  1  0.73163000  0.00003000  0.69357000  1.0 -0.1004803586
C  C218  1  0.67523000  0.55643000  0.24997000  1.0 -0.1004803586
C  C219  1  0.92873000  0.72933000  0.92647000  1.0 0.0886843873
C  C220  1  0.83453000  0.32353000  0.52067000  1.0 0.0886843873
C  C221  1  0.90831000  0.77231000  0.87069000  1.0 -0.2005838636
C  C222  1  0.80131000  0.37931000  0.47769000  1.0 -0.2005838636
C  C223  1  0.68945000  0.14885000  0.44275000  1.0 -0.1812103256
C  C224  1  0.53105000  0.80725000  0.10115000  1.0 -0.1812103256
C  C225  1  0.88280000  0.75680000  0.97760000  1.0 -0.1686411645
C  C226  1  0.86720000  0.27240000  0.49320000  1.0 -0.1686411645
C  C227  1  0.75367000  0.04727000  0.41853000  1.0 -0.1610428266
C  C228  1  0.46947000  0.83147000  0.20273000  1.0 -0.1610428266
C  C229  1  0.73828000  0.04328000  0.48052000  1.0 -0.1203950105
C  C230  1  0.51208000  0.76948000  0.20672000  1.0 -0.1203950105
C  C231  1  0.83124000  0.28624000  0.23616000  1.0 0.5709246066
C  C232  1  0.60364000  0.01384000  0.96376000  1.0 0.5709246066
C  C233  1  0.82193000  0.25433000  0.24767000  1.0 -0.0091048835
C  C234  1  0.57393000  0.00233000  0.99567000  1.0 -0.0091048835
C  C235  1  0.83179000  0.22419000  0.30961000  1.0 -0.1103176021
C  C236  1  0.61559000  0.94039000  0.02581000  1.0 -0.1103176021
C  C237  1  0.82281000  0.19701000  0.32019000  1.0 -0.1505017885
C  C238  1  0.59001000  0.92981000  0.05299000  1.0 -0.1505017885
C  C239  1  0.80031000  0.20271000  0.27049000  1.0 0.0669695939
C  C240  1  0.52351000  0.97951000  0.04729000  1.0 0.0669695939
C  C241  1  0.79141000  0.23321000  0.20999000  1.0 -0.141415023
C  C242  1  0.48461000  0.04001000  0.01679000  1.0 -0.141415023
C  C243  1  0.80410000  0.25570000  0.19590000  1.0 -0.092530211
C  C244  1  0.50570000  0.05410000  0.99430000  1.0 -0.092530211
C  C245  1  0.78600000  0.17800000  0.28480000  1.0 0.0610838928
C  C246  1  0.49880000  0.96520000  0.07200000  1.0 0.0610838928
C  C247  1  0.81663000  0.12683000  0.33457000  1.0 -0.1331027556
C  C248  1  0.52803000  0.91543000  0.12317000  1.0 -0.1331027556
C  C249  1  0.79863000  0.10923000  0.34677000  1.0 -0.1505017885
C  C250  1  0.50463000  0.90323000  0.14077000  1.0 -0.141415023
C  C251  1  0.75690000  0.13370000  0.31470000  1.0 0.1380459255
C  C252  1  0.45530000  0.93530000  0.11630000  1.0 0.1380459255
C  C253  1  0.81773000  0.82633000  0.97107000  1.0 0.0886843873
C  C254  1  0.86513000  0.27893000  0.42367000  1.0 0.0886843873
C  C255  1  0.99639000  0.65899000  0.93381000  1.0 0.1594783146
C  C256  1  0.83919000  0.31619000  0.59101000  1.0 0.1594783146
C  C257  1  0.66948000  0.04148000  0.99592000  1.0 0.5801895525
C  C258  1  0.95688000  0.25408000  0.20852000  1.0 0.5801895525
C  C259  1  0.68015000  0.05335000  0.04505000  1.0 -0.0226851642
C  C260  1  0.02855000  0.20495000  0.19665000  1.0 -0.0226851642
C  C261  1  0.73816000  0.02076000  0.04444000  1.0 -0.1103176021
C  C262  1  0.05336000  0.20556000  0.22924000  1.0 -0.1103176021
C  C263  1  0.74506000  0.03206000  0.08994000  1.0 -0.1505017885
C  C264  1  0.11706000  0.16006000  0.21794000  1.0 -0.141415023
C  C265  1  0.69911000  0.07471000  0.13749000  1.0 0.0610838928
C  C266  1  0.16131000  0.11251000  0.17529000  1.0 0.0610838928
C  C267  1  0.63918000  0.10778000  0.13902000  1.0 -0.1610428266
C  C268  1  0.13598000  0.11098000  0.14222000  1.0 -0.1610428266
C  C269  1  0.63149000  0.09709000  0.09251000  1.0 -0.092530211
C  C270  1  0.07109000  0.15749000  0.15291000  1.0 -0.092530211
C  C271  1  0.70894000  0.08614000  0.18486000  1.0 0.0491226137
C  C272  1  0.22994000  0.06514000  0.16386000  1.0 0.0491226137
C  C273  1  0.75605000  0.07245000  0.17535000  1.0 -0.1203950105
C  C274  1  0.25385000  0.07465000  0.17755000  1.0 -0.1203950105
C  C275  1  0.76606000  0.07946000  0.22114000  1.0 -0.1610428266
C  C276  1  0.31666000  0.02886000  0.17054000  1.0 -0.1610428266
C  C277  1  0.72910000  0.10430000  0.28190000  1.0 0.1713670906
C  C278  1  0.36530000  0.96810000  0.14570000  1.0 0.1713670906
C  C279  1  0.67980000  0.12160000  0.29340000  1.0 -0.1897529734
C  C280  1  0.34480000  0.95660000  0.12840000  1.0 -0.2005838636
C  C281  1  0.66955000  0.11235000  0.24605000  1.0 -0.141415023
C  C282  1  0.27795000  0.00395000  0.13765000  1.0 -0.141415023
C  C283  1  0.48017000  0.26157000  0.91263000  1.0 0.5801895525
C  C284  1  0.90437000  0.33737000  0.98843000  1.0 0.5801895525
C  C285  1  0.48553000  0.27893000  0.95987000  1.0 -0.028311386
C  C286  1  0.97433000  0.29013000  0.97107000  1.0 -0.028311386
C  C287  1  0.54634000  0.22974000  0.98366000  1.0 -0.1203950105
C  C288  1  0.00974000  0.26634000  0.02026000  1.0 -0.1203950105
C  C289  1  0.55138000  0.24618000  0.02782000  1.0 -0.1505017885
C  C290  1  0.07538000  0.22218000  0.00382000  1.0 -0.1505017885
C  C291  1  0.49693000  0.31013000  0.04607000  1.0 0.0669695939
C  C292  1  0.10313000  0.20393000  0.93987000  1.0 0.0669695939
C  C293  1  0.43733000  0.35933000  0.02087000  1.0 -0.1610428266
C  C294  1  0.06753000  0.22913000  0.89067000  1.0 -0.1610428266
C  C295  1  0.42983000  0.34403000  0.97797000  1.0 -0.1103176021
C  C296  1  0.00183000  0.27203000  0.90597000  1.0 -0.1103176021
C  C297  1  0.50196000  0.32716000  0.09484000  1.0 0.0792650105
C  C298  1  0.17396000  0.15516000  0.92284000  1.0 0.0792650105
C  C299  1  0.53999000  0.28259000  0.15061000  1.0 -0.141415023
C  C300  1  0.22319000  0.09939000  0.96741000  1.0 -0.141415023
C  C301  1  0.54352000  0.29892000  0.19348000  1.0 -0.1686411645
C  C302  1  0.28592000  0.05652000  0.95108000  1.0 -0.1686411645
C  C303  1  0.51172000  0.35752000  0.18348000  1.0 0.1380459255
C  C304  1  0.30272000  0.06652000  0.89248000  1.0 0.1380459255
C  C305  1  0.47713000  0.39973000  0.12967000  1.0 -0.1610428266
C  C306  1  0.25653000  0.12033000  0.85027000  1.0 -0.1610428266
C  C307  1  0.46938000  0.38798000  0.08462000  1.0 -0.1505017885
C  C308  1  0.19198000  0.16538000  0.86202000  1.0 -0.1505017885
C  C309  1  0.41525000  0.32285000  0.69835000  1.0 0.5382483121
C  C310  1  0.68645000  0.55165000  0.92715000  1.0 0.5382483121
C  C311  1  0.42977000  0.33177000  0.62803000  1.0 -0.0091048835
C  C312  1  0.63957000  0.62197000  0.91823000  1.0 -0.0091048835
C  C313  1  0.46608000  0.32848000  0.61812000  1.0 -0.1103176021
C  C314  1  0.66268000  0.63188000  0.92152000  1.0 -0.1103176021
C  C315  1  0.47828000  0.33988000  0.55072000  1.0 -0.1505017885
C  C316  1  0.61888000  0.69928000  0.91012000  1.0 -0.1505017885
C  C317  1  0.45721000  0.34921000  0.50059000  1.0 0.0792650105
C  C318  1  0.55701000  0.74941000  0.90079000  1.0 0.0792650105
C  C319  1  0.41997000  0.34977000  0.51123000  1.0 -0.1686411645
C  C320  1  0.53097000  0.73877000  0.90023000  1.0 -0.1686411645
C  C321  1  0.40963000  0.33883000  0.57537000  1.0 -0.1103176021
C  C322  1  0.57383000  0.67463000  0.91117000  1.0 -0.1103176021
C  C323  1  0.47220000  0.35860000  0.42980000  1.0 0.0610838928
C  C324  1  0.51060000  0.82020000  0.89140000  1.0 0.0610838928
C  C325  1  0.52429000  0.33429000  0.41251000  1.0 -0.1331027556
C  C326  1  0.52109000  0.83749000  0.91571000  1.0 -0.1331027556
C  C327  1  0.54449000  0.33409000  0.34731000  1.0 -0.1812103256
C  C328  1  0.47589000  0.90269000  0.91591000  1.0 -0.1812103256
C  C329  1  0.50171000  0.37031000  0.30089000  1.0 0.1713670906
C  C330  1  0.42291000  0.94911000  0.87969000  1.0 0.1713670906
C  C331  1  0.44213000  0.40113000  0.31827000  1.0 -0.1610428266
C  C332  1  0.41153000  0.93173000  0.84887000  1.0 -0.1610428266
C  C333  1  0.42597000  0.39777000  0.37903000  1.0 -0.1004803586
C  C334  1  0.45277000  0.87097000  0.85223000  1.0 -0.1004803586
C  C335  1  0.73650000  0.41370000  0.05250000  1.0 0.585753421
C  C336  1  0.45270000  0.19750000  0.83630000  1.0 0.585753421
C  C337  1  0.70081000  0.41041000  0.08259000  1.0 -0.028311386
C  C338  1  0.44381000  0.16741000  0.83959000  1.0 -0.028311386
C  C339  1  0.69484000  0.39304000  0.04336000  1.0 -0.1103176021
C  C340  1  0.38124000  0.20664000  0.85696000  1.0 -0.1103176021
C  C341  1  0.66428000  0.38748000  0.07192000  1.0 -0.1505017885
C  C342  1  0.37368000  0.17808000  0.86252000  1.0 -0.1505017885
C  C343  1  0.64029000  0.39929000  0.13531000  1.0 0.0669695939
C  C344  1  0.42489000  0.11469000  0.85071000  1.0 0.0669695939
C  C345  1  0.64520000  0.41720000  0.17520000  1.0 -0.1505017885
C  C346  1  0.48760000  0.07480000  0.83280000  1.0 -0.1505017885
C  C347  1  0.67637000  0.42417000  0.14823000  1.0 -0.092530211
C  C348  1  0.49877000  0.10177000  0.82583000  1.0 -0.092530211
C  C349  1  0.60786000  0.39246000  0.16434000  1.0 0.0610838928
C  C350  1  0.41466000  0.08566000  0.85754000  1.0 0.0610838928
C  C351  1  0.62343000  0.35283000  0.13237000  1.0 -0.141415023
C  C352  1  0.35863000  0.11763000  0.89717000  1.0 -0.141415023
C  C353  1  0.59547000  0.34487000  0.15653000  1.0 -0.1897529734
C  C354  1  0.34687000  0.09347000  0.90513000  1.0 -0.1897529734
C  C355  1  0.54963000  0.37783000  0.21177000  1.0 0.1594783146
C  C356  1  0.38923000  0.03823000  0.87217000  1.0 0.1594783146
C  C357  1  0.53445000  0.41565000  0.24215000  1.0 -0.1812103256
C  C358  1  0.44225000  0.00785000  0.83435000  1.0 -0.1812103256
C  C359  1  0.56437000  0.42357000  0.21943000  1.0 -0.1505017885
C  C360  1  0.45737000  0.03057000  0.82643000  1.0 -0.1505017885
N  N1  1  0.33015000  0.81775000  0.74205000  1.0 -0.1812103256
N  N2  1  0.13995000  0.50795000  0.43225000  1.0 -0.1686411645
N  N3  1  0.91834000  0.41578000  0.80206000  1.0 -0.2284793812
N  N4  1  0.38618000  0.44794000  0.83422000  1.0 -0.2284793812
N  N5  1  0.89460000  0.43146000  0.05140000  1.0 0.0792650105
N  N6  1  0.62746000  0.19860000  0.81854000  1.0 0.0792650105
N  N7  1  0.97665000  0.38785000  0.07915000  1.0 -0.2370436001
N  N8  1  0.69365000  0.17085000  0.86215000  1.0 -0.2370436001
N  N9  1  0.98379000  0.38379000  0.01361000  1.0 -0.2184891548
N  N10  1  0.63119000  0.23639000  0.86621000  1.0 -0.2184891548
N  N11  1  0.83445000  0.46485000  0.05695000  1.0 -0.4684446487
N  N12  1  0.60625000  0.19305000  0.78515000  1.0 -0.4684446487
N  N13  1  0.85171000  0.45231000  0.30469000  1.0 -0.2104698155
N  N14  1  0.85871000  0.94531000  0.79769000  1.0 -0.2104698155
N  N15  1  0.23362000  0.87622000  0.51598000  1.0 -0.1610428266
N  N16  1  0.87582000  0.73402000  0.37378000  1.0 -0.1610428266
N  N17  1  0.74205000  0.11005000  0.33015000  1.0 -0.1686411645
N  N18  1  0.43225000  0.91985000  0.13995000  1.0 -0.1686411645
N  N19  1  0.80206000  0.86382000  0.91834000  1.0 -0.2284793812
N  N20  1  0.83422000  0.33166000  0.38618000  1.0 -0.2284793812
N  N21  1  0.05140000  0.62254000  0.89460000  1.0 0.0792650105
N  N22  1  0.81854000  0.35540000  0.62746000  1.0 0.0792650105
N  N23  1  0.07915000  0.55635000  0.97665000  1.0 -0.2370436001
N  N24  1  0.86215000  0.27335000  0.69365000  1.0 -0.2370436001
N  N25  1  0.01361000  0.61881000  0.98379000  1.0 -0.2184891548
N  N26  1  0.86621000  0.26621000  0.63119000  1.0 -0.2184891548
N  N27  1  0.05695000  0.64375000  0.83445000  1.0 -0.4684446487
N  N28  1  0.78515000  0.41555000  0.60625000  1.0 -0.4684446487
N  N29  1  0.30469000  0.39129000  0.85171000  1.0 -0.2104698155
N  N30  1  0.79769000  0.39829000  0.85871000  1.0 -0.2104698155
N  N31  1  0.51598000  0.37418000  0.23362000  1.0 -0.1610428266
N  N32  1  0.37378000  0.01638000  0.87582000  1.0 -0.1686411645
O  O1  1  0.82325000  0.48771000  0.70575000  1.0 -0.5492196295
O  O2  1  0.26671000  0.54425000  0.76229000  1.0 -0.5492196295
O  O3  1  0.84031000  0.44335000  0.62969000  1.0 -0.5416654746
O  O4  1  0.16335000  0.62031000  0.80665000  1.0 -0.5416654746
O  O5  1  0.98941000  0.31509000  0.61099000  1.0 -0.5594323907
O  O6  1  0.16549000  0.63901000  0.93491000  1.0 -0.5594323907
O  O7  1  0.96442000  0.32432000  0.72078000  1.0 -0.5416654746
O  O8  1  0.25952000  0.52922000  0.92568000  1.0 -0.5492196295
O  O9  1  0.28324000  0.58922000  0.84536000  1.0 -0.4894909743
O  O10  1  0.96782000  0.40464000  0.66078000  1.0 -0.4894909743
O  O11  1  0.18090000  0.68570000  0.82110000  1.0 -0.5416654746
O  O12  1  0.93770000  0.42890000  0.56430000  1.0 -0.5416654746
O  O13  1  0.08852000  0.74046000  0.75088000  1.0 -0.5492196295
O  O14  1  0.82986000  0.49912000  0.50954000  1.0 -0.5492196295
O  O15  1  0.99032000  0.85072000  0.74808000  1.0 -0.5416654746
O  O16  1  0.83912000  0.50192000  0.39928000  1.0 -0.5416654746
O  O17  1  0.89400000  0.37048000  0.53160000  1.0 -0.5594323907
O  O18  1  0.04608000  0.71840000  0.87952000  1.0 -0.5594323907
O  O19  1  0.89382000  0.37416000  0.42418000  1.0 -0.5416654746
O  O20  1  0.94216000  0.82582000  0.87584000  1.0 -0.5416654746
O  O21  1  0.74401000  0.50785000  0.43799000  1.0 -0.4894909743
O  O22  1  0.93985000  0.81201000  0.74215000  1.0 -0.4894909743
O  O23  1  0.70521000  0.58981000  0.37359000  1.0 -0.5890717987
O  O24  1  0.91861000  0.87641000  0.66019000  1.0 -0.5890717987
O  O25  1  0.70575000  0.98329000  0.82325000  1.0 -0.5492196295
O  O26  1  0.76229000  0.42675000  0.26671000  1.0 -0.5492196295
O  O27  1  0.62969000  0.08665000  0.84031000  1.0 -0.5416654746
O  O28  1  0.80665000  0.40969000  0.16335000  1.0 -0.5416654746
O  O29  1  0.61099000  0.08451000  0.98941000  1.0 -0.5594323907
O  O30  1  0.93491000  0.26059000  0.16549000  1.0 -0.5594323907
O  O31  1  0.72078000  0.99048000  0.96442000  1.0 -0.5492196295
O  O32  1  0.92568000  0.28558000  0.25952000  1.0 -0.5416654746
O  O33  1  0.84536000  0.28218000  0.28324000  1.0 -0.4894909743
O  O34  1  0.66078000  0.96676000  0.96782000  1.0 -0.4894909743
O  O35  1  0.82110000  0.31230000  0.18090000  1.0 -0.5416654746
O  O36  1  0.56430000  0.06910000  0.93770000  1.0 -0.5416654746
O  O37  1  0.75088000  0.42014000  0.08852000  1.0 -0.5492196295
O  O38  1  0.50954000  0.16148000  0.82986000  1.0 -0.5492196295
O  O39  1  0.74808000  0.41088000  0.99032000  1.0 -0.5416654746
O  O40  1  0.39928000  0.25968000  0.83912000  1.0 -0.5416654746
O  O41  1  0.53160000  0.20392000  0.89400000  1.0 -0.5594323907
O  O42  1  0.87952000  0.35600000  0.04608000  1.0 -0.5594323907
O  O43  1  0.42418000  0.30784000  0.89382000  1.0 -0.5416654746
O  O44  1  0.87584000  0.35618000  0.94216000  1.0 -0.5416654746
O  O45  1  0.43799000  0.31015000  0.74401000  1.0 -0.4894909743
O  O46  1  0.74215000  0.50599000  0.93985000  1.0 -0.4894909743
O  O47  1  0.37359000  0.33139000  0.70521000  1.0 -0.5890717987
O  O48  1  0.66019000  0.54479000  0.91861000  1.0 -0.5890717987
