# DDEC6 charges by PACMAN v1.1 (https://github.com/mtap-research/PACMAN-charge/)
data_ASINIB_ASR_pacman
_symmetry_space_group_name_H-M   'P 1'
_cell_length_a   40.32450000
_cell_length_b   40.29000000
_cell_length_c   20.84170000
_cell_angle_alpha   75.10860000
_cell_angle_beta   74.92510000
_cell_angle_gamma   29.96630000
_symmetry_Int_Tables_number   1
_chemical_formula_structural   Cu3H58C90(N2O3)4
_chemical_formula_sum   'Cu12 H232 C360 N32 O48'
_cell_volume   16295.93780619
_cell_formula_units_Z   4
loop_
 _symmetry_equiv_pos_site_id
 _symmetry_equiv_pos_as_xyz
  1  'x, y, z'
loop_
 _atom_site_type_symbol
 _atom_site_label
 _atom_site_symmetry_multiplicity
 _atom_site_fract_x
 _atom_site_fract_y
 _atom_site_fract_z
 _atom_site_occupancy
 _atom_site_charge
Cu  Cu1  1  0.56973000  0.75639000  0.36227000  1.0 0.7297813432
Cu  Cu2  1  0.93838000  0.88773000  0.49361000  1.0 0.7297813432
Cu  Cu3  1  0.47305000  0.81803000  0.05475000  1.0 0.7863823162
Cu  Cu4  1  0.59583000  0.19526000  0.43197000  1.0 0.7863823162
Cu  Cu5  1  0.56262000  0.75138000  0.20525000  1.0 0.9539361731
Cu  Cu6  1  0.76926000  0.04475000  0.49861000  1.0 0.9539361731
Cu  Cu7  1  0.36227000  0.31161000  0.56973000  1.0 0.7297813432
Cu  Cu8  1  0.49361000  0.68027000  0.93839000  1.0 0.7297813432
Cu  Cu9  1  0.05475000  0.65417000  0.47305000  1.0 0.7863823162
Cu  Cu10  1  0.43197000  0.77695000  0.59583000  1.0 0.7863823162
Cu  Cu11  1  0.20526000  0.48074000  0.56262000  1.0 0.9539361731
Cu  Cu12  1  0.49862000  0.68738000  0.76926000  1.0 0.9539361731
H  H1  1  0.58920000  0.04461000  0.21480000  1.0 0.109584705
H  H2  1  0.09860000  0.03520000  0.20540000  1.0 0.109584705
H  H3  1  0.78050000  0.00511000  0.70449000  1.0 0.1305497772
H  H4  1  0.74010000  0.54551000  0.24490000  1.0 0.1305497772
H  H5  1  0.58670000  0.01571000  0.13609000  1.0 0.1188481328
H  H6  1  0.98850000  0.11391000  0.23430000  1.0 0.1188481328
H  H7  1  0.71730000  0.92351000  0.19049000  1.0 0.1188481328
H  H8  1  0.08130000  0.05951000  0.32649000  1.0 0.1188481328
H  H9  1  0.75160000  0.00840000  0.37060000  1.0 0.1305497772
H  H10  1  0.38060000  0.87940000  0.24160000  1.0 0.1305497772
H  H11  1  0.94780000  0.83261000  0.33339000  1.0 0.109584705
H  H12  1  0.36380000  0.91661000  0.41740000  1.0 0.109584705
H  H13  1  0.90640000  0.82881000  0.67459000  1.0 0.1305497772
H  H14  1  0.65980000  0.57541000  0.42119000  1.0 0.1305497772
H  H15  1  0.83690000  0.79651000  0.98330000  1.0 0.1305497772
H  H16  1  0.86670000  0.26671000  0.45349000  1.0 0.13610328
H  H17  1  0.46310000  0.91870000  0.19170000  1.0 0.1305497772
H  H18  1  0.82350000  0.05830000  0.33130000  1.0 0.1305497772
H  H19  1  0.62740000  0.79861000  0.12759000  1.0 0.1188481328
H  H20  1  0.80360000  0.12240000  0.45139000  1.0 0.1188481328
H  H21  1  0.52470000  0.20811000  0.62369000  1.0 0.1188481328
H  H22  1  0.60650000  0.62631000  0.04190000  1.0 0.1188481328
H  H23  1  0.76320000  0.94301000  0.02840000  1.0 0.1305497772
H  H24  1  0.98460000  0.22160000  0.30700000  1.0 0.1305497772
H  H25  1  0.76460000  0.99161000  0.81800000  1.0 0.1188481328
H  H26  1  0.82420000  0.43200000  0.25839000  1.0 0.1188481328
H  H27  1  0.89910000  0.80671000  0.78170000  1.0 0.1188481328
H  H28  1  0.73750000  0.46831000  0.44329000  1.0 0.1188481328
H  H29  1  0.93090000  0.81471000  0.25789000  1.0 0.109584705
H  H30  1  0.25350000  0.99211000  0.43529000  1.0 0.109584705
H  H31  1  0.49980000  0.19681000  0.73699000  1.0 0.109584705
H  H32  1  0.68360000  0.51301000  0.05319000  1.0 0.1188481328
H  H33  1  0.67690000  0.75431000  0.31189000  1.0 0.1188481328
H  H34  1  0.99310000  0.93810000  0.49569000  1.0 0.1188481328
H  H35  1  0.47670000  0.96930000  0.17969000  1.0 0.109584705
H  H36  1  0.87570000  0.07031000  0.28069000  1.0 0.109584705
H  H37  1  0.68870000  0.00831000  0.75370000  1.0 0.109584705
H  H38  1  0.70070000  0.49630000  0.24170000  1.0 0.109584705
H  H39  1  0.66130000  0.70830000  0.43610000  1.0 0.109584705
H  H40  1  0.05570000  0.81390000  0.54170000  1.0 0.109584705
H  H41  1  0.84990000  0.81251000  0.87430000  1.0 0.1188481328
H  H42  1  0.78670000  0.37571000  0.43749000  1.0 0.1188481328
H  H43  1  0.48450000  0.81691000  0.48870000  1.0 0.1188481328
H  H44  1  0.04010000  0.76131000  0.43310000  1.0 0.1188481328
H  H45  1  0.50300000  0.89901000  0.99579000  1.0 0.1188481328
H  H46  1  0.64780000  0.25421000  0.35100000  1.0 0.1188481328
H  H47  1  0.65450000  0.04111000  0.86410000  1.0 0.1188481328
H  H48  1  0.80970000  0.38590000  0.20890000  1.0 0.1188481328
H  H49  1  0.48680000  0.82121000  0.59079000  1.0 0.13610328
H  H50  1  0.14880000  0.65921000  0.42879000  1.0 0.13610328
H  H51  1  0.66730000  0.70830000  0.54749000  1.0 0.1305497772
H  H52  1  0.17310000  0.70251000  0.54170000  1.0 0.1305497772
H  H53  1  0.77770000  0.95951000  0.92190000  1.0 0.109584705
H  H54  1  0.90910000  0.32810000  0.29050000  1.0 0.109584705
H  H55  1  0.46980000  0.13440000  0.92339000  1.0 0.13610328
H  H56  1  0.77760000  0.32660000  0.11560000  1.0 0.13610328
H  H57  1  0.63370000  0.03010000  0.96649000  1.0 0.1305497772
H  H58  1  0.88030000  0.28351000  0.21990000  1.0 0.1305497772
H  H59  1  0.66470000  0.87590000  0.07810000  1.0 0.1025785688
H  H60  1  0.86870000  0.17191000  0.37410000  1.0 0.1025785688
H  H61  1  0.73940000  0.93241000  0.27180000  1.0 0.1188481328
H  H62  1  0.19360000  0.97820000  0.31760000  1.0 0.1188481328
H  H63  1  0.52360000  0.94020000  0.98340000  1.0 0.109584705
H  H64  1  0.69720000  0.26660000  0.30979000  1.0 0.109584705
H  H65  1  0.89110000  0.81290000  0.08529000  1.0 0.1305497772
H  H66  1  0.03930000  0.16470000  0.43710000  1.0 0.1305497772
H  H67  1  0.89930000  0.83950000  0.15510000  1.0 0.109584705
H  H68  1  0.14390000  0.09491000  0.41049000  1.0 0.109584705
H  H69  1  0.53390000  0.73850000  0.83449000  1.0 0.13610328
H  H70  1  0.35690000  0.41551000  0.51150000  1.0 0.13610328
H  H71  1  0.79950000  0.74351000  0.21310000  1.0 0.109584705
H  H72  1  0.00610000  0.03691000  0.50650000  1.0 0.109584705
H  H73  1  0.71250000  0.01751000  0.64150000  1.0 0.1188481328
H  H74  1  0.62150000  0.60850000  0.23250000  1.0 0.1188481328
H  H75  1  0.48360000  0.15321000  0.81559000  1.0 0.1188481328
H  H76  1  0.70240000  0.43440000  0.09680000  1.0 0.1188481328
H  H77  1  0.57230000  0.94171000  0.98269000  1.0 0.109584705
H  H78  1  0.74670000  0.26731000  0.30829000  1.0 0.109584705
H  H79  1  0.56090000  0.81271000  0.84070000  1.0 0.1305497772
H  H80  1  0.46430000  0.40931000  0.43729000  1.0 0.1305497772
H  H81  1  0.55090000  0.18851000  0.13730000  1.0 0.109584705
H  H82  1  0.12670000  0.11270000  0.06150000  1.0 0.109584705
H  H83  1  0.47850000  0.18271000  0.02329000  1.0 0.1305497772
H  H84  1  0.93450000  0.22670000  0.06729000  1.0 0.1305497772
H  H85  1  0.52750000  0.73351000  0.95590000  1.0 0.109584705
H  H86  1  0.46690000  0.29411000  0.51650000  1.0 0.109584705
H  H87  1  0.51170000  0.84750000  0.94829000  1.0 0.109584705
H  H88  1  0.55750000  0.30171000  0.40249000  1.0 0.109584705
H  H89  1  0.45580000  0.04020000  0.14919000  1.0 0.1188481328
H  H90  1  0.89520000  0.10081000  0.20979000  1.0 0.1188481328
H  H91  1  0.57930000  0.11431000  0.35909000  1.0 0.109584705
H  H92  1  0.30270000  0.89091000  0.13570000  1.0 0.109584705
H  H93  1  0.72490000  0.76950000  0.26870000  1.0 0.109584705
H  H94  1  0.01310000  0.98130000  0.48049000  1.0 0.109584705
H  H95  1  0.69890000  0.90551000  0.04269000  1.0 0.1188481328
H  H96  1  0.89710000  0.20730000  0.34449000  1.0 0.1188481328
H  H97  1  0.48700000  0.20800000  0.09720000  1.0 0.1188481328
H  H98  1  0.04220000  0.15280000  0.04199000  1.0 0.1188481328
H  H99  1  0.82990000  0.77511000  0.17810000  1.0 0.1305497772
H  H100  1  0.03310000  0.07190000  0.47490000  1.0 0.1305497772
H  H101  1  0.47340000  0.08740000  0.12759000  1.0 0.1305497772
H  H102  1  0.93840000  0.12240000  0.16259000  1.0 0.1305497772
H  H103  1  0.73250000  0.99751000  0.29009000  1.0 0.109584705
H  H104  1  0.27010000  0.95991000  0.25250000  1.0 0.109584705
H  H105  1  0.56790000  0.08930000  0.28630000  1.0 0.1188481328
H  H106  1  0.19350000  0.96371000  0.16070000  1.0 0.1188481328
H  H107  1  0.56510000  0.20971000  0.20890000  1.0 0.1188481328
H  H108  1  0.23370000  0.04111000  0.04029000  1.0 0.1188481328
H  H109  1  0.58450000  0.99070000  0.95990000  1.0 0.1305497772
H  H110  1  0.78510000  0.29011000  0.25929000  1.0 0.1305497772
H  H111  1  0.67360000  0.81320000  0.08819000  1.0 0.1025785688
H  H112  1  0.82500000  0.16181000  0.43679000  1.0 0.1025785688
H  H113  1  0.46290000  0.82771000  0.74630000  1.0 0.2683029683
H  H114  1  0.28690000  0.50370000  0.42229000  1.0 0.2683029683
H  H115  1  0.47380000  0.81941000  0.67260000  1.0 0.2683029683
H  H116  1  0.21580000  0.57740000  0.43060000  1.0 0.2683029683
H  H117  1  0.21479000  0.15140000  0.58920000  1.0 0.109584705
H  H118  1  0.20540000  0.66080000  0.09860000  1.0 0.109584705
H  H119  1  0.70449000  0.50990000  0.78050000  1.0 0.1305497772
H  H120  1  0.24490000  0.46950000  0.74010000  1.0 0.1305497772
H  H121  1  0.13610000  0.26150000  0.58670000  1.0 0.1188481328
H  H122  1  0.23429000  0.66330000  0.98850000  1.0 0.1188481328
H  H123  1  0.19049000  0.16870000  0.71730000  1.0 0.1188481328
H  H124  1  0.32650000  0.53270000  0.08130000  1.0 0.1188481328
H  H125  1  0.37059000  0.86940000  0.75160000  1.0 0.1305497772
H  H126  1  0.24159000  0.49840000  0.38060000  1.0 0.1305497772
H  H127  1  0.33339000  0.88620000  0.94780000  1.0 0.109584705
H  H128  1  0.41740000  0.30220000  0.36380000  1.0 0.109584705
H  H129  1  0.67460000  0.59020000  0.90640000  1.0 0.1305497772
H  H130  1  0.42120000  0.34360000  0.65980000  1.0 0.1305497772
H  H131  1  0.98330000  0.38330000  0.83690000  1.0 0.13610328
H  H132  1  0.45350000  0.41310000  0.86670000  1.0 0.13610328
H  H133  1  0.19169000  0.42650000  0.46310000  1.0 0.1305497772
H  H134  1  0.33130000  0.78690000  0.82350000  1.0 0.1305497772
H  H135  1  0.12759000  0.44640000  0.62740000  1.0 0.1188481328
H  H136  1  0.45139000  0.62260000  0.80360000  1.0 0.1188481328
H  H137  1  0.62369000  0.64350000  0.52470000  1.0 0.1188481328
H  H138  1  0.04189000  0.72530000  0.60650000  1.0 0.1188481328
H  H139  1  0.02839000  0.26540000  0.76320000  1.0 0.1305497772
H  H140  1  0.30699000  0.48680000  0.98460000  1.0 0.1305497772
H  H141  1  0.81800000  0.42580000  0.76460000  1.0 0.1188481328
H  H142  1  0.25839000  0.48540000  0.82420000  1.0 0.1188481328
H  H143  1  0.78170000  0.51250000  0.89910000  1.0 0.1188481328
H  H144  1  0.44329000  0.35090000  0.73750000  1.0 0.1188481328
H  H145  1  0.25789000  0.99650000  0.93090000  1.0 0.109584705
H  H146  1  0.43529000  0.31910000  0.25350000  1.0 0.109584705
H  H147  1  0.73699000  0.56640000  0.49980000  1.0 0.109584705
H  H148  1  0.05319000  0.75020000  0.68360000  1.0 0.1188481328
H  H149  1  0.31189000  0.25690000  0.67690000  1.0 0.1188481328
H  H150  1  0.49569000  0.57310000  0.99310000  1.0 0.1188481328
H  H151  1  0.17969000  0.37430000  0.47670000  1.0 0.109584705
H  H152  1  0.28070000  0.77330000  0.87570000  1.0 0.109584705
H  H153  1  0.75370000  0.54930000  0.68870000  1.0 0.109584705
H  H154  1  0.24169000  0.56130000  0.70070000  1.0 0.109584705
H  H155  1  0.43609000  0.19430000  0.66130000  1.0 0.109584705
H  H156  1  0.54170000  0.58870000  0.05570000  1.0 0.109584705
H  H157  1  0.87430000  0.46330000  0.84990000  1.0 0.1188481328
H  H158  1  0.43750000  0.40010000  0.78670000  1.0 0.1188481328
H  H159  1  0.48870000  0.20990000  0.48450000  1.0 0.1188481328
H  H160  1  0.43310000  0.76550000  0.04010000  1.0 0.1188481328
H  H161  1  0.99579000  0.60220000  0.50300000  1.0 0.1188481328
H  H162  1  0.35099000  0.74700000  0.64780000  1.0 0.1188481328
H  H163  1  0.86409000  0.44030000  0.65450000  1.0 0.1188481328
H  H164  1  0.20889000  0.59550000  0.80970000  1.0 0.1188481328
H  H165  1  0.59079000  0.10120000  0.48680000  1.0 0.13610328
H  H166  1  0.42879000  0.76320000  0.14880000  1.0 0.13610328
H  H167  1  0.54749000  0.07690000  0.66730000  1.0 0.1305497772
H  H168  1  0.54169000  0.58270000  0.17310000  1.0 0.13610328
H  H169  1  0.92190000  0.34090000  0.77770000  1.0 0.109584705
H  H170  1  0.29050000  0.47230000  0.90910000  1.0 0.109584705
H  H171  1  0.92339000  0.47240000  0.46980000  1.0 0.13610328
H  H172  1  0.11559000  0.78020000  0.77760000  1.0 0.13610328
H  H173  1  0.96650000  0.36970000  0.63370000  1.0 0.1305497772
H  H174  1  0.21990000  0.61630000  0.88030000  1.0 0.1305497772
H  H175  1  0.07810000  0.38130000  0.66470000  1.0 0.1025785688
H  H176  1  0.37409000  0.58530000  0.86870000  1.0 0.1025785688
H  H177  1  0.27180000  0.05640000  0.73940000  1.0 0.1188481328
H  H178  1  0.31760000  0.51060000  0.19360000  1.0 0.1188481328
H  H179  1  0.98340000  0.55280000  0.52360000  1.0 0.109584705
H  H180  1  0.30979000  0.72640000  0.69720000  1.0 0.109584705
H  H181  1  0.08530000  0.21070000  0.89110000  1.0 0.1305497772
H  H182  1  0.43710000  0.35890000  0.03930000  1.0 0.1305497772
H  H183  1  0.15510000  0.10610000  0.89930000  1.0 0.109584705
H  H184  1  0.41049000  0.35070000  0.14390000  1.0 0.109584705
H  H185  1  0.83450000  0.89310000  0.53390000  1.0 0.13610328
H  H186  1  0.51150000  0.71610000  0.35690000  1.0 0.13610328
H  H187  1  0.21310000  0.24390000  0.79950000  1.0 0.109584705
H  H188  1  0.50650000  0.45050000  0.00610000  1.0 0.109584705
H  H189  1  0.64150000  0.62850000  0.71250000  1.0 0.1188481328
H  H190  1  0.23250000  0.53750000  0.62150000  1.0 0.1188481328
H  H191  1  0.81559000  0.54760000  0.48360000  1.0 0.1188481328
H  H192  1  0.09679000  0.76640000  0.70240000  1.0 0.1188481328
H  H193  1  0.98269000  0.50330000  0.57230000  1.0 0.109584705
H  H194  1  0.30830000  0.67770000  0.74670000  1.0 0.109584705
H  H195  1  0.84069000  0.78570000  0.56090000  1.0 0.1305497772
H  H196  1  0.43730000  0.68910000  0.46430000  1.0 0.1305497772
H  H197  1  0.13730000  0.12330000  0.55090000  1.0 0.109584705
H  H198  1  0.06149000  0.69910000  0.12670000  1.0 0.109584705
H  H199  1  0.02329000  0.31550000  0.47850000  1.0 0.1305497772
H  H200  1  0.06729000  0.77150000  0.93450000  1.0 0.1305497772
H  H201  1  0.95590000  0.78310000  0.52750000  1.0 0.109584705
H  H202  1  0.51649000  0.72250000  0.46690000  1.0 0.109584705
H  H203  1  0.94829000  0.69250000  0.51170000  1.0 0.109584705
H  H204  1  0.40249000  0.73830000  0.55750000  1.0 0.109584705
H  H205  1  0.14920000  0.35480000  0.45580000  1.0 0.1188481328
H  H206  1  0.20980000  0.79420000  0.89520000  1.0 0.1188481328
H  H207  1  0.35910000  0.94730000  0.57930000  1.0 0.109584705
H  H208  1  0.13570000  0.67070000  0.30270000  1.0 0.109584705
H  H209  1  0.26870000  0.23690000  0.72490000  1.0 0.109584705
H  H210  1  0.48049000  0.52510000  0.01310000  1.0 0.109584705
H  H211  1  0.04269000  0.35290000  0.69890000  1.0 0.1188481328
H  H212  1  0.34449000  0.55110000  0.89710000  1.0 0.1188481328
H  H213  1  0.09719000  0.20780000  0.48700000  1.0 0.1188481328
H  H214  1  0.04199000  0.76300000  0.04220000  1.0 0.1188481328
H  H215  1  0.17810000  0.21690000  0.82990000  1.0 0.1305497772
H  H216  1  0.47490000  0.42010000  0.03310000  1.0 0.1305497772
H  H217  1  0.12760000  0.31160000  0.47340000  1.0 0.1305497772
H  H218  1  0.16259000  0.77660000  0.93840000  1.0 0.1305497772
H  H219  1  0.29009000  0.97990000  0.73250000  1.0 0.109584705
H  H220  1  0.25249000  0.51750000  0.27010000  1.0 0.109584705
H  H221  1  0.28630000  0.05650000  0.56790000  1.0 0.1188481328
H  H222  1  0.16070000  0.68210000  0.19350000  1.0 0.1188481328
H  H223  1  0.20889000  0.01630000  0.56510000  1.0 0.1188481328
H  H224  1  0.04030000  0.68490000  0.23370000  1.0 0.1188481328
H  H225  1  0.95989000  0.46490000  0.58450000  1.0 0.1305497772
H  H226  1  0.25929000  0.66550000  0.78510000  1.0 0.1305497772
H  H227  1  0.08819000  0.42500000  0.67360000  1.0 0.1025785688
H  H228  1  0.43680000  0.57640000  0.82500000  1.0 0.1025785688
H  H229  1  0.74630000  0.96310000  0.46290000  1.0 0.2683029683
H  H230  1  0.42229000  0.78710000  0.28690000  1.0 0.2683029683
H  H231  1  0.67260000  0.03420000  0.47380000  1.0 0.2683029683
H  H232  1  0.43059000  0.77620000  0.21580000  1.0 0.2683029683
C  C1  1  0.56908000  0.07149000  0.17431000  1.0 -0.130668312
C  C2  1  0.06488000  0.07569000  0.17852000  1.0 -0.130668312
C  C3  1  0.80647000  0.96308000  0.72172000  1.0 -0.1100342349
C  C4  1  0.74127000  0.52828000  0.28692000  1.0 -0.1100342349
C  C5  1  0.56560000  0.05561000  0.12840000  1.0 -0.1813552529
C  C6  1  0.99960000  0.12161000  0.19440000  1.0 -0.1813552529
C  C7  1  0.75638000  0.90379000  0.18421000  1.0 -0.169207263
C  C8  1  0.09438000  0.06578000  0.34622000  1.0 -0.169207263
C  C9  1  0.78866000  0.96806000  0.34853000  1.0 -0.0805887626
C  C10  1  0.35526000  0.90146000  0.28193000  1.0 -0.0805887626
C  C11  1  0.90380000  0.86421000  0.32720000  1.0 -0.0805887626
C  C12  1  0.34520000  0.92280000  0.38579000  1.0 -0.0805887626
C  C13  1  0.80381000  0.86221000  0.01758000  1.0 0.1718938226
C  C14  1  0.93361000  0.23242000  0.38778000  1.0 0.1718938226
C  C15  1  0.86262000  0.92583000  0.60737000  1.0 0.5776443716
C  C16  1  0.64582000  0.64263000  0.32417000  1.0 0.5776443716
C  C17  1  0.87874000  0.86215000  0.70446000  1.0 -0.1100342349
C  C18  1  0.69534000  0.54554000  0.38786000  1.0 -0.1100342349
C  C19  1  0.79724000  0.87004000  0.13236000  1.0 0.1513427035
C  C20  1  0.04964000  0.11764000  0.37995000  1.0 0.1513427035
C  C21  1  0.76946000  0.83906000  0.10694000  1.0 0.13610328
C  C22  1  0.96546000  0.14306000  0.41094000  1.0 0.13610328
C  C23  1  0.86063000  0.92863000  0.41437000  1.0 0.5713843243
C  C24  1  0.45363000  0.83564000  0.32137000  1.0 0.5713843243
C  C25  1  0.82546000  0.82987000  0.97074000  1.0 -0.169207263
C  C26  1  0.87606000  0.27926000  0.42013000  1.0 -0.169207263
C  C27  1  0.47741000  0.92161000  0.15019000  1.0 -0.0749099119
C  C28  1  0.79921000  0.09982000  0.32838000  1.0 -0.0805887626
C  C29  1  0.55370000  0.77291000  0.82429000  1.0 0.0584504513
C  C30  1  0.40090000  0.42571000  0.47709000  1.0 0.0584504513
C  C31  1  0.64837000  0.77577000  0.22403000  1.0 -0.0075764854
C  C32  1  0.89817000  0.02598000  0.47423000  1.0 -0.0075764854
C  C33  1  0.64674000  0.79295000  0.15685000  1.0 -0.0912148817
C  C34  1  0.84654000  0.09314000  0.45706000  1.0 -0.0912148817
C  C35  1  0.55813000  0.16754000  0.65026000  1.0 -0.1005970328
C  C36  1  0.62593000  0.59974000  0.08246000  1.0 -0.1005970328
C  C37  1  0.78305000  0.91485000  0.99655000  1.0 -0.18989431
C  C38  1  0.94445000  0.25345000  0.33515000  1.0 -0.18989431
C  C39  1  0.79464000  0.95664000  0.78956000  1.0 -0.1494240235
C  C40  1  0.79084000  0.46045000  0.29335000  1.0 -0.1494240235
C  C41  1  0.87293000  0.84913000  0.76746000  1.0 -0.1425918902
C  C42  1  0.73953000  0.48254000  0.40087000  1.0 -0.1425918902
C  C43  1  0.50515000  0.95456000  0.07705000  1.0 0.0712914219
C  C44  1  0.78675000  0.17296000  0.29545000  1.0 0.0712914219
C  C45  1  0.89364000  0.85445000  0.28096000  1.0 -0.1425918902
C  C46  1  0.27904000  0.96905000  0.39555000  1.0 -0.1425918902
C  C47  1  0.85105000  0.91505000  0.67914000  1.0 -0.0032381942
C  C48  1  0.69525000  0.57086000  0.33494000  1.0 -0.0032381942
C  C49  1  0.81859000  0.89199000  0.22161000  1.0 0.0584504513
C  C50  1  0.18219000  0.02839000  0.35801000  1.0 0.0584504513
C  C51  1  0.54389000  0.15989000  0.71671000  1.0 -0.169207263
C  C52  1  0.67049000  0.53329000  0.09011000  1.0 -0.169207263
C  C53  1  0.59342000  0.09982000  0.75138000  1.0 0.0712914219
C  C54  1  0.69462000  0.49862000  0.15018000  1.0 0.0712914219
C  C55  1  0.67594000  0.76675000  0.26605000  1.0 -0.1005970328
C  C56  1  0.95874000  0.98394000  0.48325000  1.0 -0.1005970328
C  C57  1  0.48473000  0.95234000  0.14327000  1.0 -0.1601752779
C  C58  1  0.83033000  0.10673000  0.29767000  1.0 -0.1601752779
C  C59  1  0.57612000  0.09452000  0.82488000  1.0 0.0712914219
C  C60  1  0.74552000  0.42512000  0.15548000  1.0 0.0712914219
C  C61  1  0.53259000  0.09543000  0.07120000  1.0 0.1718938226
C  C62  1  0.94923000  0.17880000  0.15457000  1.0 0.1718938226
C  C63  1  0.65438000  0.04899000  0.72742000  1.0 -0.130668312
C  C64  1  0.68078000  0.52258000  0.20101000  1.0 -0.130668312
C  C65  1  0.62569000  0.73110000  0.46910000  1.0 0.0772393746
C  C66  1  0.07589000  0.78090000  0.51890000  1.0 0.0772393746
C  C67  1  0.83353000  0.83934000  0.90467000  1.0 -0.130668312
C  C68  1  0.82753000  0.34534000  0.41067000  1.0 -0.130668312
C  C69  1  0.57453000  0.76574000  0.75306000  1.0 0.1591220615
C  C70  1  0.34333000  0.49694000  0.48427000  1.0 0.1591220615
C  C71  1  0.49024000  0.85884000  0.10376000  1.0 0.5713843243
C  C72  1  0.70284000  0.14625000  0.39115000  1.0 0.5713843243
C  C73  1  0.70322000  0.79402000  0.17617000  1.0 0.0712914219
C  C74  1  0.92342000  0.07383000  0.45598000  1.0 0.0772393746
C  C75  1  0.52227000  0.79508000  0.49972000  1.0 0.1025785688
C  C76  1  0.06707000  0.75028000  0.45493000  1.0 0.1025785688
C  C77  1  0.57335000  0.16615000  0.28865000  1.0 -0.0453940271
C  C78  1  0.27815000  0.96135000  0.08385000  1.0 -0.0453940271
C  C79  1  0.50215000  0.90875000  0.03365000  1.0 -0.1005970328
C  C80  1  0.69455000  0.21635000  0.34125000  1.0 -0.1005970328
C  C81  1  0.61782000  0.76582000  0.25438000  1.0 0.5776443716
C  C82  1  0.88802000  0.99563000  0.48418000  1.0 0.5776443716
C  C83  1  0.55432000  0.13892000  0.20968000  1.0 0.0712914219
C  C84  1  0.15292000  0.04032000  0.11107000  1.0 0.0712914219
C  C85  1  0.84857000  0.92138000  0.36542000  1.0 -0.0619008406
C  C86  1  0.38537000  0.88458000  0.32863000  1.0 -0.0619008406
C  C87  1  0.54596000  0.08397000  0.95603000  1.0 0.1188481328
C  C88  1  0.83596000  0.29396000  0.16603000  1.0 0.1305497772
C  C89  1  0.61524000  0.06125000  0.87496000  1.0 -0.1100342349
C  C90  1  0.80144000  0.37505000  0.18876000  1.0 -0.1100342349
C  C91  1  0.57768000  0.76409000  0.58252000  1.0 0.0772393746
C  C92  1  0.17428000  0.66748000  0.48592000  1.0 0.0772393746
C  C93  1  0.51028000  0.98968000  0.06611000  1.0 0.0584504513
C  C94  1  0.81608000  0.18389000  0.26032000  1.0 0.0584504513
C  C95  1  0.52438000  0.79639000  0.56022000  1.0 -0.2185228555
C  C96  1  0.13098000  0.68978000  0.45361000  1.0 -0.2185228555
C  C97  1  0.82963000  0.90224000  0.26816000  1.0 0.0712914219
C  C98  1  0.25003000  0.98184000  0.34776000  1.0 0.0712914219
C  C99  1  0.52429000  0.04830000  0.03950000  1.0 0.1591220615
C  C100  1  0.86209000  0.21049000  0.20170000  1.0 0.1591220615
C  C101  1  0.62904000  0.73124000  0.53595000  1.0 -0.169207263
C  C102  1  0.14624000  0.71405000  0.51875000  1.0 -0.169207263
C  C103  1  0.79102000  0.92463000  0.93378000  1.0 -0.1194419912
C  C104  1  0.89942000  0.31622000  0.32538000  1.0 -0.1194419912
C  C105  1  0.58764000  0.75704000  0.64655000  1.0 0.1188481328
C  C106  1  0.24124000  0.60345000  0.49295000  1.0 0.1188481328
C  C107  1  0.54444000  0.12424000  0.16235000  1.0 0.0584504513
C  C108  1  0.08104000  0.08765000  0.12576000  1.0 0.0584504513
C  C109  1  0.50805000  0.11585000  0.91034000  1.0 -0.1601752779
C  C110  1  0.78425000  0.33965000  0.13414000  1.0 -0.1601752779
C  C111  1  0.60306000  0.05507000  0.93493000  1.0 -0.18989431
C  C112  1  0.84306000  0.31506000  0.19493000  1.0 -0.18989431
C  C113  1  0.69781000  0.85542000  0.10058000  1.0 -0.130668312
C  C114  1  0.90381000  0.14941000  0.39459000  1.0 -0.130668312
C  C115  1  0.76751000  0.91232000  0.23189000  1.0 -0.1425918902
C  C116  1  0.16171000  0.01811000  0.33769000  1.0 -0.1425918902
C  C117  1  0.51181000  0.93581000  0.02638000  1.0 -0.1425918902
C  C118  1  0.72401000  0.22362000  0.31419000  1.0 -0.1425918902
C  C119  1  0.85835000  0.84035000  0.12105000  1.0 -0.1494240235
C  C120  1  0.06975000  0.12895000  0.40964000  1.0 -0.1494240235
C  C121  1  0.86297000  0.85498000  0.16342000  1.0 -0.1194419912
C  C122  1  0.13137000  0.08657000  0.39503000  1.0 -0.1194419912
C  C123  1  0.53620000  0.75440000  0.85680000  1.0 -0.1973306699
C  C124  1  0.39740000  0.39321000  0.49560000  1.0 -0.1973306699
C  C125  1  0.77703000  0.77824000  0.17917000  1.0 -0.130668312
C  C126  1  0.98443000  0.07083000  0.47177000  1.0 -0.1425918902
C  C127  1  0.66863000  0.05543000  0.66177000  1.0 -0.1005970328
C  C128  1  0.63583000  0.58824000  0.19456000  1.0 -0.1005970328
C  C129  1  0.51603000  0.12623000  0.84576000  1.0 -0.1425918902
C  C130  1  0.73803000  0.40424000  0.12377000  1.0 -0.1425918902
C  C131  1  0.81898000  0.88579000  0.88021000  1.0 0.0397226611
C  C132  1  0.83498000  0.36979000  0.36422000  1.0 0.0397226611
C  C133  1  0.72199000  0.81359000  0.15041000  1.0 0.0532461764
C  C134  1  0.93599000  0.09960000  0.43641000  1.0 0.0532461764
C  C135  1  0.54990000  0.97310000  0.01129000  1.0 -0.1494240235
C  C136  1  0.78430000  0.23871000  0.27690000  1.0 -0.1494240235
C  C137  1  0.54530000  0.80351000  0.86269000  1.0 -0.1601752779
C  C138  1  0.46150000  0.38731000  0.44650000  1.0 -0.1601752779
C  C139  1  0.55584000  0.17405000  0.18316000  1.0 -0.169207263
C  C140  1  0.16304000  0.06685000  0.07595000  1.0 -0.169207263
C  C141  1  0.64070000  0.11731000  0.55610000  1.0 0.5776443716
C  C142  1  0.56410000  0.69390000  0.13270000  1.0 0.5776443716
C  C143  1  0.50272000  0.15332000  0.06148000  1.0 -0.169207263
C  C144  1  0.96752000  0.18852000  0.09667000  1.0 -0.169207263
C  C145  1  0.52130000  0.76150000  0.92909000  1.0 0.1025785688
C  C146  1  0.46190000  0.32090000  0.48850000  1.0 0.1025785688
C  C147  1  0.62267000  0.11288000  0.62752000  1.0 -0.0075764854
C  C148  1  0.61307000  0.62248000  0.13712000  1.0 -0.0075764854
C  C149  1  0.51770000  0.82390000  0.92810000  1.0 0.0532461764
C  C150  1  0.51970000  0.32190000  0.42610000  1.0 0.0532461764
C  C151  1  0.82801000  0.89821000  0.81298000  1.0 0.0584504513
C  C152  1  0.78921000  0.43701000  0.35179000  1.0 0.0584504513
C  C153  1  0.48133000  0.03074000  0.11047000  1.0 -0.1425918902
C  C154  1  0.87253000  0.13953000  0.21926000  1.0 -0.1425918902
C  C155  1  0.57356000  0.12937000  0.31344000  1.0 -0.130668312
C  C156  1  0.26636000  0.93656000  0.12064000  1.0 -0.130668312
C  C157  1  0.70462000  0.77623000  0.23958000  1.0 -0.1494240235
C  C158  1  0.97042000  0.01042000  0.47378000  1.0 -0.1494240235
C  C159  1  0.49181000  0.89741000  0.09459000  1.0 -0.0075764854
C  C160  1  0.73381000  0.15542000  0.35258000  1.0 -0.0075764854
C  C161  1  0.71959000  0.87200000  0.07760000  1.0 -0.1973306699
C  C162  1  0.91919000  0.17239000  0.37800000  1.0 -0.1973306699
C  C163  1  0.50771000  0.16831000  0.10469000  1.0 -0.1194419912
C  C164  1  0.03071000  0.14531000  0.08168000  1.0 -0.1194419912
C  C165  1  0.79638000  0.79539000  0.15682000  1.0 -0.1601752779
C  C166  1  0.99858000  0.09319000  0.45462000  1.0 -0.1601752779
C  C167  1  0.58143000  0.17783000  0.33697000  1.0 0.5027667867
C  C168  1  0.34623000  0.91304000  0.07217000  1.0 0.5027667867
C  C169  1  0.49090000  0.06031000  0.09649000  1.0 -0.1813552529
C  C170  1  0.89770000  0.15351000  0.18970000  1.0 -0.1813552529
C  C171  1  0.77681000  0.96161000  0.30099000  1.0 -0.1494240235
C  C172  1  0.28941000  0.94902000  0.28839000  1.0 -0.1494240235
C  C173  1  0.56525000  0.11585000  0.27054000  1.0 -0.130668312
C  C174  1  0.20165000  0.97945000  0.13414000  1.0 -0.130668312
C  C175  1  0.56489000  0.18569000  0.22590000  1.0 -0.0805887626
C  C176  1  0.22649000  0.02410000  0.06431000  1.0 -0.0805887626
C  C177  1  0.55712000  0.00233000  0.99767000  1.0 -0.1813552529
C  C178  1  0.80712000  0.25233000  0.24768000  1.0 -0.1813552529
C  C179  1  0.67415000  0.80156000  0.13425000  1.0 -0.169207263
C  C180  1  0.85995000  0.11575000  0.44845000  1.0 -0.169207263
C  C181  1  0.17432000  0.18512000  0.56908000  1.0 -0.130668312
C  C182  1  0.17851000  0.68092000  0.06488000  1.0 -0.130668312
C  C183  1  0.72173000  0.50873000  0.80647000  1.0 -0.1100342349
C  C184  1  0.28692000  0.44353000  0.74127000  1.0 -0.1100342349
C  C185  1  0.12840000  0.25040000  0.56560000  1.0 -0.1813552529
C  C186  1  0.19439000  0.68440000  0.99960000  1.0 -0.1813552529
C  C187  1  0.18421000  0.15562000  0.75638000  1.0 -0.169207263
C  C188  1  0.34621000  0.49362000  0.09438000  1.0 -0.169207263
C  C189  1  0.34853000  0.89474000  0.78866000  1.0 -0.0805887626
C  C190  1  0.28193000  0.46134000  0.35526000  1.0 -0.0805887626
C  C191  1  0.32720000  0.90480000  0.90380000  1.0 -0.0805887626
C  C192  1  0.38580000  0.34620000  0.34520000  1.0 -0.0805887626
C  C193  1  0.01759000  0.31639000  0.80381000  1.0 0.1718938226
C  C194  1  0.38779000  0.44619000  0.93361000  1.0 0.1718938226
C  C195  1  0.60738000  0.60418000  0.86262000  1.0 0.5776443716
C  C196  1  0.32417000  0.38738000  0.64582000  1.0 0.5776443716
C  C197  1  0.70446000  0.55466000  0.87874000  1.0 -0.1100342349
C  C198  1  0.38786000  0.37126000  0.69534000  1.0 -0.1100342349
C  C199  1  0.13236000  0.20036000  0.79724000  1.0 0.1513427035
C  C200  1  0.37995000  0.45276000  0.04964000  1.0 0.1513427035
C  C201  1  0.10694000  0.28454000  0.76946000  1.0 0.13610328
C  C202  1  0.41093000  0.48054000  0.96546000  1.0 0.13610328
C  C203  1  0.41436000  0.79637000  0.86063000  1.0 0.5713843243
C  C204  1  0.32137000  0.38937000  0.45363000  1.0 0.5713843243
C  C205  1  0.97074000  0.37394000  0.82546000  1.0 -0.169207263
C  C206  1  0.42013000  0.42454000  0.87606000  1.0 -0.169207263
C  C207  1  0.15019000  0.45079000  0.47741000  1.0 -0.0749099119
C  C208  1  0.32838000  0.77259000  0.79921000  1.0 -0.0805887626
C  C209  1  0.82430000  0.84910000  0.55370000  1.0 0.0584504513
C  C210  1  0.47709000  0.69630000  0.40090000  1.0 0.0584504513
C  C211  1  0.22403000  0.35183000  0.64837000  1.0 -0.0075764854
C  C212  1  0.47423000  0.60163000  0.89817000  1.0 -0.0075764854
C  C213  1  0.15686000  0.40346000  0.64674000  1.0 -0.0912148817
C  C214  1  0.45706000  0.60326000  0.84654000  1.0 -0.0912148817
C  C215  1  0.65027000  0.62407000  0.55813000  1.0 -0.1005970328
C  C216  1  0.08246000  0.69187000  0.62593000  1.0 -0.1005970328
C  C217  1  0.99655000  0.30555000  0.78305000  1.0 -0.18989431
C  C218  1  0.33515000  0.46695000  0.94445000  1.0 -0.18989431
C  C219  1  0.78956000  0.45916000  0.79464000  1.0 -0.1494240235
C  C220  1  0.29335000  0.45536000  0.79084000  1.0 -0.1494240235
C  C221  1  0.76747000  0.51047000  0.87293000  1.0 -0.1425918902
C  C222  1  0.40087000  0.37707000  0.73953000  1.0 -0.1425918902
C  C223  1  0.07705000  0.46325000  0.50515000  1.0 0.0712914219
C  C224  1  0.29544000  0.74485000  0.78675000  1.0 0.0712914219
C  C225  1  0.28096000  0.97096000  0.89364000  1.0 -0.1425918902
C  C226  1  0.39556000  0.35636000  0.27904000  1.0 -0.1425918902
C  C227  1  0.67914000  0.55475000  0.85105000  1.0 -0.0032381942
C  C228  1  0.33495000  0.39895000  0.69525000  1.0 -0.0032381942
C  C229  1  0.22160000  0.06781000  0.81859000  1.0 0.0584504513
C  C230  1  0.35801000  0.43141000  0.18219000  1.0 0.0584504513
C  C231  1  0.71670000  0.57951000  0.54389000  1.0 -0.169207263
C  C232  1  0.09011000  0.70611000  0.67049000  1.0 -0.169207263
C  C233  1  0.75138000  0.55538000  0.59342000  1.0 0.0712914219
C  C234  1  0.15017000  0.65658000  0.69462000  1.0 0.0712914219
C  C235  1  0.26606000  0.29126000  0.67594000  1.0 -0.1005970328
C  C236  1  0.48325000  0.57406000  0.95874000  1.0 -0.1005970328
C  C237  1  0.14327000  0.41967000  0.48473000  1.0 -0.1601752779
C  C238  1  0.29767000  0.76527000  0.83033000  1.0 -0.1601752779
C  C239  1  0.82488000  0.50448000  0.57612000  1.0 0.0712914219
C  C240  1  0.15548000  0.67388000  0.74552000  1.0 0.0712914219
C  C241  1  0.07120000  0.30077000  0.53259000  1.0 0.1718938226
C  C242  1  0.15457000  0.71741000  0.94923000  1.0 0.1718938226
C  C243  1  0.72742000  0.56922000  0.65438000  1.0 -0.130668312
C  C244  1  0.20101000  0.59562000  0.68078000  1.0 -0.130668312
C  C245  1  0.46911000  0.17411000  0.62569000  1.0 0.0772393746
C  C246  1  0.51890000  0.62431000  0.07589000  1.0 0.0772393746
C  C247  1  0.90467000  0.42247000  0.83353000  1.0 -0.130668312
C  C248  1  0.41066000  0.41647000  0.82753000  1.0 -0.130668312
C  C249  1  0.75306000  0.90667000  0.57453000  1.0 0.1591220615
C  C250  1  0.48426000  0.67547000  0.34333000  1.0 0.1591220615
C  C251  1  0.10376000  0.54716000  0.49024000  1.0 0.5713843243
C  C252  1  0.39116000  0.75976000  0.70284000  1.0 0.5713843243
C  C253  1  0.17618000  0.32658000  0.70322000  1.0 0.0772393746
C  C254  1  0.45598000  0.54678000  0.92342000  1.0 0.0772393746
C  C255  1  0.49973000  0.18293000  0.52227000  1.0 0.1025785688
C  C256  1  0.45493000  0.72773000  0.06707000  1.0 0.1025785688
C  C257  1  0.28865000  0.97185000  0.57335000  1.0 -0.0453940271
C  C258  1  0.08385000  0.67665000  0.27815000  1.0 -0.0453940271
C  C259  1  0.03365000  0.55545000  0.50215000  1.0 -0.1005970328
C  C260  1  0.34125000  0.74785000  0.69455000  1.0 -0.1005970328
C  C261  1  0.25437000  0.36198000  0.61782000  1.0 0.5776443716
C  C262  1  0.48417000  0.63218000  0.88802000  1.0 0.5776443716
C  C263  1  0.20968000  0.09708000  0.55432000  1.0 0.0712914219
C  C264  1  0.11107000  0.69568000  0.15292000  1.0 0.0712914219
C  C265  1  0.36542000  0.86463000  0.84857000  1.0 -0.0619008406
C  C266  1  0.32863000  0.40143000  0.38537000  1.0 -0.0619008406
C  C267  1  0.95603000  0.41404000  0.54596000  1.0 0.1305497772
C  C268  1  0.16603000  0.70404000  0.83596000  1.0 0.1188481328
C  C269  1  0.87496000  0.44856000  0.61524000  1.0 -0.1100342349
C  C270  1  0.18875000  0.63476000  0.80144000  1.0 -0.1100342349
C  C271  1  0.58252000  0.07572000  0.57768000  1.0 0.0772393746
C  C272  1  0.48591000  0.67232000  0.17428000  1.0 0.0772393746
C  C273  1  0.06612000  0.43392000  0.51028000  1.0 0.0584504513
C  C274  1  0.26032000  0.73972000  0.81608000  1.0 0.0584504513
C  C275  1  0.56022000  0.11902000  0.52438000  1.0 -0.2185228555
C  C276  1  0.45361000  0.72562000  0.13098000  1.0 -0.2185228555
C  C277  1  0.26816000  0.99997000  0.82963000  1.0 0.0712914219
C  C278  1  0.34776000  0.42037000  0.25003000  1.0 0.0712914219
C  C279  1  0.03950000  0.38791000  0.52429000  1.0 0.1591220615
C  C280  1  0.20170000  0.72571000  0.86209000  1.0 0.1591220615
C  C281  1  0.53595000  0.10376000  0.62904000  1.0 -0.169207263
C  C282  1  0.51875000  0.62096000  0.14624000  1.0 -0.169207263
C  C283  1  0.93378000  0.35058000  0.79102000  1.0 -0.1194419912
C  C284  1  0.32538000  0.45898000  0.89942000  1.0 -0.1194419912
C  C285  1  0.64655000  0.00876000  0.58764000  1.0 0.1188481328
C  C286  1  0.49295000  0.66236000  0.24124000  1.0 0.1188481328
C  C287  1  0.16236000  0.16896000  0.54444000  1.0 0.0584504513
C  C288  1  0.12576000  0.70556000  0.08104000  1.0 0.0584504513
C  C289  1  0.91034000  0.46575000  0.50805000  1.0 -0.1601752779
C  C290  1  0.13414000  0.74195000  0.78425000  1.0 -0.1601752779
C  C291  1  0.93493000  0.40694000  0.60306000  1.0 -0.18989431
C  C292  1  0.19494000  0.64694000  0.84306000  1.0 -0.18989431
C  C293  1  0.10059000  0.34619000  0.69781000  1.0 -0.130668312
C  C294  1  0.39458000  0.55219000  0.90381000  1.0 -0.130668312
C  C295  1  0.23188000  0.08829000  0.76751000  1.0 -0.1425918902
C  C296  1  0.33769000  0.48249000  0.16171000  1.0 -0.1425918902
C  C297  1  0.02638000  0.52599000  0.51181000  1.0 -0.1425918902
C  C298  1  0.31418000  0.73819000  0.72401000  1.0 -0.1425918902
C  C299  1  0.12104000  0.18025000  0.85835000  1.0 -0.1494240235
C  C300  1  0.40964000  0.39165000  0.06975000  1.0 -0.1494240235
C  C301  1  0.16342000  0.11863000  0.86297000  1.0 -0.1194419912
C  C302  1  0.39502000  0.38703000  0.13137000  1.0 -0.1194419912
C  C303  1  0.85680000  0.85260000  0.53620000  1.0 -0.1973306699
C  C304  1  0.49560000  0.71380000  0.39740000  1.0 -0.1973306699
C  C305  1  0.17916000  0.26557000  0.77703000  1.0 -0.130668312
C  C306  1  0.47176000  0.47297000  0.98443000  1.0 -0.130668312
C  C307  1  0.66177000  0.61417000  0.66863000  1.0 -0.1005970328
C  C308  1  0.19456000  0.58137000  0.63583000  1.0 -0.1005970328
C  C309  1  0.84577000  0.51197000  0.51603000  1.0 -0.1425918902
C  C310  1  0.12377000  0.73397000  0.73803000  1.0 -0.1425918902
C  C311  1  0.88021000  0.41502000  0.81898000  1.0 0.0397226611
C  C312  1  0.36422000  0.43102000  0.83498000  1.0 0.0397226611
C  C313  1  0.15041000  0.31401000  0.72199000  1.0 0.0532461764
C  C314  1  0.43640000  0.52801000  0.93599000  1.0 0.0532461764
C  C315  1  0.01129000  0.46570000  0.54990000  1.0 -0.1494240235
C  C316  1  0.27690000  0.70010000  0.78430000  1.0 -0.1494240235
C  C317  1  0.86270000  0.78850000  0.54530000  1.0 -0.1601752779
C  C318  1  0.44650000  0.70470000  0.46150000  1.0 -0.1601752779
C  C319  1  0.18316000  0.08696000  0.55584000  1.0 -0.169207263
C  C320  1  0.07596000  0.69416000  0.16304000  1.0 -0.169207263
C  C321  1  0.55609000  0.68590000  0.64070000  1.0 0.5776443716
C  C322  1  0.13270000  0.60930000  0.56410000  1.0 0.5776443716
C  C323  1  0.06148000  0.28248000  0.50272000  1.0 -0.169207263
C  C324  1  0.09668000  0.74728000  0.96752000  1.0 -0.169207263
C  C325  1  0.92910000  0.78810000  0.52130000  1.0 0.1025785688
C  C326  1  0.48849000  0.72870000  0.46190000  1.0 0.1025785688
C  C327  1  0.62752000  0.63693000  0.62267000  1.0 -0.0075764854
C  C328  1  0.13712000  0.62733000  0.61307000  1.0 -0.0075764854
C  C329  1  0.92809000  0.73030000  0.51770000  1.0 0.0532461764
C  C330  1  0.42609000  0.73230000  0.51970000  1.0 0.0532461764
C  C331  1  0.81298000  0.46079000  0.82801000  1.0 0.0584504513
C  C332  1  0.35179000  0.42199000  0.78921000  1.0 0.0584504513
C  C333  1  0.11046000  0.37747000  0.48133000  1.0 -0.1425918902
C  C334  1  0.21926000  0.76867000  0.87253000  1.0 -0.1425918902
C  C335  1  0.31344000  0.98364000  0.57356000  1.0 -0.130668312
C  C336  1  0.12064000  0.67644000  0.26636000  1.0 -0.130668312
C  C337  1  0.23958000  0.27958000  0.70462000  1.0 -0.1494240235
C  C338  1  0.47378000  0.54538000  0.97042000  1.0 -0.1494240235
C  C339  1  0.09459000  0.51619000  0.49181000  1.0 -0.0075764854
C  C340  1  0.35258000  0.75819000  0.73381000  1.0 -0.0075764854
C  C341  1  0.07761000  0.33081000  0.71959000  1.0 -0.1973306699
C  C342  1  0.37801000  0.53041000  0.91919000  1.0 -0.1973306699
C  C343  1  0.10468000  0.21929000  0.50771000  1.0 -0.1194419912
C  C344  1  0.08168000  0.74229000  0.03071000  1.0 -0.1194419912
C  C345  1  0.15682000  0.25142000  0.79638000  1.0 -0.1601752779
C  C346  1  0.45461000  0.45362000  0.99858000  1.0 -0.1601752779
C  C347  1  0.33696000  0.90377000  0.58143000  1.0 0.5027667867
C  C348  1  0.07217000  0.66857000  0.34623000  1.0 0.5027667867
C  C349  1  0.09650000  0.35230000  0.49090000  1.0 -0.18989431
C  C350  1  0.18970000  0.75910000  0.89770000  1.0 -0.1813552529
C  C351  1  0.30099000  0.96059000  0.77681000  1.0 -0.1494240235
C  C352  1  0.28839000  0.47319000  0.28941000  1.0 -0.1494240235
C  C353  1  0.27054000  0.04835000  0.56525000  1.0 -0.130668312
C  C354  1  0.13414000  0.68475000  0.20165000  1.0 -0.130668312
C  C355  1  0.22590000  0.02351000  0.56489000  1.0 -0.0805887626
C  C356  1  0.06430000  0.68511000  0.22649000  1.0 -0.0805887626
C  C357  1  0.99767000  0.44288000  0.55712000  1.0 -0.1813552529
C  C358  1  0.24767000  0.69288000  0.80712000  1.0 -0.1813552529
C  C359  1  0.13425000  0.39005000  0.67415000  1.0 -0.169207263
C  C360  1  0.44844000  0.57585000  0.85995000  1.0 -0.169207263
N  N1  1  0.54522000  0.78063000  0.70398000  1.0 0.0915152342
N  N2  1  0.27982000  0.54602000  0.46937000  1.0 0.0915152342
N  N3  1  0.57024000  0.76465000  0.45436000  1.0 -0.2435147925
N  N4  1  0.03924000  0.79565000  0.48535000  1.0 -0.2435147925
N  N5  1  0.63786000  0.72827000  0.66714000  1.0 -0.1973306699
N  N6  1  0.28326000  0.58286000  0.52173000  1.0 -0.1973306699
N  N7  1  0.48707000  0.81308000  0.70813000  1.0 -0.4299678071
N  N8  1  0.25827000  0.54187000  0.43693000  1.0 -0.4299678071
N  N9  1  0.49950000  0.80410000  0.96130000  1.0 -0.2673793225
N  N10  1  0.51490000  0.28870000  0.44589000  1.0 -0.2673793225
N  N11  1  0.63228000  0.73169000  0.73091000  1.0 -0.2272073938
N  N12  1  0.34488000  0.51909000  0.51831000  1.0 -0.2272073938
N  N13  1  0.79697000  0.85118000  0.08263000  1.0 -0.1601752779
N  N14  1  0.98077000  0.16737000  0.39883000  1.0 -0.1601752779
N  N15  1  0.53121000  0.07841000  0.02298000  1.0 -0.1425918902
N  N16  1  0.88261000  0.22701000  0.17158000  1.0 -0.1494240235
N  N17  1  0.70398000  0.97018000  0.54522000  1.0 0.0915152342
N  N18  1  0.46938000  0.70478000  0.27982000  1.0 0.0915152342
N  N19  1  0.45436000  0.21076000  0.57024000  1.0 -0.2435147925
N  N20  1  0.48536000  0.67976000  0.03924000  1.0 -0.2435147925
N  N21  1  0.66714000  0.96674000  0.63786000  1.0 -0.1973306699
N  N22  1  0.52173000  0.61214000  0.28326000  1.0 -0.1973306699
N  N23  1  0.70813000  0.99173000  0.48707000  1.0 -0.4299678071
N  N24  1  0.43693000  0.76293000  0.25827000  1.0 -0.4299678071
N  N25  1  0.96130000  0.73510000  0.49950000  1.0 -0.2673793225
N  N26  1  0.44589000  0.75050000  0.51490000  1.0 -0.2673793225
N  N27  1  0.73091000  0.90512000  0.63228000  1.0 -0.2272073938
N  N28  1  0.51831000  0.61772000  0.34488000  1.0 -0.2272073938
N  N29  1  0.08262000  0.26923000  0.79697000  1.0 -0.1601752779
N  N30  1  0.39882000  0.45303000  0.98077000  1.0 -0.1601752779
N  N31  1  0.02298000  0.36739000  0.53121000  1.0 -0.1425918902
N  N32  1  0.17158000  0.71879000  0.88261000  1.0 -0.1425918902
O  O1  1  0.59185000  0.15965000  0.39394000  1.0 -0.4549108012
O  O2  1  0.39545000  0.85606000  0.09034000  1.0 -0.4552201791
O  O3  1  0.91376000  0.87636000  0.57624000  1.0 -0.4998938902
O  O4  1  0.61636000  0.67376000  0.37363000  1.0 -0.4998938902
O  O5  1  0.81705000  0.98666000  0.58735000  1.0 -0.5863845958
O  O6  1  0.64105000  0.66265000  0.26334000  1.0 -0.5863845958
O  O7  1  0.48321000  0.84642000  0.16279000  1.0 -0.5511560781
O  O8  1  0.74241000  0.08721000  0.40359000  1.0 -0.5555214746
O  O9  1  0.81553000  0.96874000  0.45787000  1.0 -0.5511560781
O  O10  1  0.49213000  0.79214000  0.28126000  1.0 -0.5511560781
O  O11  1  0.48908000  0.85169000  0.05132000  1.0 -0.4784961803
O  O12  1  0.64208000  0.19869000  0.39831000  1.0 -0.4784961803
O  O13  1  0.91949000  0.89110000  0.41351000  1.0 -0.5401687784
O  O14  1  0.47409000  0.83649000  0.35890000  1.0 -0.5401687784
O  O15  1  0.69762000  0.06782000  0.52938000  1.0 -0.5555214746
O  O16  1  0.54482000  0.72062000  0.18218000  1.0 -0.5555214746
O  O17  1  0.59390000  0.17411000  0.52450000  1.0 -0.5401687784
O  O18  1  0.54250000  0.72550000  0.07590000  1.0 -0.5401687784
O  O19  1  0.59130000  0.77631000  0.21490000  1.0 -0.5511560781
O  O20  1  0.83250000  0.03511000  0.47369000  1.0 -0.5511560781
O  O21  1  0.57495000  0.21996000  0.31084000  1.0 -0.6121271117
O  O22  1  0.35575000  0.93916000  0.03005000  1.0 -0.6121271117
O  O23  1  0.61909000  0.75350000  0.31211000  1.0 -0.4691972523
O  O24  1  0.93469000  0.93790000  0.49650000  1.0 -0.4691972523
O  O25  1  0.39394000  0.85455000  0.59185000  1.0 -0.4552201791
O  O26  1  0.09034000  0.65815000  0.39545000  1.0 -0.4549108012
O  O27  1  0.57624000  0.63364000  0.91376000  1.0 -0.4998938902
O  O28  1  0.37364000  0.33624000  0.61636000  1.0 -0.4998938902
O  O29  1  0.58735000  0.60895000  0.81705000  1.0 -0.5863845958
O  O30  1  0.26334000  0.43295000  0.64105000  1.0 -0.5863845958
O  O31  1  0.16279000  0.50759000  0.48321000  1.0 -0.5555214746
O  O32  1  0.40358000  0.76679000  0.74241000  1.0 -0.5511560781
O  O33  1  0.45787000  0.75787000  0.81553000  1.0 -0.5511560781
O  O34  1  0.28127000  0.43447000  0.49213000  1.0 -0.5511560781
O  O35  1  0.05132000  0.60792000  0.48908000  1.0 -0.4784961803
O  O36  1  0.39832000  0.76092000  0.64208000  1.0 -0.4784961803
O  O37  1  0.41350000  0.77591000  0.91949000  1.0 -0.5401687784
O  O38  1  0.35890000  0.33051000  0.47409000  1.0 -0.5401687784
O  O39  1  0.52938000  0.70518000  0.69762000  1.0 -0.5555214746
O  O40  1  0.18218000  0.55238000  0.54482000  1.0 -0.5555214746
O  O41  1  0.52450000  0.70750000  0.59390000  1.0 -0.5401687784
O  O42  1  0.07589000  0.65610000  0.54250000  1.0 -0.5401687784
O  O43  1  0.21490000  0.41750000  0.59130000  1.0 -0.5511560781
O  O44  1  0.47369000  0.65870000  0.83250000  1.0 -0.5511560781
O  O45  1  0.31084000  0.89425000  0.57495000  1.0 -0.6121271117
O  O46  1  0.03005000  0.67505000  0.35575000  1.0 -0.6121271117
O  O47  1  0.31211000  0.31531000  0.61909000  1.0 -0.4691972523
O  O48  1  0.49650000  0.63091000  0.93469000  1.0 -0.4691972523
