# DDEC6 charges by PACMAN v1.1 (https://github.com/mtap-research/PACMAN-charge/)
data_ASIVAB_ASR_pacman
_symmetry_space_group_name_H-M   'P 1'
_cell_length_a   26.11100000
_cell_length_b   26.11100000
_cell_length_c   26.11100000
_cell_angle_alpha   135.23800000
_cell_angle_beta   98.33620000
_cell_angle_gamma   98.33620000
_symmetry_Int_Tables_number   1
_chemical_formula_structural   Cu3H24C42(NO6)2
_chemical_formula_sum   'Cu12 H96 C168 N8 O48'
_cell_volume   11591.28816109
_cell_formula_units_Z   4
loop_
 _symmetry_equiv_pos_site_id
 _symmetry_equiv_pos_as_xyz
  1  'x, y, z'
loop_
 _atom_site_type_symbol
 _atom_site_label
 _atom_site_symmetry_multiplicity
 _atom_site_fract_x
 _atom_site_fract_y
 _atom_site_fract_z
 _atom_site_occupancy
 _atom_site_charge
Cu  Cu1  1  0.53829000  0.03829000  0.50000000  1.0 0.8681099392
Cu  Cu2  1  0.46171000  0.96171000  0.50000000  1.0 0.8681099392
Cu  Cu3  1  0.50116000  0.93196000  0.93996000  1.0 0.8681099392
Cu  Cu4  1  0.49884000  0.43880000  0.43080000  1.0 0.8681099392
Cu  Cu5  1  0.99200000  0.56120000  0.06004000  1.0 0.8681099392
Cu  Cu6  1  0.00800000  0.06804000  0.56920000  1.0 0.8681099392
Cu  Cu7  1  0.49884000  0.06804000  0.06004000  1.0 0.8681099392
Cu  Cu8  1  0.50116000  0.56120000  0.56920000  1.0 0.8681099392
Cu  Cu9  1  0.00800000  0.43880000  0.93996000  1.0 0.8681099392
Cu  Cu10  1  0.99200000  0.93196000  0.43080000  1.0 0.8681099392
Cu  Cu11  1  0.96178000  0.50000000  0.46178000  1.0 0.8816873766
Cu  Cu12  1  0.03822000  0.50000000  0.53822000  1.0 0.8816873766
H  H1  1  0.45550000  0.02990000  0.18540000  1.0 0.130679997
H  H2  1  0.54450000  0.72990000  0.57440000  1.0 0.130679997
H  H3  1  0.84450000  0.27010000  0.81460000  1.0 0.130679997
H  H4  1  0.15550000  0.97010000  0.42560000  1.0 0.130679997
H  H5  1  0.54450000  0.97010000  0.81460000  1.0 0.130679997
H  H6  1  0.45550000  0.27010000  0.42560000  1.0 0.130679997
H  H7  1  0.15550000  0.72990000  0.18540000  1.0 0.130679997
H  H8  1  0.84450000  0.02990000  0.57440000  1.0 0.130679997
H  H9  1  0.66010000  0.19440000  0.23110000  1.0 0.130679997
H  H10  1  0.33990000  0.57100000  0.53430000  1.0 0.1352645441
H  H11  1  0.96330000  0.42900000  0.76890000  1.0 0.130679997
H  H12  1  0.03670000  0.80560000  0.46570000  1.0 0.130679997
H  H13  1  0.33990000  0.80560000  0.76890000  1.0 0.130679997
H  H14  1  0.66010000  0.42900000  0.46570000  1.0 0.130679997
H  H15  1  0.03670000  0.57100000  0.23110000  1.0 0.1352645441
H  H16  1  0.96330000  0.19440000  0.53430000  1.0 0.130679997
H  H17  1  0.42650000  0.98130000  0.22940000  1.0 0.1242017187
H  H18  1  0.57350000  0.80290000  0.55480000  1.0 0.1242017187
H  H19  1  0.75190000  0.19710000  0.77060000  1.0 0.1242017187
H  H20  1  0.24810000  0.01870000  0.44520000  1.0 0.1242017187
H  H21  1  0.57350000  0.01870000  0.77060000  1.0 0.1242017187
H  H22  1  0.42650000  0.19710000  0.44520000  1.0 0.1242017187
H  H23  1  0.24810000  0.80290000  0.22940000  1.0 0.1242017187
H  H24  1  0.75190000  0.98130000  0.55480000  1.0 0.1242017187
H  H25  1  0.74990000  0.22790000  0.30500000  1.0 0.130679997
H  H26  1  0.25010000  0.55510000  0.47800000  1.0 0.130679997
H  H27  1  0.92290000  0.44490000  0.69500000  1.0 0.130679997
H  H28  1  0.07710000  0.77210000  0.52200000  1.0 0.130679997
H  H29  1  0.25010000  0.77210000  0.69500000  1.0 0.130679997
H  H30  1  0.74990000  0.44490000  0.52200000  1.0 0.130679997
H  H31  1  0.07710000  0.55510000  0.30500000  1.0 0.130679997
H  H32  1  0.92290000  0.22790000  0.47800000  1.0 0.130679997
H  H33  1  0.67600000  0.97900000  0.03920000  1.0 0.1352645441
H  H34  1  0.32400000  0.36320000  0.30300000  1.0 0.1352645441
H  H35  1  0.93980000  0.63680000  0.96080000  1.0 0.1352645441
H  H36  1  0.06020000  0.02100000  0.69700000  1.0 0.1352645441
H  H37  1  0.32400000  0.02100000  0.96080000  1.0 0.1352645441
H  H38  1  0.67600000  0.63680000  0.69700000  1.0 0.1352645441
H  H39  1  0.06020000  0.36320000  0.03920000  1.0 0.1352645441
H  H40  1  0.93980000  0.97900000  0.30300000  1.0 0.1352645441
H  H41  1  0.46280000  0.92050000  0.26710000  1.0 0.1352645441
H  H42  1  0.53720000  0.80430000  0.45770000  1.0 0.1352645441
H  H43  1  0.65340000  0.19570000  0.73290000  1.0 0.130679997
H  H44  1  0.34660000  0.07950000  0.54230000  1.0 0.1352645441
H  H45  1  0.53720000  0.07950000  0.73290000  1.0 0.1352645441
H  H46  1  0.46280000  0.19570000  0.54230000  1.0 0.1352645441
H  H47  1  0.34660000  0.80430000  0.26710000  1.0 0.1352645441
H  H48  1  0.65340000  0.92050000  0.45770000  1.0 0.1352645441
H  H49  1  0.44160000  0.80680000  0.98680000  1.0 0.130679997
H  H50  1  0.55840000  0.54520000  0.36520000  1.0 0.130679997
H  H51  1  0.82000000  0.45480000  0.01320000  1.0 0.130679997
H  H52  1  0.18000000  0.19320000  0.63480000  1.0 0.130679997
H  H53  1  0.55840000  0.19320000  0.01320000  1.0 0.130679997
H  H54  1  0.44160000  0.45480000  0.63480000  1.0 0.130679997
H  H55  1  0.18000000  0.54520000  0.98680000  1.0 0.130679997
H  H56  1  0.82000000  0.80680000  0.36520000  1.0 0.130679997
H  H57  1  0.40650000  0.77360000  0.04090000  1.0 0.1089229667
H  H58  1  0.59350000  0.63440000  0.36710000  1.0 0.1089229667
H  H59  1  0.73270000  0.36560000  0.95910000  1.0 0.1089229667
H  H60  1  0.26730000  0.22640000  0.63290000  1.0 0.1089229667
H  H61  1  0.59350000  0.22640000  0.95910000  1.0 0.1089229667
H  H62  1  0.40650000  0.36560000  0.63290000  1.0 0.1089229667
H  H63  1  0.26730000  0.63440000  0.04090000  1.0 0.1089229667
H  H64  1  0.73270000  0.77360000  0.36710000  1.0 0.1089229667
H  H65  1  0.76680000  0.03480000  0.12900000  1.0 0.1089229667
H  H66  1  0.23320000  0.36220000  0.26800000  1.0 0.1089229667
H  H67  1  0.90580000  0.63780000  0.87100000  1.0 0.1089229667
H  H68  1  0.09420000  0.96520000  0.73200000  1.0 0.1089229667
H  H69  1  0.23320000  0.96520000  0.87100000  1.0 0.1089229667
H  H70  1  0.76680000  0.63780000  0.73200000  1.0 0.1089229667
H  H71  1  0.09420000  0.36220000  0.12900000  1.0 0.1089229667
H  H72  1  0.90580000  0.03480000  0.26800000  1.0 0.1089229667
H  H73  1  0.32900000  0.75600000  0.04100000  1.0 0.2796896994
H  H74  1  0.67100000  0.71200000  0.42700000  1.0 0.2796896994
H  H75  1  0.71500000  0.28800000  0.95900000  1.0 0.2796896994
H  H76  1  0.28500000  0.24400000  0.57300000  1.0 0.2796896994
H  H77  1  0.67100000  0.24400000  0.95900000  1.0 0.2796896994
H  H78  1  0.32900000  0.28800000  0.57300000  1.0 0.2796896994
H  H79  1  0.28500000  0.71200000  0.04100000  1.0 0.2796896994
H  H80  1  0.71500000  0.75600000  0.42700000  1.0 0.2796896994
H  H81  1  0.77900000  0.03200000  0.19900000  1.0 0.291348502
H  H82  1  0.22100000  0.42000000  0.25300000  1.0 0.291348502
H  H83  1  0.83300000  0.58000000  0.80100000  1.0 0.291348502
H  H84  1  0.16700000  0.96800000  0.74700000  1.0 0.291348502
H  H85  1  0.22100000  0.96800000  0.80100000  1.0 0.291348502
H  H86  1  0.77900000  0.58000000  0.74700000  1.0 0.291348502
H  H87  1  0.16700000  0.42000000  0.19900000  1.0 0.291348502
H  H88  1  0.83300000  0.03200000  0.25300000  1.0 0.291348502
H  H89  1  0.85230000  0.26310000  0.29520000  1.0 0.130679997
H  H90  1  0.14770000  0.44290000  0.41080000  1.0 0.130679997
H  H91  1  0.96790000  0.55710000  0.70480000  1.0 0.130679997
H  H92  1  0.03210000  0.73690000  0.58920000  1.0 0.130679997
H  H93  1  0.14770000  0.73690000  0.70480000  1.0 0.130679997
H  H94  1  0.85230000  0.55710000  0.58920000  1.0 0.130679997
H  H95  1  0.03210000  0.44290000  0.29520000  1.0 0.130679997
H  H96  1  0.96790000  0.26310000  0.41080000  1.0 0.130679997
C  C1  1  0.44700000  0.97770000  0.15550000  1.0 -0.0820902517
C  C2  1  0.55300000  0.70850000  0.53070000  1.0 -0.0820902517
C  C3  1  0.82220000  0.29150000  0.84450000  1.0 -0.0820902517
C  C4  1  0.17780000  0.02230000  0.46930000  1.0 -0.0869861417
C  C5  1  0.55300000  0.02230000  0.84450000  1.0 -0.0820902517
C  C6  1  0.44700000  0.29150000  0.46930000  1.0 -0.0869861417
C  C7  1  0.17780000  0.70850000  0.15550000  1.0 -0.0820902517
C  C8  1  0.82220000  0.97770000  0.53070000  1.0 -0.0820902517
C  C9  1  0.68020000  0.16140000  0.21040000  1.0 -0.0820902517
C  C10  1  0.31980000  0.53020000  0.48120000  1.0 -0.0820902517
C  C11  1  0.95100000  0.46980000  0.78960000  1.0 -0.0820902517
C  C12  1  0.04900000  0.83860000  0.51880000  1.0 -0.0820902517
C  C13  1  0.31980000  0.83860000  0.78960000  1.0 -0.0820902517
C  C14  1  0.68020000  0.46980000  0.51880000  1.0 -0.0820902517
C  C15  1  0.04900000  0.53020000  0.21040000  1.0 -0.0820902517
C  C16  1  0.95100000  0.16140000  0.48120000  1.0 -0.0820902517
C  C17  1  0.41535000  0.87198000  0.13877000  1.0 0.0598480277
C  C18  1  0.58465000  0.72342000  0.45663000  1.0 0.0598480277
C  C19  1  0.73321000  0.27658000  0.86123000  1.0 0.0598480277
C  C20  1  0.26679000  0.12802000  0.54337000  1.0 0.0598480277
C  C21  1  0.58465000  0.12802000  0.86123000  1.0 0.0598480277
C  C22  1  0.41535000  0.27658000  0.54337000  1.0 0.0598480277
C  C23  1  0.26679000  0.72342000  0.13877000  1.0 0.0598480277
C  C24  1  0.73321000  0.87198000  0.45663000  1.0 0.0598480277
C  C25  1  0.42900000  0.94670000  0.18010000  1.0 -0.179203663
C  C26  1  0.57100000  0.75110000  0.51770000  1.0 -0.179203663
C  C27  1  0.76660000  0.24890000  0.81990000  1.0 -0.179203663
C  C28  1  0.23340000  0.05330000  0.48230000  1.0 -0.179203663
C  C29  1  0.57100000  0.05330000  0.81990000  1.0 -0.179203663
C  C30  1  0.42900000  0.24890000  0.48230000  1.0 -0.179203663
C  C31  1  0.23340000  0.75110000  0.18010000  1.0 -0.179203663
C  C32  1  0.76660000  0.94670000  0.51770000  1.0 -0.179203663
C  C33  1  0.73530000  0.18050000  0.25220000  1.0 -0.169373544
C  C34  1  0.26470000  0.51690000  0.44520000  1.0 -0.169373544
C  C35  1  0.92830000  0.48310000  0.74780000  1.0 -0.169373544
C  C36  1  0.07170000  0.81950000  0.55480000  1.0 -0.169373544
C  C37  1  0.26470000  0.81950000  0.74780000  1.0 -0.169373544
C  C38  1  0.73530000  0.48310000  0.55480000  1.0 -0.169373544
C  C39  1  0.07170000  0.51690000  0.25220000  1.0 -0.169373544
C  C40  1  0.92830000  0.18050000  0.44520000  1.0 -0.169373544
C  C41  1  0.76864000  0.13784000  0.22380000  1.0 0.0500166905
C  C42  1  0.23136000  0.45516000  0.36920000  1.0 0.0500166905
C  C43  1  0.91404000  0.54484000  0.77620000  1.0 0.0500166905
C  C44  1  0.08596000  0.86216000  0.63080000  1.0 0.0500166905
C  C45  1  0.23136000  0.86216000  0.77620000  1.0 0.0500166905
C  C46  1  0.76864000  0.54484000  0.63080000  1.0 0.0500166905
C  C47  1  0.08596000  0.45516000  0.22380000  1.0 0.0500166905
C  C48  1  0.91404000  0.13784000  0.36920000  1.0 0.0500166905
C  C49  1  0.68880000  0.02830000  0.09090000  1.0 -0.1279644221
C  C50  1  0.31120000  0.40210000  0.33950000  1.0 -0.1279644221
C  C51  1  0.93740000  0.59790000  0.90910000  1.0 -0.1279644221
C  C52  1  0.06260000  0.97170000  0.66050000  1.0 -0.1279644221
C  C53  1  0.31120000  0.97170000  0.90910000  1.0 -0.1279644221
C  C54  1  0.68880000  0.59790000  0.66050000  1.0 -0.1279644221
C  C55  1  0.06260000  0.40210000  0.09090000  1.0 -0.1279644221
C  C56  1  0.93740000  0.02830000  0.33950000  1.0 -0.1279644221
C  C57  1  0.65850000  0.07490000  0.12320000  1.0 -0.0202106428
C  C58  1  0.34150000  0.46470000  0.41640000  1.0 -0.0202106428
C  C59  1  0.95170000  0.53530000  0.87680000  1.0 -0.0202106428
C  C60  1  0.04830000  0.92510000  0.58360000  1.0 -0.0202106428
C  C61  1  0.34150000  0.92510000  0.87680000  1.0 -0.0202106428
C  C62  1  0.65850000  0.53530000  0.58360000  1.0 -0.0202106428
C  C63  1  0.04830000  0.46470000  0.12320000  1.0 -0.0202106428
C  C64  1  0.95170000  0.07490000  0.41640000  1.0 -0.0202106428
C  C65  1  0.42791000  0.88365000  0.24226000  1.0 -0.158780803
C  C66  1  0.57209000  0.81435000  0.45574000  1.0 -0.158780803
C  C67  1  0.64139000  0.18565000  0.75774000  1.0 -0.158780803
C  C68  1  0.35861000  0.11635000  0.54426000  1.0 -0.158780803
C  C69  1  0.57209000  0.11635000  0.75774000  1.0 -0.158780803
C  C70  1  0.42791000  0.18565000  0.54426000  1.0 -0.158780803
C  C71  1  0.35861000  0.81435000  0.24226000  1.0 -0.158780803
C  C72  1  0.64139000  0.88365000  0.45574000  1.0 -0.158780803
C  C73  1  0.82418000  0.16660000  0.27138000  1.0 -0.0395010314
C  C74  1  0.17582000  0.44720000  0.34242000  1.0 -0.0395010314
C  C75  1  0.89522000  0.55280000  0.72862000  1.0 -0.0395010314
C  C76  1  0.10478000  0.83340000  0.65758000  1.0 -0.0395010314
C  C77  1  0.17582000  0.83340000  0.72862000  1.0 -0.0395010314
C  C78  1  0.82418000  0.55280000  0.65758000  1.0 -0.0395010314
C  C79  1  0.10478000  0.44720000  0.27138000  1.0 -0.0395010314
C  C80  1  0.89522000  0.16660000  0.34242000  1.0 -0.0395010314
C  C81  1  0.85879000  0.24467000  0.31432000  1.0 -0.1480810158
C  C82  1  0.14121000  0.45553000  0.38588000  1.0 -0.1480810158
C  C83  1  0.93035000  0.54447000  0.68568000  1.0 -0.1480810158
C  C84  1  0.06965000  0.75533000  0.61412000  1.0 -0.1480810158
C  C85  1  0.14121000  0.75533000  0.68568000  1.0 -0.1480810158
C  C86  1  0.85879000  0.54447000  0.61412000  1.0 -0.1480810158
C  C87  1  0.06965000  0.45553000  0.31432000  1.0 -0.1480810158
C  C88  1  0.93035000  0.24467000  0.38588000  1.0 -0.1480810158
C  C89  1  0.39531000  0.84561000  0.16910000  1.0 -0.0202106428
C  C90  1  0.60469000  0.77379000  0.45030000  1.0 -0.0202106428
C  C91  1  0.67651000  0.22621000  0.83090000  1.0 -0.0202106428
C  C92  1  0.32349000  0.15439000  0.54970000  1.0 -0.0202106428
C  C93  1  0.60469000  0.15439000  0.83090000  1.0 -0.0202106428
C  C94  1  0.39531000  0.22621000  0.54970000  1.0 -0.0202106428
C  C95  1  0.32349000  0.77379000  0.16910000  1.0 -0.0202106428
C  C96  1  0.67651000  0.84561000  0.45030000  1.0 -0.0202106428
C  C97  1  0.91160000  0.28020000  0.36860000  1.0 -0.0568778143
C  C98  1  0.08840000  0.45700000  0.36860000  1.0 -0.0568778143
C  C99  1  0.91160000  0.54300000  0.63140000  1.0 -0.0568778143
C  C100  1  0.08840000  0.71980000  0.63140000  1.0 -0.0568778143
C  C101  1  0.43809000  0.84359000  0.03530000  1.0 -0.0869861417
C  C102  1  0.56191000  0.59721000  0.40550000  1.0 -0.0869861417
C  C103  1  0.80829000  0.40279000  0.96470000  1.0 -0.0869861417
C  C104  1  0.19171000  0.15641000  0.59450000  1.0 -0.0869861417
C  C105  1  0.56191000  0.15641000  0.96470000  1.0 -0.0869861417
C  C106  1  0.43809000  0.40279000  0.59450000  1.0 -0.0869861417
C  C107  1  0.19171000  0.59721000  0.03530000  1.0 -0.0869861417
C  C108  1  0.80829000  0.84359000  0.40550000  1.0 -0.0869861417
C  C109  1  0.84250000  0.13280000  0.29030000  1.0 0.1876133531
C  C110  1  0.15750000  0.44780000  0.29030000  1.0 0.1876133531
C  C111  1  0.84250000  0.55220000  0.70970000  1.0 0.1876133531
C  C112  1  0.15750000  0.86720000  0.70970000  1.0 0.1876133531
C  C113  1  0.41850000  0.82590000  0.07100000  1.0 -0.179203663
C  C114  1  0.58150000  0.65250000  0.40740000  1.0 -0.179203663
C  C115  1  0.75490000  0.34750000  0.92900000  1.0 -0.179203663
C  C116  1  0.24510000  0.17410000  0.59260000  1.0 -0.179203663
C  C117  1  0.58150000  0.17410000  0.92900000  1.0 -0.179203663
C  C118  1  0.41850000  0.34750000  0.59260000  1.0 -0.179203663
C  C119  1  0.24510000  0.65250000  0.07100000  1.0 -0.179203663
C  C120  1  0.75490000  0.82590000  0.40740000  1.0 -0.179203663
C  C121  1  0.45094000  0.92023000  0.07951000  1.0 -0.0105993818
C  C122  1  0.54906000  0.62857000  0.46929000  1.0 -0.0105993818
C  C123  1  0.84072000  0.37143000  0.92049000  1.0 -0.0105993818
C  C124  1  0.15928000  0.07977000  0.53071000  1.0 -0.0105993818
C  C125  1  0.54906000  0.07977000  0.92049000  1.0 -0.0105993818
C  C126  1  0.45094000  0.37143000  0.53071000  1.0 -0.0105993818
C  C127  1  0.15928000  0.62857000  0.07951000  1.0 -0.0105993818
C  C128  1  0.84072000  0.92023000  0.46929000  1.0 -0.0105993818
C  C129  1  0.41030000  0.86850000  0.27880000  1.0 -0.0202106428
C  C130  1  0.58970000  0.86850000  0.45820000  1.0 -0.0202106428
C  C131  1  0.58970000  0.13150000  0.72120000  1.0 -0.0202106428
C  C132  1  0.41030000  0.13150000  0.54180000  1.0 -0.0202106428
C  C133  1  0.34230000  0.78660000  0.12890000  1.0 0.1972690969
C  C134  1  0.65770000  0.78660000  0.44430000  1.0 0.1972690969
C  C135  1  0.65770000  0.21340000  0.87110000  1.0 0.1972690969
C  C136  1  0.34230000  0.21340000  0.55570000  1.0 0.1972690969
C  C137  1  0.74480000  0.06520000  0.14760000  1.0 -0.158780803
C  C138  1  0.25520000  0.40280000  0.32040000  1.0 -0.158780803
C  C139  1  0.91760000  0.59720000  0.85240000  1.0 -0.158780803
C  C140  1  0.08240000  0.93480000  0.67960000  1.0 -0.158780803
C  C141  1  0.25520000  0.93480000  0.85240000  1.0 -0.158780803
C  C142  1  0.74480000  0.59720000  0.67960000  1.0 -0.158780803
C  C143  1  0.08240000  0.40280000  0.14760000  1.0 -0.158780803
C  C144  1  0.91760000  0.06520000  0.32040000  1.0 -0.158780803
C  C145  1  0.59950000  0.04660000  0.07570000  1.0 0.5444412343
C  C146  1  0.40050000  0.47620000  0.44710000  1.0 0.5444412343
C  C147  1  0.97090000  0.52380000  0.92430000  1.0 0.5444412343
C  C148  1  0.02910000  0.95340000  0.55290000  1.0 0.5444412343
C  C149  1  0.40050000  0.95340000  0.92430000  1.0 0.5444412343
C  C150  1  0.59950000  0.52380000  0.55290000  1.0 0.5444412343
C  C151  1  0.02910000  0.47620000  0.07570000  1.0 0.5444412343
C  C152  1  0.97090000  0.04660000  0.44710000  1.0 0.5444412343
C  C153  1  0.47050000  0.94426000  0.04244000  1.0 0.5700018443
C  C154  1  0.52950000  0.57194000  0.47376000  1.0 0.5700018443
C  C155  1  0.90182000  0.42806000  0.95756000  1.0 0.5700018443
C  C156  1  0.09818000  0.05574000  0.52624000  1.0 0.5700018443
C  C157  1  0.52950000  0.05574000  0.95756000  1.0 0.5700018443
C  C158  1  0.47050000  0.42806000  0.52624000  1.0 0.5700018443
C  C159  1  0.09818000  0.57194000  0.04244000  1.0 0.5700018443
C  C160  1  0.90182000  0.94426000  0.47376000  1.0 0.5700018443
C  C161  1  0.44680000  0.91260000  0.35940000  1.0 0.5894696452
C  C162  1  0.55320000  0.91260000  0.46580000  1.0 0.5894696452
C  C163  1  0.55320000  0.08740000  0.64060000  1.0 0.5894696452
C  C164  1  0.44680000  0.08740000  0.53420000  1.0 0.5894696452
C  C165  1  0.94690000  0.35630000  0.40940000  1.0 0.5760096647
C  C166  1  0.05310000  0.46250000  0.40940000  1.0 0.5760096647
C  C167  1  0.94690000  0.53750000  0.59060000  1.0 0.5760096647
C  C168  1  0.05310000  0.64370000  0.59060000  1.0 0.5760096647
N  N1  1  0.30870000  0.75140000  0.06010000  1.0 -0.5203721784
N  N2  1  0.69130000  0.75140000  0.44270000  1.0 -0.5136463903
N  N3  1  0.69130000  0.24860000  0.93990000  1.0 -0.5203721784
N  N4  1  0.30870000  0.24860000  0.55730000  1.0 -0.5203721784
N  N5  1  0.80830000  0.05630000  0.24800000  1.0 -0.5916899257
N  N6  1  0.19170000  0.43970000  0.24800000  1.0 -0.5916899257
N  N7  1  0.80830000  0.56030000  0.75200000  1.0 -0.5916899257
N  N8  1  0.19170000  0.94370000  0.75200000  1.0 -0.5916899257
O  O1  1  0.47833000  0.89715000  0.97978000  1.0 -0.4827597067
O  O2  1  0.52167000  0.50145000  0.41882000  1.0 -0.4827597067
O  O3  1  0.91737000  0.49855000  0.02022000  1.0 -0.4827597067
O  O4  1  0.08263000  0.10285000  0.58118000  1.0 -0.4827597067
O  O5  1  0.52167000  0.10285000  0.02022000  1.0 -0.4827597067
O  O6  1  0.47833000  0.49855000  0.58118000  1.0 -0.4827597067
O  O7  1  0.08263000  0.50145000  0.97978000  1.0 -0.4827597067
O  O8  1  0.91737000  0.89715000  0.41882000  1.0 -0.4827597067
O  O9  1  0.92543000  0.39242000  0.40101000  1.0 -0.5261400752
O  O10  1  0.07457000  0.47558000  0.46699000  1.0 -0.5261400752
O  O11  1  0.99141000  0.52442000  0.59899000  1.0 -0.5261400752
O  O12  1  0.00859000  0.60758000  0.53301000  1.0 -0.5261400752
O  O13  1  0.07457000  0.60758000  0.59899000  1.0 -0.5261400752
O  O14  1  0.92543000  0.52442000  0.53301000  1.0 -0.5261400752
O  O15  1  0.00859000  0.47558000  0.40101000  1.0 -0.5261400752
O  O16  1  0.99141000  0.39242000  0.46699000  1.0 -0.5261400752
O  O17  1  0.49236000  0.96542000  0.39154000  1.0 -0.5203721784
O  O18  1  0.50764000  0.89918000  0.47306000  1.0 -0.5203721784
O  O19  1  0.57388000  0.10082000  0.60846000  1.0 -0.5203721784
O  O20  1  0.42612000  0.03458000  0.52694000  1.0 -0.5203721784
O  O21  1  0.50764000  0.03458000  0.60846000  1.0 -0.5203721784
O  O22  1  0.49236000  0.10082000  0.52694000  1.0 -0.5203721784
O  O23  1  0.42612000  0.89918000  0.39154000  1.0 -0.5203721784
O  O24  1  0.57388000  0.96542000  0.47306000  1.0 -0.5203721784
O  O25  1  0.57688000  0.97019000  0.99929000  1.0 -0.575544145
O  O26  1  0.42312000  0.42241000  0.39331000  1.0 -0.5735983911
O  O27  1  0.97090000  0.57759000  0.00071000  1.0 -0.5735983911
O  O28  1  0.02910000  0.02981000  0.60669000  1.0 -0.5735983911
O  O29  1  0.42312000  0.02981000  0.00071000  1.0 -0.5735983911
O  O30  1  0.57688000  0.57759000  0.60669000  1.0 -0.575544145
O  O31  1  0.02910000  0.42241000  0.99929000  1.0 -0.5735983911
O  O32  1  0.97090000  0.97019000  0.39331000  1.0 -0.5735983911
O  O33  1  0.57922000  0.08991000  0.10591000  1.0 -0.3769637309
O  O34  1  0.42078000  0.52669000  0.51069000  1.0 -0.3769637309
O  O35  1  0.98400000  0.47331000  0.89409000  1.0 -0.3769637309
O  O36  1  0.01600000  0.91009000  0.48931000  1.0 -0.3769637309
O  O37  1  0.42078000  0.91009000  0.89409000  1.0 -0.3769637309
O  O38  1  0.57922000  0.47331000  0.48931000  1.0 -0.3769637309
O  O39  1  0.01600000  0.52669000  0.10591000  1.0 -0.3769637309
O  O40  1  0.98400000  0.08991000  0.51069000  1.0 -0.3769637309
O  O41  1  0.47644000  0.02087000  0.08917000  1.0 -0.604280632
O  O42  1  0.52356000  0.61273000  0.54443000  1.0 -0.604280632
O  O43  1  0.93170000  0.38727000  0.91083000  1.0 -0.604280632
O  O44  1  0.06830000  0.97913000  0.45557000  1.0 -0.604280632
O  O45  1  0.52356000  0.97913000  0.91083000  1.0 -0.604280632
O  O46  1  0.47644000  0.38727000  0.45557000  1.0 -0.604280632
O  O47  1  0.06830000  0.61273000  0.08917000  1.0 -0.604280632
O  O48  1  0.93170000  0.02087000  0.54443000  1.0 -0.604280632
