# DDEC6 charges by PACMAN v1.1 (https://github.com/mtap-research/PACMAN-charge/)
data_ASUBIB_FSR_pacman
_symmetry_space_group_name_H-M   'P 1'
_cell_length_a   10.94400000
_cell_length_b   11.12900000
_cell_length_c   15.99800000
_cell_angle_alpha   75.57000000
_cell_angle_beta   82.96000000
_cell_angle_gamma   75.56000000
_symmetry_Int_Tables_number   1
_chemical_formula_structural   EuH12C14(NO4)2
_chemical_formula_sum   'Eu4 H48 C56 N8 O32'
_cell_volume   1823.61096081
_cell_formula_units_Z   4
loop_
 _symmetry_equiv_pos_site_id
 _symmetry_equiv_pos_as_xyz
  1  'x, y, z'
loop_
 _atom_site_type_symbol
 _atom_site_label
 _atom_site_symmetry_multiplicity
 _atom_site_fract_x
 _atom_site_fract_y
 _atom_site_fract_z
 _atom_site_occupancy
 _atom_site_charge
Eu  Eu1  1  0.41255000  0.16000000  0.62672000  1.0 2.0498764249
Eu  Eu2  1  0.58745000  0.84000000  0.37328000  1.0 2.0498764249
Eu  Eu3  1  0.20768000  0.99481000  0.86643000  1.0 2.1496844025
Eu  Eu4  1  0.79232000  0.00519000  0.13357000  1.0 2.1496844025
H  H1  1  0.34080000  0.04260000  0.06700000  1.0 0.1410024358
H  H2  1  0.65920000  0.95740000  0.93300000  1.0 0.1410024358
H  H3  1  0.33270000  0.51840000  0.72340000  1.0 0.1311805407
H  H4  1  0.66730000  0.48160000  0.27660000  1.0 0.1311805407
H  H5  1  0.79710000  0.16690000  0.43810000  1.0 0.1410024358
H  H6  1  0.20290000  0.83310000  0.56190000  1.0 0.1410024358
H  H7  1  0.37510000  0.12290000  0.46190000  1.0 0.3706426473
H  H8  1  0.62490000  0.87710000  0.53810000  1.0 0.3806311917
H  H9  1  0.28440000  0.23210000  0.47020000  1.0 0.3234225842
H  H10  1  0.71560000  0.76790000  0.52980000  1.0 0.3234225842
H  H11  1  0.44020000  0.37850000  0.50150000  1.0 0.3706426473
H  H12  1  0.55980000  0.62150000  0.49850000  1.0 0.3706426473
H  H13  1  0.34360000  0.42250000  0.55890000  1.0 0.3624025913
H  H14  1  0.65640000  0.57750000  0.44110000  1.0 0.3624025913
H  H15  1  0.43380000  0.89850000  0.64470000  1.0 0.3806311917
H  H16  1  0.56620000  0.10150000  0.35530000  1.0 0.3806311917
H  H17  1  0.34980000  0.95690000  0.58030000  1.0 0.3706426473
H  H18  1  0.65020000  0.04310000  0.41970000  1.0 0.3706426473
H  H19  1  0.13020000  0.71230000  0.89360000  1.0 0.1311805407
H  H20  1  0.86980000  0.28770000  0.10640000  1.0 0.1311805407
H  H21  1  0.02620000  0.12220000  0.21760000  1.0 0.1410024358
H  H22  1  0.97380000  0.87780000  0.78240000  1.0 0.1410024358
H  H23  1  0.14450000  0.15830000  0.50640000  1.0 0.1112838419
H  H24  1  0.85550000  0.84170000  0.49360000  1.0 0.1112838419
H  H25  1  0.84990000  0.15970000  0.68130000  1.0 0.1311805407
H  H26  1  0.15010000  0.84030000  0.31870000  1.0 0.1311805407
H  H27  1  0.12590000  0.34440000  0.91770000  1.0 0.1410024358
H  H28  1  0.87410000  0.65560000  0.08230000  1.0 0.1410024358
H  H29  1  0.36250000  0.10070000  0.30260000  1.0 0.1311805407
H  H30  1  0.63750000  0.89930000  0.69740000  1.0 0.1311805407
H  H31  1  0.09580000  0.84710000  0.09720000  1.0 0.1650042267
H  H32  1  0.90420000  0.15290000  0.90280000  1.0 0.1650042267
H  H33  1  0.16010000  0.72870000  0.16640000  1.0 0.1410024358
H  H34  1  0.83990000  0.27130000  0.83360000  1.0 0.1410024358
H  H35  1  0.10520000  0.70910000  0.08590000  1.0 0.1776094766
H  H36  1  0.89480000  0.29090000  0.91410000  1.0 0.1776094766
H  H37  1  0.51220000  0.68240000  0.00540000  1.0 0.1478049191
H  H38  1  0.48780000  0.31760000  0.99460000  1.0 0.1410024358
H  H39  1  0.56610000  0.69500000  0.08840000  1.0 0.1311805407
H  H40  1  0.43390000  0.30500000  0.91160000  1.0 0.1311805407
H  H41  1  0.49850000  0.81730000  0.02370000  1.0 0.1478049191
H  H42  1  0.50150000  0.18270000  0.97630000  1.0 0.1478049191
H  H43  1  0.33160000  0.77990000  0.20460000  1.0 0.1311805407
H  H44  1  0.66840000  0.22010000  0.79540000  1.0 0.1311805407
H  H45  1  0.45330000  0.66930000  0.20800000  1.0 0.1410024358
H  H46  1  0.54670000  0.33070000  0.79200000  1.0 0.1410024358
H  H47  1  0.31930000  0.63970000  0.21380000  1.0 0.1311805407
H  H48  1  0.68070000  0.36030000  0.78620000  1.0 0.1311805407
C  C1  1  0.09350000  0.07460000  0.06520000  1.0 0.6484605404
C  C2  1  0.90650000  0.92540000  0.93480000  1.0 0.6484605404
C  C3  1  0.51440000  0.02330000  0.17480000  1.0 0.6049116583
C  C4  1  0.48560000  0.97670000  0.82520000  1.0 0.6049116583
C  C5  1  0.37400000  0.06250000  0.18310000  1.0 -0.0096624062
C  C6  1  0.62600000  0.93750000  0.81690000  1.0 -0.0096624062
C  C7  1  0.30260000  0.05980000  0.11920000  1.0 -0.0938305153
C  C8  1  0.69740000  0.94020000  0.88080000  1.0 -0.0938305153
C  C9  1  0.27720000  0.29090000  0.78740000  1.0 0.6431977482
C  C10  1  0.72280000  0.70910000  0.21260000  1.0 0.6431977482
C  C11  1  0.23510000  0.41410000  0.81650000  1.0 -0.0275373614
C  C12  1  0.76490000  0.58590000  0.18350000  1.0 -0.0275373614
C  C13  1  0.27770000  0.52190000  0.77240000  1.0 -0.1078156183
C  C14  1  0.72230000  0.47810000  0.22760000  1.0 -0.1078156183
C  C15  1  0.67070000  0.15710000  0.58960000  1.0 0.5578753682
C  C16  1  0.32930000  0.84290000  0.41040000  1.0 0.5578753682
C  C17  1  0.80410000  0.16290000  0.56370000  1.0 -0.0203829954
C  C18  1  0.19590000  0.83710000  0.43630000  1.0 -0.0203829954
C  C19  1  0.85070000  0.16390000  0.47980000  1.0 -0.1466663746
C  C20  1  0.14930000  0.83610000  0.52020000  1.0 -0.1466663746
C  C21  1  0.28530000  0.74760000  0.75530000  1.0 0.6101667615
C  C22  1  0.71470000  0.25240000  0.24470000  1.0 0.6101667615
C  C23  1  0.15630000  0.63780000  0.87340000  1.0 -0.1466663746
C  C24  1  0.84370000  0.36220000  0.12660000  1.0 -0.1466663746
C  C25  1  0.24040000  0.63200000  0.79980000  1.0 -0.040147063
C  C26  1  0.75960000  0.36800000  0.20020000  1.0 -0.040147063
C  C27  1  0.01030000  0.15530000  0.60380000  1.0 -0.0096624062
C  C28  1  0.98970000  0.84470000  0.39620000  1.0 -0.0096624062
C  C29  1  0.18280000  0.12190000  0.27130000  1.0 0.1593333812
C  C30  1  0.81720000  0.87810000  0.72870000  1.0 0.1593333812
C  C31  1  0.11350000  0.11070000  0.20840000  1.0 -0.1272869227
C  C32  1  0.88650000  0.88930000  0.79160000  1.0 -0.1272869227
C  C33  1  0.05960000  0.15800000  0.52110000  1.0 -0.1691526963
C  C34  1  0.94040000  0.84200000  0.47890000  1.0 -0.1691526963
C  C35  1  0.10020000  0.13890000  0.67270000  1.0 0.6484605404
C  C36  1  0.89980000  0.86110000  0.32730000  1.0 0.6484605404
C  C37  1  0.88250000  0.15940000  0.62480000  1.0 -0.1043446479
C  C38  1  0.11750000  0.84060000  0.37520000  1.0 -0.1043446479
C  C39  1  0.15370000  0.41680000  0.88790000  1.0 -0.1466663746
C  C40  1  0.84630000  0.58320000  0.11210000  1.0 -0.1466663746
C  C41  1  0.97760000  0.16030000  0.45760000  1.0 0.1593333812
C  C42  1  0.02240000  0.83970000  0.54240000  1.0 0.1593333812
C  C43  1  0.17040000  0.08360000  0.13440000  1.0 -0.0203829954
C  C44  1  0.82960000  0.91640000  0.86560000  1.0 -0.0203829954
C  C45  1  0.31450000  0.09600000  0.25990000  1.0 -0.1691526963
C  C46  1  0.68550000  0.90400000  0.74010000  1.0 -0.1691526963
C  C47  1  0.11350000  0.52930000  0.91510000  1.0 0.1593333812
C  C48  1  0.88650000  0.47070000  0.08490000  1.0 0.1593333812
C  C49  1  0.14710000  0.76190000  0.10590000  1.0 -0.5896626828
C  C50  1  0.85290000  0.23810000  0.89410000  1.0 -0.5896626828
C  C51  1  0.27240000  0.76330000  0.05620000  1.0 0.537925932
C  C52  1  0.72760000  0.23670000  0.94380000  1.0 0.537925932
C  C53  1  0.49910000  0.72960000  0.04970000  1.0 -0.323862013
C  C54  1  0.50090000  0.27040000  0.95030000  1.0 -0.323862013
C  C55  1  0.36940000  0.70080000  0.18820000  1.0 -0.2908082573
C  C56  1  0.63060000  0.29920000  0.81180000  1.0 -0.2908082573
N  N1  1  0.01980000  0.15440000  0.36980000  1.0 -0.1043446479
N  N2  1  0.98020000  0.84560000  0.63020000  1.0 -0.1043446479
N  N3  1  0.13640000  0.13900000  0.35580000  1.0 -0.1078156183
N  N4  1  0.86360000  0.86100000  0.64420000  1.0 -0.1078156183
N  N5  1  0.02680000  0.54540000  0.98550000  1.0 -0.1272869227
N  N6  1  0.97320000  0.45460000  0.01450000  1.0 -0.1272869227
N  N7  1  0.37510000  0.72030000  0.09900000  1.0 0.0069099128
N  N8  1  0.62490000  0.27970000  0.90100000  1.0 0.0069099128
O  O1  1  0.35960000  0.28660000  0.72700000  1.0 -0.6430915861
O  O2  1  0.64040000  0.71340000  0.27300000  1.0 -0.6430915861
O  O3  1  0.57390000  0.99600000  0.24350000  1.0 -0.7535752324
O  O4  1  0.42610000  0.00400000  0.75650000  1.0 -0.7535752324
O  O5  1  0.97950000  0.07370000  0.08450000  1.0 -0.6575447587
O  O6  1  0.02050000  0.92630000  0.91550000  1.0 -0.6575447587
O  O7  1  0.14750000  0.06970000  0.99230000  1.0 -0.6575447587
O  O8  1  0.85250000  0.93030000  0.00770000  1.0 -0.6575447587
O  O9  1  0.22640000  0.20200000  0.82620000  1.0 -0.6724697618
O  O10  1  0.77360000  0.79800000  0.17380000  1.0 -0.6724697618
O  O11  1  0.57140000  0.02000000  0.10370000  1.0 -0.5691553919
O  O12  1  0.42860000  0.98000000  0.89630000  1.0 -0.5691553919
O  O13  1  0.61080000  0.11740000  0.54180000  1.0 -0.6575447587
O  O14  1  0.38920000  0.88260000  0.45820000  1.0 -0.6575447587
O  O15  1  0.62020000  0.18320000  0.65820000  1.0 -0.5896626828
O  O16  1  0.37980000  0.81680000  0.34180000  1.0 -0.5896626828
O  O17  1  0.06830000  0.09520000  0.74930000  1.0 -0.6105938224
O  O18  1  0.93170000  0.90480000  0.25070000  1.0 -0.6105938224
O  O19  1  0.36170000  0.19440000  0.47560000  1.0 -0.7665701924
O  O20  1  0.63830000  0.80560000  0.52440000  1.0 -0.7665701924
O  O21  1  0.41710000  0.37510000  0.55460000  1.0 -0.7628565399
O  O22  1  0.58290000  0.62490000  0.44540000  1.0 -0.7628565399
O  O23  1  0.24480000  0.84720000  0.78430000  1.0 -0.6892645625
O  O24  1  0.75520000  0.15280000  0.21570000  1.0 -0.6892645625
O  O25  1  0.42000000  0.95580000  0.59840000  1.0 -0.7665701924
O  O26  1  0.58000000  0.04420000  0.40160000  1.0 -0.7665701924
O  O27  1  0.35790000  0.74600000  0.68990000  1.0 -0.5244125394
O  O28  1  0.64210000  0.25400000  0.31010000  1.0 -0.5244125394
O  O29  1  0.27910000  0.80480000  0.97220000  1.0 -0.7126190929
O  O30  1  0.72090000  0.19520000  0.02780000  1.0 -0.7126190929
O  O31  1  0.20340000  0.16610000  0.64680000  1.0 -0.7126190929
O  O32  1  0.79660000  0.83390000  0.35320000  1.0 -0.7126190929
