# DDEC6 charges by PACMAN v1.1 (https://github.com/mtap-research/PACMAN-charge/)
data_ATOMUU_FSR_pacman
_symmetry_space_group_name_H-M   'P 1'
_cell_length_a   31.67000000
_cell_length_b   31.67000000
_cell_length_c   16.72700000
_cell_angle_alpha   90.00000000
_cell_angle_beta   90.00000000
_cell_angle_gamma   120.00000000
_symmetry_Int_Tables_number   1
_chemical_formula_structural   Ni6H364Ir3C252N24(Cl6O37)2
_chemical_formula_sum   'Ni6 H364 Ir3 C252 N24 Cl12 O74'
_cell_volume   14529.30415521
_cell_formula_units_Z   1
loop_
 _symmetry_equiv_pos_site_id
 _symmetry_equiv_pos_as_xyz
  1  'x, y, z'
loop_
 _atom_site_type_symbol
 _atom_site_label
 _atom_site_symmetry_multiplicity
 _atom_site_fract_x
 _atom_site_fract_y
 _atom_site_fract_z
 _atom_site_occupancy
 _atom_site_charge
Ni  Ni1  1  0.59031000  0.29515000  0.00000000  1.0 0.9765101612
Ni  Ni2  1  0.70485000  0.40969000  0.00000000  1.0 0.9765101612
Ni  Ni3  1  0.70484000  0.29515000  0.00000000  1.0 0.9765101612
Ni  Ni4  1  0.40969000  0.70485000  0.00000000  1.0 0.9746378203
Ni  Ni5  1  0.29515000  0.59031000  0.00000000  1.0 0.9746378203
Ni  Ni6  1  0.29516000  0.70485000  0.00000000  1.0 0.9746378203
H  H1  1  0.50850000  0.13790000  0.30170000  1.0 0.1194024656
H  H2  1  0.52680000  0.18130000  0.16940000  1.0 0.1194024656
H  H3  1  0.46760000  0.13790000  0.04690000  1.0 0.0819107335
H  H4  1  0.37830000  0.15840000  0.04690000  1.0 0.0629351694
H  H5  1  0.63030000  0.09550000  0.51380000  1.0 0.2365645942
H  H6  1  0.60410000  0.04710000  0.53770000  1.0 0.0819107335
H  H7  1  0.71970000  0.12600000  0.45360000  1.0 0.066870384
H  H8  1  0.76610000  0.20660000  0.45220000  1.0 0.0422093455
H  H9  1  0.39680000  0.11700000  0.04690000  1.0 0.0629351694
H  H10  1  0.62940000  0.49150000  0.30170000  1.0 0.1194024656
H  H11  1  0.65450000  0.47320000  0.16940000  1.0 0.1194024656
H  H12  1  0.67030000  0.53240000  0.04690000  1.0 0.0819107335
H  H13  1  0.78010000  0.62170000  0.04690000  1.0 0.066870384
H  H14  1  0.46520000  0.36970000  0.51380000  1.0 0.2365645942
H  H15  1  0.44300000  0.39590000  0.53770000  1.0 0.0819107335
H  H16  1  0.40630000  0.28030000  0.45360000  1.0 0.066870384
H  H17  1  0.44050000  0.23390000  0.45220000  1.0 0.0422093455
H  H18  1  0.72020000  0.60320000  0.04690000  1.0 0.0629351694
H  H19  1  0.86210000  0.37060000  0.30170000  1.0 0.1194024656
H  H20  1  0.81870000  0.34550000  0.16940000  1.0 0.1194024656
H  H21  1  0.86210000  0.32970000  0.04690000  1.0 0.0819107335
H  H22  1  0.84160000  0.21990000  0.04690000  1.0 0.066870384
H  H23  1  0.90450000  0.53480000  0.51380000  1.0 0.2365645942
H  H24  1  0.95290000  0.55700000  0.53770000  1.0 0.0819107335
H  H25  1  0.87400000  0.59370000  0.45360000  1.0 0.066870384
H  H26  1  0.79340000  0.55950000  0.45220000  1.0 0.0422093455
H  H27  1  0.88300000  0.27980000  0.04690000  1.0 0.0629351694
H  H28  1  0.49150000  0.86210000  0.30170000  1.0 0.1194024656
H  H29  1  0.47320000  0.81870000  0.16940000  1.0 0.1194024656
H  H30  1  0.53240000  0.86210000  0.04690000  1.0 0.0819107335
H  H31  1  0.62170000  0.84160000  0.04690000  1.0 0.066870384
H  H32  1  0.36970000  0.90450000  0.51380000  1.0 0.2365645942
H  H33  1  0.39590000  0.95290000  0.53770000  1.0 0.0819107335
H  H34  1  0.28030000  0.87400000  0.45360000  1.0 0.066870384
H  H35  1  0.23390000  0.79340000  0.45220000  1.0 0.0422093455
H  H36  1  0.60320000  0.88300000  0.04690000  1.0 0.0629351694
H  H37  1  0.37060000  0.50850000  0.30170000  1.0 0.1194024656
H  H38  1  0.34550000  0.52680000  0.16940000  1.0 0.1194024656
H  H39  1  0.32970000  0.46760000  0.04690000  1.0 0.0819107335
H  H40  1  0.21990000  0.37830000  0.04690000  1.0 0.0629351694
H  H41  1  0.53480000  0.63030000  0.51380000  1.0 0.2365645942
H  H42  1  0.55700000  0.60410000  0.53770000  1.0 0.0819107335
H  H43  1  0.59370000  0.71970000  0.45360000  1.0 0.066870384
H  H44  1  0.55950000  0.76610000  0.45220000  1.0 0.0422093455
H  H45  1  0.27980000  0.39680000  0.04690000  1.0 0.0629351694
H  H46  1  0.13790000  0.62940000  0.30170000  1.0 0.1194024656
H  H47  1  0.18130000  0.65450000  0.16940000  1.0 0.1194024656
H  H48  1  0.13790000  0.67030000  0.04690000  1.0 0.0819107335
H  H49  1  0.15840000  0.78010000  0.04690000  1.0 0.0629351694
H  H50  1  0.09550000  0.46520000  0.51380000  1.0 0.2365645942
H  H51  1  0.04710000  0.44300000  0.53770000  1.0 0.0819107335
H  H52  1  0.12600000  0.40630000  0.45360000  1.0 0.066870384
H  H53  1  0.20660000  0.44050000  0.45220000  1.0 0.0422093455
H  H54  1  0.11700000  0.72020000  0.04690000  1.0 0.0629351694
H  H55  1  0.37060000  0.86210000  0.69830000  1.0 0.1194024656
H  H56  1  0.34550000  0.81870000  0.83060000  1.0 0.1194024656
H  H57  1  0.32970000  0.86210000  0.95310000  1.0 0.0819107335
H  H58  1  0.21990000  0.84160000  0.95310000  1.0 0.066870384
H  H59  1  0.53480000  0.90450000  0.48620000  1.0 0.2365645942
H  H60  1  0.55700000  0.95290000  0.46230000  1.0 0.0819107335
H  H61  1  0.59370000  0.87400000  0.54640000  1.0 0.066870384
H  H62  1  0.55950000  0.79340000  0.54780000  1.0 0.0422093455
H  H63  1  0.27980000  0.88300000  0.95310000  1.0 0.0629351694
H  H64  1  0.13790000  0.50850000  0.69830000  1.0 0.1194024656
H  H65  1  0.18130000  0.52680000  0.83060000  1.0 0.1194024656
H  H66  1  0.13790000  0.46760000  0.95310000  1.0 0.0819107335
H  H67  1  0.15840000  0.37830000  0.95310000  1.0 0.066870384
H  H68  1  0.09550000  0.63030000  0.48620000  1.0 0.2365645942
H  H69  1  0.04710000  0.60410000  0.46230000  1.0 0.0819107335
H  H70  1  0.12600000  0.71970000  0.54640000  1.0 0.066870384
H  H71  1  0.20660000  0.76610000  0.54780000  1.0 0.0422093455
H  H72  1  0.11700000  0.39680000  0.95310000  1.0 0.0629351694
H  H73  1  0.49150000  0.62940000  0.69830000  1.0 0.1194024656
H  H74  1  0.47320000  0.65450000  0.83060000  1.0 0.1194024656
H  H75  1  0.53240000  0.67030000  0.95310000  1.0 0.0819107335
H  H76  1  0.62170000  0.78010000  0.95310000  1.0 0.066870384
H  H77  1  0.36970000  0.46520000  0.48620000  1.0 0.2365645942
H  H78  1  0.39590000  0.44300000  0.46230000  1.0 0.0819107335
H  H79  1  0.28030000  0.40630000  0.54640000  1.0 0.066870384
H  H80  1  0.23390000  0.44050000  0.54780000  1.0 0.0422093455
H  H81  1  0.60320000  0.72020000  0.95310000  1.0 0.0629351694
H  H82  1  0.62940000  0.13790000  0.69830000  1.0 0.1194024656
H  H83  1  0.65450000  0.18130000  0.83060000  1.0 0.1194024656
H  H84  1  0.67030000  0.13790000  0.95310000  1.0 0.0819107335
H  H85  1  0.78010000  0.15840000  0.95310000  1.0 0.066870384
H  H86  1  0.46520000  0.09550000  0.48620000  1.0 0.2365645942
H  H87  1  0.44300000  0.04710000  0.46230000  1.0 0.0819107335
H  H88  1  0.40630000  0.12600000  0.54640000  1.0 0.066870384
H  H89  1  0.44050000  0.20660000  0.54780000  1.0 0.0422093455
H  H90  1  0.72020000  0.11700000  0.95310000  1.0 0.0629351694
H  H91  1  0.86210000  0.49150000  0.69830000  1.0 0.1194024656
H  H92  1  0.81870000  0.47320000  0.83060000  1.0 0.1194024656
H  H93  1  0.86210000  0.53240000  0.95310000  1.0 0.0819107335
H  H94  1  0.84160000  0.62170000  0.95310000  1.0 0.066870384
H  H95  1  0.90450000  0.36970000  0.48620000  1.0 0.2365645942
H  H96  1  0.95290000  0.39590000  0.46230000  1.0 0.0819107335
H  H97  1  0.87400000  0.28030000  0.54640000  1.0 0.066870384
H  H98  1  0.79340000  0.23390000  0.54780000  1.0 0.0422093455
H  H99  1  0.88300000  0.60320000  0.95310000  1.0 0.0629351694
H  H100  1  0.50850000  0.37060000  0.69830000  1.0 0.1194024656
H  H101  1  0.52680000  0.34550000  0.83060000  1.0 0.1194024656
H  H102  1  0.46760000  0.32970000  0.95310000  1.0 0.0819107335
H  H103  1  0.37830000  0.21990000  0.95310000  1.0 0.066870384
H  H104  1  0.63030000  0.53480000  0.48620000  1.0 0.2365645942
H  H105  1  0.60410000  0.55700000  0.46230000  1.0 0.0819107335
H  H106  1  0.71970000  0.59370000  0.54640000  1.0 0.066870384
H  H107  1  0.76610000  0.55950000  0.54780000  1.0 0.0422093455
H  H108  1  0.39680000  0.27980000  0.95310000  1.0 0.0629351694
H  H109  1  0.49150000  0.86210000  0.69830000  1.0 0.1194024656
H  H110  1  0.47320000  0.81870000  0.83060000  1.0 0.1194024656
H  H111  1  0.53240000  0.86210000  0.95310000  1.0 0.0819107335
H  H112  1  0.62170000  0.84160000  0.95310000  1.0 0.066870384
H  H113  1  0.36970000  0.90450000  0.48620000  1.0 0.2365645942
H  H114  1  0.39590000  0.95290000  0.46230000  1.0 0.0819107335
H  H115  1  0.28030000  0.87400000  0.54640000  1.0 0.066870384
H  H116  1  0.23390000  0.79340000  0.54780000  1.0 0.0422093455
H  H117  1  0.60320000  0.88300000  0.95310000  1.0 0.0629351694
H  H118  1  0.37060000  0.50850000  0.69830000  1.0 0.1194024656
H  H119  1  0.34550000  0.52680000  0.83060000  1.0 0.1194024656
H  H120  1  0.32970000  0.46760000  0.95310000  1.0 0.0819107335
H  H121  1  0.21990000  0.37830000  0.95310000  1.0 0.066870384
H  H122  1  0.53480000  0.63030000  0.48620000  1.0 0.2365645942
H  H123  1  0.55700000  0.60410000  0.46230000  1.0 0.0819107335
H  H124  1  0.59370000  0.71970000  0.54640000  1.0 0.066870384
H  H125  1  0.55950000  0.76610000  0.54780000  1.0 0.0422093455
H  H126  1  0.27980000  0.39680000  0.95310000  1.0 0.0629351694
H  H127  1  0.13790000  0.62940000  0.69830000  1.0 0.1194024656
H  H128  1  0.18130000  0.65450000  0.83060000  1.0 0.1194024656
H  H129  1  0.13790000  0.67030000  0.95310000  1.0 0.0819107335
H  H130  1  0.15840000  0.78010000  0.95310000  1.0 0.066870384
H  H131  1  0.09550000  0.46520000  0.48620000  1.0 0.2365645942
H  H132  1  0.04710000  0.44300000  0.46230000  1.0 0.0819107335
H  H133  1  0.12600000  0.40630000  0.54640000  1.0 0.066870384
H  H134  1  0.20660000  0.44050000  0.54780000  1.0 0.0422093455
H  H135  1  0.11700000  0.72020000  0.95310000  1.0 0.0629351694
H  H136  1  0.50850000  0.13790000  0.69830000  1.0 0.1194024656
H  H137  1  0.52680000  0.18130000  0.83060000  1.0 0.1194024656
H  H138  1  0.46760000  0.13790000  0.95310000  1.0 0.0819107335
H  H139  1  0.37830000  0.15840000  0.95310000  1.0 0.066870384
H  H140  1  0.63030000  0.09550000  0.48620000  1.0 0.2365645942
H  H141  1  0.60410000  0.04710000  0.46230000  1.0 0.0819107335
H  H142  1  0.71970000  0.12600000  0.54640000  1.0 0.066870384
H  H143  1  0.76610000  0.20660000  0.54780000  1.0 0.0422093455
H  H144  1  0.39680000  0.11700000  0.95310000  1.0 0.0629351694
H  H145  1  0.62940000  0.49150000  0.69830000  1.0 0.1194024656
H  H146  1  0.65450000  0.47320000  0.83060000  1.0 0.1194024656
H  H147  1  0.67030000  0.53240000  0.95310000  1.0 0.0819107335
H  H148  1  0.78010000  0.62170000  0.95310000  1.0 0.066870384
H  H149  1  0.46520000  0.36970000  0.48620000  1.0 0.2365645942
H  H150  1  0.44300000  0.39590000  0.46230000  1.0 0.0819107335
H  H151  1  0.40630000  0.28030000  0.54640000  1.0 0.066870384
H  H152  1  0.44050000  0.23390000  0.54780000  1.0 0.0422093455
H  H153  1  0.72020000  0.60320000  0.95310000  1.0 0.0629351694
H  H154  1  0.86210000  0.37060000  0.69830000  1.0 0.1194024656
H  H155  1  0.81870000  0.34550000  0.83060000  1.0 0.1194024656
H  H156  1  0.86210000  0.32970000  0.95310000  1.0 0.0819107335
H  H157  1  0.84160000  0.21990000  0.95310000  1.0 0.066870384
H  H158  1  0.90450000  0.53480000  0.48620000  1.0 0.2365645942
H  H159  1  0.95290000  0.55700000  0.46230000  1.0 0.0819107335
H  H160  1  0.87400000  0.59370000  0.54640000  1.0 0.066870384
H  H161  1  0.79340000  0.55950000  0.54780000  1.0 0.0422093455
H  H162  1  0.88300000  0.27980000  0.95310000  1.0 0.0629351694
H  H163  1  0.62940000  0.13790000  0.30170000  1.0 0.1194024656
H  H164  1  0.65450000  0.18130000  0.16940000  1.0 0.1194024656
H  H165  1  0.67030000  0.13790000  0.04690000  1.0 0.0819107335
H  H166  1  0.78010000  0.15840000  0.04690000  1.0 0.066870384
H  H167  1  0.46520000  0.09550000  0.51380000  1.0 0.2365645942
H  H168  1  0.44300000  0.04710000  0.53770000  1.0 0.0819107335
H  H169  1  0.40630000  0.12600000  0.45360000  1.0 0.066870384
H  H170  1  0.44050000  0.20660000  0.45220000  1.0 0.0422093455
H  H171  1  0.72020000  0.11700000  0.04690000  1.0 0.0629351694
H  H172  1  0.86210000  0.49150000  0.30170000  1.0 0.1194024656
H  H173  1  0.81870000  0.47320000  0.16940000  1.0 0.1194024656
H  H174  1  0.86210000  0.53240000  0.04690000  1.0 0.0819107335
H  H175  1  0.84160000  0.62170000  0.04690000  1.0 0.066870384
H  H176  1  0.90450000  0.36970000  0.51380000  1.0 0.2365645942
H  H177  1  0.95290000  0.39590000  0.53770000  1.0 0.0819107335
H  H178  1  0.87400000  0.28030000  0.45360000  1.0 0.066870384
H  H179  1  0.79340000  0.23390000  0.45220000  1.0 0.0422093455
H  H180  1  0.88300000  0.60320000  0.04690000  1.0 0.0629351694
H  H181  1  0.50850000  0.37060000  0.30170000  1.0 0.1194024656
H  H182  1  0.52680000  0.34550000  0.16940000  1.0 0.1194024656
H  H183  1  0.46760000  0.32970000  0.04690000  1.0 0.0819107335
H  H184  1  0.37830000  0.21990000  0.04690000  1.0 0.066870384
H  H185  1  0.63030000  0.53480000  0.51380000  1.0 0.2365645942
H  H186  1  0.60410000  0.55700000  0.53770000  1.0 0.0819107335
H  H187  1  0.71970000  0.59370000  0.45360000  1.0 0.066870384
H  H188  1  0.76610000  0.55950000  0.45220000  1.0 0.0422093455
H  H189  1  0.39680000  0.27980000  0.04690000  1.0 0.0629351694
H  H190  1  0.37060000  0.86210000  0.30170000  1.0 0.1194024656
H  H191  1  0.34550000  0.81870000  0.16940000  1.0 0.1194024656
H  H192  1  0.32970000  0.86210000  0.04690000  1.0 0.0819107335
H  H193  1  0.21990000  0.84160000  0.04690000  1.0 0.0629351694
H  H194  1  0.53480000  0.90450000  0.51380000  1.0 0.2365645942
H  H195  1  0.55700000  0.95290000  0.53770000  1.0 0.0819107335
H  H196  1  0.59370000  0.87400000  0.45360000  1.0 0.066870384
H  H197  1  0.55950000  0.79340000  0.45220000  1.0 0.0422093455
H  H198  1  0.27980000  0.88300000  0.04690000  1.0 0.0629351694
H  H199  1  0.13790000  0.50850000  0.30170000  1.0 0.1194024656
H  H200  1  0.18130000  0.52680000  0.16940000  1.0 0.1194024656
H  H201  1  0.13790000  0.46760000  0.04690000  1.0 0.0819107335
H  H202  1  0.15840000  0.37830000  0.04690000  1.0 0.0629351694
H  H203  1  0.09550000  0.63030000  0.51380000  1.0 0.2365645942
H  H204  1  0.04710000  0.60410000  0.53770000  1.0 0.0819107335
H  H205  1  0.12600000  0.71970000  0.45360000  1.0 0.066870384
H  H206  1  0.20660000  0.76610000  0.45220000  1.0 0.0422093455
H  H207  1  0.11700000  0.39680000  0.04690000  1.0 0.0629351694
H  H208  1  0.49150000  0.62940000  0.30170000  1.0 0.1194024656
H  H209  1  0.47320000  0.65450000  0.16940000  1.0 0.1194024656
H  H210  1  0.53240000  0.67030000  0.04690000  1.0 0.0819107335
H  H211  1  0.62170000  0.78010000  0.04690000  1.0 0.066870384
H  H212  1  0.36970000  0.46520000  0.51380000  1.0 0.2365645942
H  H213  1  0.39590000  0.44300000  0.53770000  1.0 0.0819107335
H  H214  1  0.28030000  0.40630000  0.45360000  1.0 0.066870384
H  H215  1  0.23390000  0.44050000  0.45220000  1.0 0.0422093455
H  H216  1  0.60320000  0.72020000  0.04690000  1.0 0.0629351694
H  H217  1  0.52150000  0.04300000  0.20330000  1.0 0.1377430306
H  H218  1  0.59130000  0.18260000  0.42670000  1.0 0.1377430306
H  H219  1  0.52150000  0.47850000  0.20330000  1.0 0.1377430306
H  H220  1  0.59130000  0.40870000  0.42670000  1.0 0.1377430306
H  H221  1  0.95700000  0.47850000  0.20330000  1.0 0.1377430306
H  H222  1  0.81740000  0.40870000  0.42670000  1.0 0.1377430306
H  H223  1  0.47850000  0.95700000  0.20330000  1.0 0.1377430306
H  H224  1  0.40870000  0.81740000  0.42670000  1.0 0.1377430306
H  H225  1  0.47850000  0.52150000  0.20330000  1.0 0.1377430306
H  H226  1  0.40870000  0.59130000  0.42670000  1.0 0.1377430306
H  H227  1  0.04300000  0.52150000  0.20330000  1.0 0.1377430306
H  H228  1  0.18260000  0.59130000  0.42670000  1.0 0.1377430306
H  H229  1  0.47850000  0.95700000  0.79670000  1.0 0.1377430306
H  H230  1  0.40870000  0.81740000  0.57330000  1.0 0.1377430306
H  H231  1  0.04300000  0.52150000  0.79670000  1.0 0.1377430306
H  H232  1  0.18260000  0.59130000  0.57330000  1.0 0.1377430306
H  H233  1  0.47850000  0.52150000  0.79670000  1.0 0.1377430306
H  H234  1  0.40870000  0.59130000  0.57330000  1.0 0.1377430306
H  H235  1  0.52150000  0.04300000  0.79670000  1.0 0.1377430306
H  H236  1  0.59130000  0.18260000  0.57330000  1.0 0.1377430306
H  H237  1  0.95700000  0.47850000  0.79670000  1.0 0.1377430306
H  H238  1  0.81740000  0.40870000  0.57330000  1.0 0.1377430306
H  H239  1  0.52150000  0.47850000  0.79670000  1.0 0.1377430306
H  H240  1  0.59130000  0.40870000  0.57330000  1.0 0.1377430306
H  H241  1  0.50770000  0.18300000  0.00000000  1.0 0.1194024656
H  H242  1  0.38580000  0.11970000  0.00000000  1.0 0.0165670611
H  H243  1  0.52040000  0.19380000  0.00000000  1.0 0.103203685
H  H244  1  0.44020000  0.11810000  0.00000000  1.0 -0.0056978599
H  H245  1  0.44520000  0.23950000  0.00000000  1.0 0.133126911
H  H246  1  0.44920000  0.24660000  0.00000000  1.0 0.1730600809
H  H247  1  0.67530000  0.49230000  0.00000000  1.0 0.1194024656
H  H248  1  0.73390000  0.61420000  0.00000000  1.0 0.0165670611
H  H249  1  0.67340000  0.47960000  0.00000000  1.0 0.103203685
H  H250  1  0.67790000  0.55980000  0.00000000  1.0 -0.003589002
H  H251  1  0.79430000  0.55480000  0.00000000  1.0 0.133126911
H  H252  1  0.79740000  0.55080000  0.00000000  1.0 0.1730600809
H  H253  1  0.81700000  0.32470000  0.00000000  1.0 0.1194024656
H  H254  1  0.88030000  0.26610000  0.00000000  1.0 0.0165670611
H  H255  1  0.80620000  0.32660000  0.00000000  1.0 0.103203685
H  H256  1  0.88190000  0.32210000  0.00000000  1.0 -0.003589002
H  H257  1  0.76050000  0.20570000  0.00000000  1.0 0.133126911
H  H258  1  0.75340000  0.20260000  0.00000000  1.0 0.1774463367
H  H259  1  0.49230000  0.81700000  0.00000000  1.0 0.1194024656
H  H260  1  0.61420000  0.88030000  0.00000000  1.0 0.0165670611
H  H261  1  0.47960000  0.80620000  0.00000000  1.0 0.103203685
H  H262  1  0.55980000  0.88190000  0.00000000  1.0 -0.003589002
H  H263  1  0.55480000  0.76050000  0.00000000  1.0 0.133126911
H  H264  1  0.55080000  0.75340000  0.00000000  1.0 0.1730600809
H  H265  1  0.32470000  0.50770000  0.00000000  1.0 0.1194024656
H  H266  1  0.26610000  0.38580000  0.00000000  1.0 0.0165670611
H  H267  1  0.32660000  0.52040000  0.00000000  1.0 0.103203685
H  H268  1  0.32210000  0.44020000  0.00000000  1.0 -0.003589002
H  H269  1  0.20570000  0.44520000  0.00000000  1.0 0.133126911
H  H270  1  0.20260000  0.44920000  0.00000000  1.0 0.1730600809
H  H271  1  0.18300000  0.67530000  0.00000000  1.0 0.1194024656
H  H272  1  0.11970000  0.73390000  0.00000000  1.0 0.0165670611
H  H273  1  0.19380000  0.67340000  0.00000000  1.0 0.103203685
H  H274  1  0.11810000  0.67790000  0.00000000  1.0 -0.003589002
H  H275  1  0.23950000  0.79430000  0.00000000  1.0 0.133126911
H  H276  1  0.24660000  0.79740000  0.00000000  1.0 0.1730600809
H  H277  1  0.32470000  0.81700000  0.00000000  1.0 0.1194024656
H  H278  1  0.26610000  0.88030000  0.00000000  1.0 0.0165670611
H  H279  1  0.32660000  0.80620000  0.00000000  1.0 0.103203685
H  H280  1  0.32210000  0.88190000  0.00000000  1.0 -0.003589002
H  H281  1  0.20570000  0.76050000  0.00000000  1.0 0.133126911
H  H282  1  0.20260000  0.75340000  0.00000000  1.0 0.1730600809
H  H283  1  0.18300000  0.50770000  0.00000000  1.0 0.1194024656
H  H284  1  0.11970000  0.38580000  0.00000000  1.0 0.0165670611
H  H285  1  0.19380000  0.52040000  0.00000000  1.0 0.103203685
H  H286  1  0.11810000  0.44020000  0.00000000  1.0 -0.003589002
H  H287  1  0.23950000  0.44520000  0.00000000  1.0 0.133126911
H  H288  1  0.24660000  0.44920000  0.00000000  1.0 0.1730600809
H  H289  1  0.49230000  0.67530000  0.00000000  1.0 0.1194024656
H  H290  1  0.61420000  0.73390000  0.00000000  1.0 0.0165670611
H  H291  1  0.47960000  0.67340000  0.00000000  1.0 0.103203685
H  H292  1  0.55980000  0.67790000  0.00000000  1.0 -0.003589002
H  H293  1  0.55480000  0.79430000  0.00000000  1.0 0.133126911
H  H294  1  0.55080000  0.79740000  0.00000000  1.0 0.1730600809
H  H295  1  0.67530000  0.18300000  0.00000000  1.0 0.1194024656
H  H296  1  0.73390000  0.11970000  0.00000000  1.0 0.0165670611
H  H297  1  0.67340000  0.19380000  0.00000000  1.0 0.103203685
H  H298  1  0.67790000  0.11810000  0.00000000  1.0 -0.003589002
H  H299  1  0.79430000  0.23950000  0.00000000  1.0 0.133126911
H  H300  1  0.79740000  0.24660000  0.00000000  1.0 0.1774463367
H  H301  1  0.81700000  0.49230000  0.00000000  1.0 0.1194024656
H  H302  1  0.88030000  0.61420000  0.00000000  1.0 0.0165670611
H  H303  1  0.80620000  0.47960000  0.00000000  1.0 0.103203685
H  H304  1  0.88190000  0.55980000  0.00000000  1.0 -0.003589002
H  H305  1  0.76050000  0.55480000  0.00000000  1.0 0.133126911
H  H306  1  0.75340000  0.55080000  0.00000000  1.0 0.1730600809
H  H307  1  0.50770000  0.32470000  0.00000000  1.0 0.1194024656
H  H308  1  0.38580000  0.26610000  0.00000000  1.0 0.0165670611
H  H309  1  0.52040000  0.32660000  0.00000000  1.0 0.103203685
H  H310  1  0.44020000  0.32210000  0.00000000  1.0 -0.003589002
H  H311  1  0.44520000  0.20570000  0.00000000  1.0 0.133126911
H  H312  1  0.44920000  0.20260000  0.00000000  1.0 0.1730600809
H  H313  1  0.73990000  0.21680000  0.50000000  1.0 0.0819107335
H  H314  1  0.78830000  0.17840000  0.50000000  1.0 0.066870384
H  H315  1  0.47690000  0.26010000  0.50000000  1.0 0.0819107335
H  H316  1  0.39010000  0.21170000  0.50000000  1.0 0.066870384
H  H317  1  0.78320000  0.52310000  0.50000000  1.0 0.0819107335
H  H318  1  0.82160000  0.60990000  0.50000000  1.0 0.066870384
H  H319  1  0.26010000  0.78320000  0.50000000  1.0 0.0819107335
H  H320  1  0.21170000  0.82160000  0.50000000  1.0 0.066870384
H  H321  1  0.52310000  0.73990000  0.50000000  1.0 0.0819107335
H  H322  1  0.60990000  0.78830000  0.50000000  1.0 0.066870384
H  H323  1  0.21680000  0.47690000  0.50000000  1.0 0.0819107335
H  H324  1  0.17840000  0.39010000  0.50000000  1.0 0.066870384
H  H325  1  0.52310000  0.78320000  0.50000000  1.0 0.0819107335
H  H326  1  0.60990000  0.82160000  0.50000000  1.0 0.066870384
H  H327  1  0.21680000  0.73990000  0.50000000  1.0 0.0819107335
H  H328  1  0.17840000  0.78830000  0.50000000  1.0 0.066870384
H  H329  1  0.26010000  0.47690000  0.50000000  1.0 0.0819107335
H  H330  1  0.21170000  0.39010000  0.50000000  1.0 0.066870384
H  H331  1  0.47690000  0.21680000  0.50000000  1.0 0.0819107335
H  H332  1  0.39010000  0.17840000  0.50000000  1.0 0.066870384
H  H333  1  0.78320000  0.26010000  0.50000000  1.0 0.0819107335
H  H334  1  0.82160000  0.21170000  0.50000000  1.0 0.066870384
H  H335  1  0.73990000  0.52310000  0.50000000  1.0 0.0819107335
H  H336  1  0.78830000  0.60990000  0.50000000  1.0 0.066870384
H  H337  1  0.40140000  0.20070000  0.04690000  1.0 -0.0056978599
H  H338  1  0.79930000  0.59860000  0.04690000  1.0 -0.0056978599
H  H339  1  0.79930000  0.20070000  0.04690000  1.0 -0.003589002
H  H340  1  0.59860000  0.79930000  0.04690000  1.0 -0.003589002
H  H341  1  0.20070000  0.40140000  0.04690000  1.0 -0.0056978599
H  H342  1  0.20070000  0.79930000  0.04690000  1.0 -0.0056978599
H  H343  1  0.20070000  0.79930000  0.95310000  1.0 -0.0056978599
H  H344  1  0.20070000  0.40140000  0.95310000  1.0 -0.0056978599
H  H345  1  0.59860000  0.79930000  0.95310000  1.0 -0.003589002
H  H346  1  0.79930000  0.20070000  0.95310000  1.0 -0.003589002
H  H347  1  0.79930000  0.59860000  0.95310000  1.0 -0.0056978599
H  H348  1  0.40140000  0.20070000  0.95310000  1.0 -0.0056978599
H  H349  1  0.74355000  0.25645000  0.54150000  1.0 0.1866946633
H  H350  1  0.51290000  0.25645000  0.54150000  1.0 0.1866946633
H  H351  1  0.74355000  0.48710000  0.54150000  1.0 0.1866946633
H  H352  1  0.25645000  0.74355000  0.54150000  1.0 0.1866946633
H  H353  1  0.48710000  0.74355000  0.54150000  1.0 0.1866946633
H  H354  1  0.25645000  0.51290000  0.54150000  1.0 0.1866946633
H  H355  1  0.48710000  0.74355000  0.45850000  1.0 0.1866946633
H  H356  1  0.25645000  0.74355000  0.45850000  1.0 0.1866946633
H  H357  1  0.25645000  0.51290000  0.45850000  1.0 0.1866946633
H  H358  1  0.51290000  0.25645000  0.45850000  1.0 0.1866946633
H  H359  1  0.74355000  0.25645000  0.45850000  1.0 0.1866946633
H  H360  1  0.74355000  0.48710000  0.45850000  1.0 0.1866946633
H  H361  1  0.66666667  0.33333333  0.94920000  1.0 0.3501075645
H  H362  1  0.33333333  0.66666667  0.94920000  1.0 0.3501075645
H  H363  1  0.33333333  0.66666667  0.05080000  1.0 0.3501075645
H  H364  1  0.66666667  0.33333333  0.05080000  1.0 0.3501075645
Ir  Ir1  1  0.50000000  0.00000000  0.50000000  1.0 0.5539453169
Ir  Ir2  1  0.50000000  0.50000000  0.50000000  1.0 0.555271699
Ir  Ir3  1  0.00000000  0.50000000  0.50000000  1.0 0.555271699
C  C1  1  0.53610000  0.14380000  0.27090000  1.0 -0.1478217676
C  C2  1  0.54980000  0.17600000  0.19760000  1.0 -0.0439475338
C  C3  1  0.60770000  0.46390000  0.27090000  1.0 -0.1478217676
C  C4  1  0.62620000  0.45020000  0.19760000  1.0 -0.0439475338
C  C5  1  0.85620000  0.39230000  0.27090000  1.0 -0.1478217676
C  C6  1  0.82400000  0.37380000  0.19760000  1.0 -0.0439475338
C  C7  1  0.46390000  0.85620000  0.27090000  1.0 -0.1478217676
C  C8  1  0.45020000  0.82400000  0.19760000  1.0 -0.0439475338
C  C9  1  0.39230000  0.53610000  0.27090000  1.0 -0.1478217676
C  C10  1  0.37380000  0.54980000  0.19760000  1.0 -0.0439475338
C  C11  1  0.14380000  0.60770000  0.27090000  1.0 -0.1478217676
C  C12  1  0.17600000  0.62620000  0.19760000  1.0 -0.0439475338
C  C13  1  0.39230000  0.85620000  0.72910000  1.0 -0.1478217676
C  C14  1  0.37380000  0.82400000  0.80240000  1.0 -0.0439475338
C  C15  1  0.14380000  0.53610000  0.72910000  1.0 -0.1478217676
C  C16  1  0.17600000  0.54980000  0.80240000  1.0 -0.0439475338
C  C17  1  0.46390000  0.60770000  0.72910000  1.0 -0.1478217676
C  C18  1  0.45020000  0.62620000  0.80240000  1.0 -0.0439475338
C  C19  1  0.60770000  0.14380000  0.72910000  1.0 -0.1478217676
C  C20  1  0.62620000  0.17600000  0.80240000  1.0 -0.0439475338
C  C21  1  0.85620000  0.46390000  0.72910000  1.0 -0.1478217676
C  C22  1  0.82400000  0.45020000  0.80240000  1.0 -0.0439475338
C  C23  1  0.53610000  0.39230000  0.72910000  1.0 -0.1478217676
C  C24  1  0.54980000  0.37380000  0.80240000  1.0 -0.0439475338
C  C25  1  0.46390000  0.85620000  0.72910000  1.0 -0.1478217676
C  C26  1  0.45020000  0.82400000  0.80240000  1.0 -0.0439475338
C  C27  1  0.39230000  0.53610000  0.72910000  1.0 -0.1478217676
C  C28  1  0.37380000  0.54980000  0.80240000  1.0 -0.0439475338
C  C29  1  0.14380000  0.60770000  0.72910000  1.0 -0.1478217676
C  C30  1  0.17600000  0.62620000  0.80240000  1.0 -0.0439475338
C  C31  1  0.53610000  0.14380000  0.72910000  1.0 -0.1478217676
C  C32  1  0.54980000  0.17600000  0.80240000  1.0 -0.0439475338
C  C33  1  0.60770000  0.46390000  0.72910000  1.0 -0.1478217676
C  C34  1  0.62620000  0.45020000  0.80240000  1.0 -0.0439475338
C  C35  1  0.85620000  0.39230000  0.72910000  1.0 -0.1478217676
C  C36  1  0.82400000  0.37380000  0.80240000  1.0 -0.0439475338
C  C37  1  0.60770000  0.14380000  0.27090000  1.0 -0.1478217676
C  C38  1  0.62620000  0.17600000  0.19760000  1.0 -0.0439475338
C  C39  1  0.85620000  0.46390000  0.27090000  1.0 -0.1478217676
C  C40  1  0.82400000  0.45020000  0.19760000  1.0 -0.0439475338
C  C41  1  0.53610000  0.39230000  0.27090000  1.0 -0.1478217676
C  C42  1  0.54980000  0.37380000  0.19760000  1.0 -0.0439475338
C  C43  1  0.39230000  0.85620000  0.27090000  1.0 -0.1478217676
C  C44  1  0.37380000  0.82400000  0.19760000  1.0 -0.0439475338
C  C45  1  0.14380000  0.53610000  0.27090000  1.0 -0.1478217676
C  C46  1  0.17600000  0.54980000  0.19760000  1.0 -0.0439475338
C  C47  1  0.46390000  0.60770000  0.27090000  1.0 -0.1478217676
C  C48  1  0.45020000  0.62620000  0.19760000  1.0 -0.0439475338
C  C49  1  0.51780000  0.03560000  0.33090000  1.0 0.1774463367
C  C50  1  0.55068000  0.10136000  0.44010000  1.0 0.0422093455
C  C51  1  0.51098000  0.02196000  0.24840000  1.0 -0.140099714
C  C52  1  0.54390000  0.08780000  0.35270000  1.0 -0.2619743581
C  C53  1  0.57762000  0.15524000  0.46180000  1.0 -0.2527133336
C  C54  1  0.56200000  0.12400000  0.29200000  1.0 0.0932487575
C  C55  1  0.59880000  0.19760000  0.17420000  1.0 -0.0873532928
C  C56  1  0.61300000  0.22600000  0.10510000  1.0 0.5302902201
C  C57  1  0.51780000  0.48220000  0.33090000  1.0 0.1774463367
C  C58  1  0.55068000  0.44932000  0.44010000  1.0 0.0422093455
C  C59  1  0.51098000  0.48902000  0.24840000  1.0 -0.140099714
C  C60  1  0.54390000  0.45610000  0.35270000  1.0 -0.2692647203
C  C61  1  0.57762000  0.42238000  0.46180000  1.0 -0.2527133336
C  C62  1  0.56200000  0.43800000  0.29200000  1.0 0.0932487575
C  C63  1  0.59880000  0.40120000  0.17420000  1.0 -0.0952496464
C  C64  1  0.61300000  0.38700000  0.10510000  1.0 0.5302902201
C  C65  1  0.96440000  0.48220000  0.33090000  1.0 0.1774463367
C  C66  1  0.89864000  0.44932000  0.44010000  1.0 0.0422093455
C  C67  1  0.97804000  0.48902000  0.24840000  1.0 -0.140099714
C  C68  1  0.91220000  0.45610000  0.35270000  1.0 -0.2619743581
C  C69  1  0.84476000  0.42238000  0.46180000  1.0 -0.2527133336
C  C70  1  0.87600000  0.43800000  0.29200000  1.0 0.0932487575
C  C71  1  0.80240000  0.40120000  0.17420000  1.0 -0.0873532928
C  C72  1  0.77400000  0.38700000  0.10510000  1.0 0.5302902201
C  C73  1  0.48220000  0.96440000  0.33090000  1.0 0.1774463367
C  C74  1  0.44932000  0.89864000  0.44010000  1.0 0.0422093455
C  C75  1  0.48902000  0.97804000  0.24840000  1.0 -0.140099714
C  C76  1  0.45610000  0.91220000  0.35270000  1.0 -0.2692647203
C  C77  1  0.42238000  0.84476000  0.46180000  1.0 -0.2527133336
C  C78  1  0.43800000  0.87600000  0.29200000  1.0 0.0932487575
C  C79  1  0.40120000  0.80240000  0.17420000  1.0 -0.0952496464
C  C80  1  0.38700000  0.77400000  0.10510000  1.0 0.5302902201
C  C81  1  0.48220000  0.51780000  0.33090000  1.0 0.1774463367
C  C82  1  0.44932000  0.55068000  0.44010000  1.0 0.0422093455
C  C83  1  0.48902000  0.51098000  0.24840000  1.0 -0.140099714
C  C84  1  0.45610000  0.54390000  0.35270000  1.0 -0.2692647203
C  C85  1  0.42238000  0.57762000  0.46180000  1.0 -0.2527133336
C  C86  1  0.43800000  0.56200000  0.29200000  1.0 0.0932487575
C  C87  1  0.40120000  0.59880000  0.17420000  1.0 -0.0952496464
C  C88  1  0.38700000  0.61300000  0.10510000  1.0 0.5302902201
C  C89  1  0.03560000  0.51780000  0.33090000  1.0 0.1774463367
C  C90  1  0.10136000  0.55068000  0.44010000  1.0 0.0422093455
C  C91  1  0.02196000  0.51098000  0.24840000  1.0 -0.140099714
C  C92  1  0.08780000  0.54390000  0.35270000  1.0 -0.2692647203
C  C93  1  0.15524000  0.57762000  0.46180000  1.0 -0.2527133336
C  C94  1  0.12400000  0.56200000  0.29200000  1.0 0.0932487575
C  C95  1  0.19760000  0.59880000  0.17420000  1.0 -0.0952496464
C  C96  1  0.22600000  0.61300000  0.10510000  1.0 0.5302902201
C  C97  1  0.48220000  0.96440000  0.66910000  1.0 0.1774463367
C  C98  1  0.44932000  0.89864000  0.55990000  1.0 0.0422093455
C  C99  1  0.48902000  0.97804000  0.75160000  1.0 -0.140099714
C  C100  1  0.45610000  0.91220000  0.64730000  1.0 -0.2692647203
C  C101  1  0.42238000  0.84476000  0.53820000  1.0 -0.2527133336
C  C102  1  0.43800000  0.87600000  0.70800000  1.0 0.0932487575
C  C103  1  0.40120000  0.80240000  0.82580000  1.0 -0.0952496464
C  C104  1  0.38700000  0.77400000  0.89490000  1.0 0.5302902201
C  C105  1  0.03560000  0.51780000  0.66910000  1.0 0.1774463367
C  C106  1  0.10136000  0.55068000  0.55990000  1.0 0.0422093455
C  C107  1  0.02196000  0.51098000  0.75160000  1.0 -0.140099714
C  C108  1  0.08780000  0.54390000  0.64730000  1.0 -0.2692647203
C  C109  1  0.15524000  0.57762000  0.53820000  1.0 -0.2527133336
C  C110  1  0.12400000  0.56200000  0.70800000  1.0 0.0932487575
C  C111  1  0.19760000  0.59880000  0.82580000  1.0 -0.0952496464
C  C112  1  0.22600000  0.61300000  0.89490000  1.0 0.5302902201
C  C113  1  0.48220000  0.51780000  0.66910000  1.0 0.1774463367
C  C114  1  0.44932000  0.55068000  0.55990000  1.0 0.0422093455
C  C115  1  0.48902000  0.51098000  0.75160000  1.0 -0.140099714
C  C116  1  0.45610000  0.54390000  0.64730000  1.0 -0.2692647203
C  C117  1  0.42238000  0.57762000  0.53820000  1.0 -0.2527133336
C  C118  1  0.43800000  0.56200000  0.70800000  1.0 0.0932487575
C  C119  1  0.40120000  0.59880000  0.82580000  1.0 -0.0952496464
C  C120  1  0.38700000  0.61300000  0.89490000  1.0 0.5302902201
C  C121  1  0.51780000  0.03560000  0.66910000  1.0 0.1774463367
C  C122  1  0.55068000  0.10136000  0.55990000  1.0 0.0422093455
C  C123  1  0.51098000  0.02196000  0.75160000  1.0 -0.140099714
C  C124  1  0.54390000  0.08780000  0.64730000  1.0 -0.2619743581
C  C125  1  0.57762000  0.15524000  0.53820000  1.0 -0.2527133336
C  C126  1  0.56200000  0.12400000  0.70800000  1.0 0.0932487575
C  C127  1  0.59880000  0.19760000  0.82580000  1.0 -0.0952496464
C  C128  1  0.61300000  0.22600000  0.89490000  1.0 0.5302902201
C  C129  1  0.96440000  0.48220000  0.66910000  1.0 0.1774463367
C  C130  1  0.89864000  0.44932000  0.55990000  1.0 0.0422093455
C  C131  1  0.97804000  0.48902000  0.75160000  1.0 -0.140099714
C  C132  1  0.91220000  0.45610000  0.64730000  1.0 -0.2619743581
C  C133  1  0.84476000  0.42238000  0.53820000  1.0 -0.2527133336
C  C134  1  0.87600000  0.43800000  0.70800000  1.0 0.0932487575
C  C135  1  0.80240000  0.40120000  0.82580000  1.0 -0.0952496464
C  C136  1  0.77400000  0.38700000  0.89490000  1.0 0.5302902201
C  C137  1  0.51780000  0.48220000  0.66910000  1.0 0.1774463367
C  C138  1  0.55068000  0.44932000  0.55990000  1.0 0.0422093455
C  C139  1  0.51098000  0.48902000  0.75160000  1.0 -0.140099714
C  C140  1  0.54390000  0.45610000  0.64730000  1.0 -0.2692647203
C  C141  1  0.57762000  0.42238000  0.53820000  1.0 -0.2527133336
C  C142  1  0.56200000  0.43800000  0.70800000  1.0 0.0932487575
C  C143  1  0.59880000  0.40120000  0.82580000  1.0 -0.0952496464
C  C144  1  0.61300000  0.38700000  0.89490000  1.0 0.5302902201
C  C145  1  0.46910000  0.23455000  0.00000000  1.0 0.0475901728
C  C146  1  0.42140000  0.21070000  0.00000000  1.0 -0.1106217202
C  C147  1  0.76545000  0.53090000  0.00000000  1.0 0.0475901728
C  C148  1  0.78930000  0.57860000  0.00000000  1.0 -0.1106217202
C  C149  1  0.76545000  0.23455000  0.00000000  1.0 0.0475901728
C  C150  1  0.78930000  0.21070000  0.00000000  1.0 -0.1106217202
C  C151  1  0.53090000  0.76545000  0.00000000  1.0 0.0475901728
C  C152  1  0.57860000  0.78930000  0.00000000  1.0 -0.1177777247
C  C153  1  0.23455000  0.46910000  0.00000000  1.0 0.0475901728
C  C154  1  0.21070000  0.42140000  0.00000000  1.0 -0.1177777247
C  C155  1  0.23455000  0.76545000  0.00000000  1.0 0.0475901728
C  C156  1  0.21070000  0.78930000  0.00000000  1.0 -0.1177777247
C  C157  1  0.47410000  0.15770000  0.00000000  1.0 -0.1934782649
C  C158  1  0.39230000  0.15280000  0.00000000  1.0 -0.1177777247
C  C159  1  0.49840000  0.20640000  0.00000000  1.0 -0.0203001108
C  C160  1  0.41690000  0.12910000  0.00000000  1.0 -0.1177777247
C  C161  1  0.68360000  0.52590000  0.00000000  1.0 -0.1934782649
C  C162  1  0.76050000  0.60770000  0.00000000  1.0 -0.1177777247
C  C163  1  0.70800000  0.50160000  0.00000000  1.0 -0.0203001108
C  C164  1  0.71220000  0.58310000  0.00000000  1.0 -0.1177777247
C  C165  1  0.84230000  0.31640000  0.00000000  1.0 -0.1934782649
C  C166  1  0.84720000  0.23950000  0.00000000  1.0 -0.1177777247
C  C167  1  0.79360000  0.29200000  0.00000000  1.0 -0.0203001108
C  C168  1  0.87090000  0.28780000  0.00000000  1.0 -0.1106217202
C  C169  1  0.52590000  0.84230000  0.00000000  1.0 -0.1951232414
C  C170  1  0.60770000  0.84720000  0.00000000  1.0 -0.1177777247
C  C171  1  0.50160000  0.79360000  0.00000000  1.0 -0.0203001108
C  C172  1  0.58310000  0.87090000  0.00000000  1.0 -0.1177777247
C  C173  1  0.31640000  0.47410000  0.00000000  1.0 -0.1934782649
C  C174  1  0.23950000  0.39230000  0.00000000  1.0 -0.1177777247
C  C175  1  0.29200000  0.49840000  0.00000000  1.0 -0.0203001108
C  C176  1  0.28780000  0.41690000  0.00000000  1.0 -0.1177777247
C  C177  1  0.15770000  0.68360000  0.00000000  1.0 -0.1934782649
C  C178  1  0.15280000  0.76050000  0.00000000  1.0 -0.1177777247
C  C179  1  0.20640000  0.70800000  0.00000000  1.0 -0.0203001108
C  C180  1  0.12910000  0.71220000  0.00000000  1.0 -0.1177777247
C  C181  1  0.31640000  0.84230000  0.00000000  1.0 -0.1951232414
C  C182  1  0.23950000  0.84720000  0.00000000  1.0 -0.1177777247
C  C183  1  0.29200000  0.79360000  0.00000000  1.0 -0.0203001108
C  C184  1  0.28780000  0.87090000  0.00000000  1.0 -0.1177777247
C  C185  1  0.15770000  0.47410000  0.00000000  1.0 -0.1934782649
C  C186  1  0.15280000  0.39230000  0.00000000  1.0 -0.1177777247
C  C187  1  0.20640000  0.49840000  0.00000000  1.0 -0.0203001108
C  C188  1  0.12910000  0.41690000  0.00000000  1.0 -0.1106217202
C  C189  1  0.52590000  0.68360000  0.00000000  1.0 -0.1934782649
C  C190  1  0.60770000  0.76050000  0.00000000  1.0 -0.1177777247
C  C191  1  0.50160000  0.70800000  0.00000000  1.0 -0.0203001108
C  C192  1  0.58310000  0.71220000  0.00000000  1.0 -0.1177777247
C  C193  1  0.68360000  0.15770000  0.00000000  1.0 -0.1934782649
C  C194  1  0.76050000  0.15280000  0.00000000  1.0 -0.1177777247
C  C195  1  0.70800000  0.20640000  0.00000000  1.0 -0.0203001108
C  C196  1  0.71220000  0.12910000  0.00000000  1.0 -0.1106217202
C  C197  1  0.84230000  0.52590000  0.00000000  1.0 -0.1934782649
C  C198  1  0.84720000  0.60770000  0.00000000  1.0 -0.1177777247
C  C199  1  0.79360000  0.50160000  0.00000000  1.0 -0.0203001108
C  C200  1  0.87090000  0.58310000  0.00000000  1.0 -0.1177777247
C  C201  1  0.47410000  0.31640000  0.00000000  1.0 -0.1934782649
C  C202  1  0.39230000  0.23950000  0.00000000  1.0 -0.1177777247
C  C203  1  0.49840000  0.29200000  0.00000000  1.0 -0.0203001108
C  C204  1  0.41690000  0.28780000  0.00000000  1.0 -0.1106217202
C  C205  1  0.58690000  0.01310000  0.50000000  1.0 -0.1106217202
C  C206  1  0.64210000  0.04770000  0.50000000  1.0 0.217710982
C  C207  1  0.71230000  0.14070000  0.50000000  1.0 -0.1106217202
C  C208  1  0.76280000  0.18730000  0.50000000  1.0 -0.2209951503
C  C209  1  0.42620000  0.41310000  0.50000000  1.0 -0.1106217202
C  C210  1  0.40560000  0.35790000  0.50000000  1.0 0.217710982
C  C211  1  0.42840000  0.28770000  0.50000000  1.0 -0.1106217202
C  C212  1  0.42450000  0.23720000  0.50000000  1.0 -0.2209951503
C  C213  1  0.98690000  0.57380000  0.50000000  1.0 -0.1106217202
C  C214  1  0.95230000  0.59440000  0.50000000  1.0 0.217710982
C  C215  1  0.85930000  0.57160000  0.50000000  1.0 -0.1106217202
C  C216  1  0.81270000  0.57550000  0.50000000  1.0 -0.2209951503
C  C217  1  0.41310000  0.98690000  0.50000000  1.0 -0.1106217202
C  C218  1  0.35790000  0.95230000  0.50000000  1.0 0.217710982
C  C219  1  0.28770000  0.85930000  0.50000000  1.0 -0.1177777247
C  C220  1  0.23720000  0.81270000  0.50000000  1.0 -0.2209951503
C  C221  1  0.57380000  0.58690000  0.50000000  1.0 -0.1106217202
C  C222  1  0.59440000  0.64210000  0.50000000  1.0 0.217710982
C  C223  1  0.57160000  0.71230000  0.50000000  1.0 -0.1106217202
C  C224  1  0.57550000  0.76280000  0.50000000  1.0 -0.2209951503
C  C225  1  0.01310000  0.42620000  0.50000000  1.0 -0.1106217202
C  C226  1  0.04770000  0.40560000  0.50000000  1.0 0.217710982
C  C227  1  0.14070000  0.42840000  0.50000000  1.0 -0.1177777247
C  C228  1  0.18730000  0.42450000  0.50000000  1.0 -0.2209951503
C  C229  1  0.57380000  0.98690000  0.50000000  1.0 -0.1106217202
C  C230  1  0.59440000  0.95230000  0.50000000  1.0 0.217710982
C  C231  1  0.57160000  0.85930000  0.50000000  1.0 -0.1106217202
C  C232  1  0.57550000  0.81270000  0.50000000  1.0 -0.2209951503
C  C233  1  0.01310000  0.58690000  0.50000000  1.0 -0.1106217202
C  C234  1  0.04770000  0.64210000  0.50000000  1.0 0.217710982
C  C235  1  0.14070000  0.71230000  0.50000000  1.0 -0.1106217202
C  C236  1  0.18730000  0.76280000  0.50000000  1.0 -0.2209951503
C  C237  1  0.41310000  0.42620000  0.50000000  1.0 -0.1106217202
C  C238  1  0.35790000  0.40560000  0.50000000  1.0 0.217710982
C  C239  1  0.28770000  0.42840000  0.50000000  1.0 -0.1106217202
C  C240  1  0.23720000  0.42450000  0.50000000  1.0 -0.2209951503
C  C241  1  0.42620000  0.01310000  0.50000000  1.0 -0.1106217202
C  C242  1  0.40560000  0.04770000  0.50000000  1.0 0.217710982
C  C243  1  0.42840000  0.14070000  0.50000000  1.0 -0.1106217202
C  C244  1  0.42450000  0.18730000  0.50000000  1.0 -0.2209951503
C  C245  1  0.98690000  0.41310000  0.50000000  1.0 -0.1106217202
C  C246  1  0.95230000  0.35790000  0.50000000  1.0 0.217710982
C  C247  1  0.85930000  0.28770000  0.50000000  1.0 -0.1177777247
C  C248  1  0.81270000  0.23720000  0.50000000  1.0 -0.2209951503
C  C249  1  0.58690000  0.57380000  0.50000000  1.0 -0.1106217202
C  C250  1  0.64210000  0.59440000  0.50000000  1.0 0.217710982
C  C251  1  0.71230000  0.57160000  0.50000000  1.0 -0.1177777247
C  C252  1  0.76280000  0.57550000  0.50000000  1.0 -0.2209951503
N  N1  1  0.50000000  0.00000000  0.37860000  1.0 -0.2800503035
N  N2  1  0.50000000  0.50000000  0.37860000  1.0 -0.2800503035
N  N3  1  0.00000000  0.50000000  0.37860000  1.0 -0.2800503035
N  N4  1  0.50000000  0.00000000  0.62140000  1.0 -0.2800503035
N  N5  1  0.00000000  0.50000000  0.62140000  1.0 -0.2800503035
N  N6  1  0.50000000  0.50000000  0.62140000  1.0 -0.2800503035
N  N7  1  0.53390000  0.06780000  0.50000000  1.0 -0.3820868294
N  N8  1  0.53390000  0.46610000  0.50000000  1.0 -0.3820868294
N  N9  1  0.93220000  0.46610000  0.50000000  1.0 -0.3820868294
N  N10  1  0.46610000  0.93220000  0.50000000  1.0 -0.3820868294
N  N11  1  0.46610000  0.53390000  0.50000000  1.0 -0.3820868294
N  N12  1  0.06780000  0.53390000  0.50000000  1.0 -0.3820868294
N  N13  1  0.44534000  0.18186000  0.00000000  1.0 -0.140099714
N  N14  1  0.73652000  0.55466000  0.00000000  1.0 -0.140099714
N  N15  1  0.81814000  0.26348000  0.00000000  1.0 -0.140099714
N  N16  1  0.55466000  0.81814000  0.00000000  1.0 -0.140099714
N  N17  1  0.26348000  0.44534000  0.00000000  1.0 -0.140099714
N  N18  1  0.18186000  0.73652000  0.00000000  1.0 -0.140099714
N  N19  1  0.26348000  0.81814000  0.00000000  1.0 -0.140099714
N  N20  1  0.18186000  0.44534000  0.00000000  1.0 -0.140099714
N  N21  1  0.55466000  0.73652000  0.00000000  1.0 -0.140099714
N  N22  1  0.73652000  0.18186000  0.00000000  1.0 -0.140099714
N  N23  1  0.81814000  0.55466000  0.00000000  1.0 -0.140099714
N  N24  1  0.44534000  0.26348000  0.00000000  1.0 -0.140099714
Cl  Cl1  1  0.68800000  0.16900000  0.50000000  1.0 -0.1318997124
Cl  Cl2  1  0.48100000  0.31200000  0.50000000  1.0 -0.1318997124
Cl  Cl3  1  0.83100000  0.51900000  0.50000000  1.0 -0.1318997124
Cl  Cl4  1  0.31200000  0.83100000  0.50000000  1.0 -0.1318997124
Cl  Cl5  1  0.51900000  0.68800000  0.50000000  1.0 -0.1318997124
Cl  Cl6  1  0.16900000  0.48100000  0.50000000  1.0 -0.1318997124
Cl  Cl7  1  0.51900000  0.83100000  0.50000000  1.0 -0.1318997124
Cl  Cl8  1  0.16900000  0.68800000  0.50000000  1.0 -0.1318997124
Cl  Cl9  1  0.31200000  0.48100000  0.50000000  1.0 -0.1318997124
Cl  Cl10  1  0.48100000  0.16900000  0.50000000  1.0 -0.1318997124
Cl  Cl11  1  0.83100000  0.31200000  0.50000000  1.0 -0.1318997124
Cl  Cl12  1  0.68800000  0.51900000  0.50000000  1.0 -0.1318997124
O  O1  1  0.58970000  0.25070000  0.08930000  1.0 -0.5730089257
O  O2  1  0.66100000  0.41030000  0.08930000  1.0 -0.5730089257
O  O3  1  0.74930000  0.33900000  0.08930000  1.0 -0.5730089257
O  O4  1  0.41030000  0.74930000  0.08930000  1.0 -0.5730089257
O  O5  1  0.33900000  0.58970000  0.08930000  1.0 -0.5730089257
O  O6  1  0.25070000  0.66100000  0.08930000  1.0 -0.5730089257
O  O7  1  0.33900000  0.74930000  0.91070000  1.0 -0.5730089257
O  O8  1  0.25070000  0.58970000  0.91070000  1.0 -0.5730089257
O  O9  1  0.41030000  0.66100000  0.91070000  1.0 -0.5730089257
O  O10  1  0.66100000  0.25070000  0.91070000  1.0 -0.5730089257
O  O11  1  0.74930000  0.41030000  0.91070000  1.0 -0.5730089257
O  O12  1  0.58970000  0.33900000  0.91070000  1.0 -0.5730089257
O  O13  1  0.41030000  0.74930000  0.91070000  1.0 -0.5730089257
O  O14  1  0.33900000  0.58970000  0.91070000  1.0 -0.5730089257
O  O15  1  0.25070000  0.66100000  0.91070000  1.0 -0.5730089257
O  O16  1  0.58970000  0.25070000  0.91070000  1.0 -0.5730089257
O  O17  1  0.66100000  0.41030000  0.91070000  1.0 -0.5730089257
O  O18  1  0.74930000  0.33900000  0.91070000  1.0 -0.5730089257
O  O19  1  0.66100000  0.25070000  0.08930000  1.0 -0.5730089257
O  O20  1  0.74930000  0.41030000  0.08930000  1.0 -0.5730089257
O  O21  1  0.58970000  0.33900000  0.08930000  1.0 -0.5730089257
O  O22  1  0.33900000  0.74930000  0.08930000  1.0 -0.5730089257
O  O23  1  0.25070000  0.58970000  0.08930000  1.0 -0.5730089257
O  O24  1  0.41030000  0.66100000  0.08930000  1.0 -0.5730089257
O  O25  1  0.75250000  0.24750000  0.50000000  1.0 -0.3585437546
O  O26  1  0.49500000  0.24750000  0.50000000  1.0 -0.3585437546
O  O27  1  0.75250000  0.50500000  0.50000000  1.0 -0.3585437546
O  O28  1  0.24750000  0.75250000  0.50000000  1.0 -0.3585437546
O  O29  1  0.50500000  0.75250000  0.50000000  1.0 -0.3585437546
O  O30  1  0.24750000  0.49500000  0.50000000  1.0 -0.3585437546
O  O31  1  0.51790000  0.25895000  0.00000000  1.0 -0.2692647203
O  O32  1  0.74105000  0.48210000  0.00000000  1.0 -0.2692647203
O  O33  1  0.74105000  0.25895000  0.00000000  1.0 -0.2692647203
O  O34  1  0.48210000  0.74105000  0.00000000  1.0 -0.2692647203
O  O35  1  0.25895000  0.51790000  0.00000000  1.0 -0.2692647203
O  O36  1  0.25895000  0.74105000  0.00000000  1.0 -0.2692647203
O  O37  1  0.66666667  0.33333333  0.00000000  1.0 -0.6927026371
O  O38  1  0.33333333  0.66666667  0.00000000  1.0 -0.6927026371
O  O39  1  0.62070000  0.06620000  0.50000000  1.0 -0.0873532928
O  O40  1  0.67490000  0.03130000  0.50000000  1.0 -0.3585437546
O  O41  1  0.65770000  0.10250000  0.50000000  1.0 -0.0203001108
O  O42  1  0.44550000  0.37930000  0.50000000  1.0 -0.0873532928
O  O43  1  0.35640000  0.32510000  0.50000000  1.0 -0.3585437546
O  O44  1  0.44480000  0.34230000  0.50000000  1.0 -0.0203001108
O  O45  1  0.93380000  0.55450000  0.50000000  1.0 -0.0873532928
O  O46  1  0.96870000  0.64360000  0.50000000  1.0 -0.3585437546
O  O47  1  0.89750000  0.55520000  0.50000000  1.0 -0.0203001108
O  O48  1  0.37930000  0.93380000  0.50000000  1.0 -0.0873532928
O  O49  1  0.32510000  0.96870000  0.50000000  1.0 -0.3585437546
O  O50  1  0.34230000  0.89750000  0.50000000  1.0 -0.0203001108
O  O51  1  0.55450000  0.62070000  0.50000000  1.0 -0.0873532928
O  O52  1  0.64360000  0.67490000  0.50000000  1.0 -0.3585437546
O  O53  1  0.55520000  0.65770000  0.50000000  1.0 -0.0203001108
O  O54  1  0.06620000  0.44550000  0.50000000  1.0 -0.0873532928
O  O55  1  0.03130000  0.35640000  0.50000000  1.0 -0.3585437546
O  O56  1  0.10250000  0.44480000  0.50000000  1.0 -0.0203001108
O  O57  1  0.55450000  0.93380000  0.50000000  1.0 -0.0873532928
O  O58  1  0.64360000  0.96870000  0.50000000  1.0 -0.3585437546
O  O59  1  0.55520000  0.89750000  0.50000000  1.0 -0.0203001108
O  O60  1  0.06620000  0.62070000  0.50000000  1.0 -0.0873532928
O  O61  1  0.03130000  0.67490000  0.50000000  1.0 -0.3585437546
O  O62  1  0.10250000  0.65770000  0.50000000  1.0 -0.0203001108
O  O63  1  0.37930000  0.44550000  0.50000000  1.0 -0.0873532928
O  O64  1  0.32510000  0.35640000  0.50000000  1.0 -0.3585437546
O  O65  1  0.34230000  0.44480000  0.50000000  1.0 -0.0203001108
O  O66  1  0.44550000  0.06620000  0.50000000  1.0 -0.0873532928
O  O67  1  0.35640000  0.03130000  0.50000000  1.0 -0.3585437546
O  O68  1  0.44480000  0.10250000  0.50000000  1.0 -0.0203001108
O  O69  1  0.93380000  0.37930000  0.50000000  1.0 -0.0873532928
O  O70  1  0.96870000  0.32510000  0.50000000  1.0 -0.3585437546
O  O71  1  0.89750000  0.34230000  0.50000000  1.0 -0.0203001108
O  O72  1  0.62070000  0.55450000  0.50000000  1.0 -0.0873532928
O  O73  1  0.67490000  0.64360000  0.50000000  1.0 -0.3585437546
O  O74  1  0.65770000  0.55520000  0.50000000  1.0 -0.0203001108
