# DDEC6 charges by PACMAN v1.1 (https://github.com/mtap-research/PACMAN-charge/)
data_ATOMUU_ASR_pacman
_symmetry_space_group_name_H-M   'P 1'
_cell_length_a   31.67000000
_cell_length_b   31.67000000
_cell_length_c   16.72700000
_cell_angle_alpha   90.00000000
_cell_angle_beta   90.00000000
_cell_angle_gamma   120.00000000
_symmetry_Int_Tables_number   1
_chemical_formula_structural   Ni6H208Ir3C192N12(Cl3O17)4
_chemical_formula_sum   'Ni6 H208 Ir3 C192 N12 Cl12 O68'
_cell_volume   14529.30415521
_cell_formula_units_Z   1
loop_
 _symmetry_equiv_pos_site_id
 _symmetry_equiv_pos_as_xyz
  1  'x, y, z'
loop_
 _atom_site_type_symbol
 _atom_site_label
 _atom_site_symmetry_multiplicity
 _atom_site_fract_x
 _atom_site_fract_y
 _atom_site_fract_z
 _atom_site_occupancy
 _atom_site_charge
Ni  Ni1  1  0.59031000  0.29515000  0.00000000  1.0 1.0242130338
Ni  Ni2  1  0.70485000  0.40969000  0.00000000  1.0 1.0266932308
Ni  Ni3  1  0.70484000  0.29515000  0.00000000  1.0 1.0266932308
Ni  Ni4  1  0.40969000  0.70485000  0.00000000  1.0 1.0266932308
Ni  Ni5  1  0.29515000  0.59031000  0.00000000  1.0 1.0266932308
Ni  Ni6  1  0.29516000  0.70485000  0.00000000  1.0 1.0266932308
H  H1  1  0.50850000  0.13790000  0.30170000  1.0 0.1225205354
H  H2  1  0.52680000  0.18130000  0.16940000  1.0 0.1225205354
H  H3  1  0.63030000  0.09550000  0.51380000  1.0 0.2404394526
H  H4  1  0.60410000  0.04710000  0.53770000  1.0 0.0843600226
H  H5  1  0.71970000  0.12600000  0.45360000  1.0 0.0725837173
H  H6  1  0.76610000  0.20660000  0.45220000  1.0 0.0475289911
H  H7  1  0.62940000  0.49150000  0.30170000  1.0 0.1225205354
H  H8  1  0.65450000  0.47320000  0.16940000  1.0 0.1225205354
H  H9  1  0.46520000  0.36970000  0.51380000  1.0 0.2404394526
H  H10  1  0.44300000  0.39590000  0.53770000  1.0 0.0843600226
H  H11  1  0.40630000  0.28030000  0.45360000  1.0 0.0725837173
H  H12  1  0.44050000  0.23390000  0.45220000  1.0 0.0475289911
H  H13  1  0.86210000  0.37060000  0.30170000  1.0 0.1225205354
H  H14  1  0.81870000  0.34550000  0.16940000  1.0 0.1225205354
H  H15  1  0.90450000  0.53480000  0.51380000  1.0 0.2404394526
H  H16  1  0.95290000  0.55700000  0.53770000  1.0 0.0843600226
H  H17  1  0.87400000  0.59370000  0.45360000  1.0 0.0725837173
H  H18  1  0.79340000  0.55950000  0.45220000  1.0 0.0475289911
H  H19  1  0.49150000  0.86210000  0.30170000  1.0 0.1225205354
H  H20  1  0.47320000  0.81870000  0.16940000  1.0 0.1225205354
H  H21  1  0.36970000  0.90450000  0.51380000  1.0 0.2404394526
H  H22  1  0.39590000  0.95290000  0.53770000  1.0 0.0843600226
H  H23  1  0.28030000  0.87400000  0.45360000  1.0 0.0725837173
H  H24  1  0.23390000  0.79340000  0.45220000  1.0 0.0475289911
H  H25  1  0.37060000  0.50850000  0.30170000  1.0 0.1225205354
H  H26  1  0.34550000  0.52680000  0.16940000  1.0 0.1225205354
H  H27  1  0.53480000  0.63030000  0.51380000  1.0 0.2404394526
H  H28  1  0.55700000  0.60410000  0.53770000  1.0 0.0843600226
H  H29  1  0.59370000  0.71970000  0.45360000  1.0 0.0725837173
H  H30  1  0.55950000  0.76610000  0.45220000  1.0 0.0475289911
H  H31  1  0.13790000  0.62940000  0.30170000  1.0 0.1225205354
H  H32  1  0.18130000  0.65450000  0.16940000  1.0 0.1225205354
H  H33  1  0.09550000  0.46520000  0.51380000  1.0 0.2404394526
H  H34  1  0.04710000  0.44300000  0.53770000  1.0 0.0843600226
H  H35  1  0.12600000  0.40630000  0.45360000  1.0 0.0725837173
H  H36  1  0.20660000  0.44050000  0.45220000  1.0 0.0475289911
H  H37  1  0.37060000  0.86210000  0.69830000  1.0 0.1225205354
H  H38  1  0.34550000  0.81870000  0.83060000  1.0 0.1225205354
H  H39  1  0.53480000  0.90450000  0.48620000  1.0 0.2404394526
H  H40  1  0.55700000  0.95290000  0.46230000  1.0 0.0843600226
H  H41  1  0.59370000  0.87400000  0.54640000  1.0 0.0725837173
H  H42  1  0.55950000  0.79340000  0.54780000  1.0 0.0475289911
H  H43  1  0.13790000  0.50850000  0.69830000  1.0 0.1225205354
H  H44  1  0.18130000  0.52680000  0.83060000  1.0 0.1225205354
H  H45  1  0.09550000  0.63030000  0.48620000  1.0 0.2404394526
H  H46  1  0.04710000  0.60410000  0.46230000  1.0 0.0843600226
H  H47  1  0.12600000  0.71970000  0.54640000  1.0 0.0725837173
H  H48  1  0.20660000  0.76610000  0.54780000  1.0 0.0475289911
H  H49  1  0.49150000  0.62940000  0.69830000  1.0 0.1225205354
H  H50  1  0.47320000  0.65450000  0.83060000  1.0 0.1225205354
H  H51  1  0.36970000  0.46520000  0.48620000  1.0 0.2404394526
H  H52  1  0.39590000  0.44300000  0.46230000  1.0 0.0843600226
H  H53  1  0.28030000  0.40630000  0.54640000  1.0 0.0725837173
H  H54  1  0.23390000  0.44050000  0.54780000  1.0 0.0475289911
H  H55  1  0.62940000  0.13790000  0.69830000  1.0 0.1225205354
H  H56  1  0.65450000  0.18130000  0.83060000  1.0 0.1225205354
H  H57  1  0.46520000  0.09550000  0.48620000  1.0 0.2404394526
H  H58  1  0.44300000  0.04710000  0.46230000  1.0 0.0843600226
H  H59  1  0.40630000  0.12600000  0.54640000  1.0 0.0725837173
H  H60  1  0.44050000  0.20660000  0.54780000  1.0 0.0475289911
H  H61  1  0.86210000  0.49150000  0.69830000  1.0 0.1225205354
H  H62  1  0.81870000  0.47320000  0.83060000  1.0 0.1225205354
H  H63  1  0.90450000  0.36970000  0.48620000  1.0 0.2404394526
H  H64  1  0.95290000  0.39590000  0.46230000  1.0 0.0843600226
H  H65  1  0.87400000  0.28030000  0.54640000  1.0 0.0725837173
H  H66  1  0.79340000  0.23390000  0.54780000  1.0 0.0475289911
H  H67  1  0.50850000  0.37060000  0.69830000  1.0 0.1225205354
H  H68  1  0.52680000  0.34550000  0.83060000  1.0 0.1225205354
H  H69  1  0.63030000  0.53480000  0.48620000  1.0 0.2404394526
H  H70  1  0.60410000  0.55700000  0.46230000  1.0 0.0843600226
H  H71  1  0.71970000  0.59370000  0.54640000  1.0 0.0725837173
H  H72  1  0.76610000  0.55950000  0.54780000  1.0 0.0475289911
H  H73  1  0.49150000  0.86210000  0.69830000  1.0 0.1225205354
H  H74  1  0.47320000  0.81870000  0.83060000  1.0 0.1225205354
H  H75  1  0.36970000  0.90450000  0.48620000  1.0 0.2404394526
H  H76  1  0.39590000  0.95290000  0.46230000  1.0 0.0843600226
H  H77  1  0.28030000  0.87400000  0.54640000  1.0 0.0725837173
H  H78  1  0.23390000  0.79340000  0.54780000  1.0 0.0475289911
H  H79  1  0.37060000  0.50850000  0.69830000  1.0 0.1225205354
H  H80  1  0.34550000  0.52680000  0.83060000  1.0 0.1225205354
H  H81  1  0.53480000  0.63030000  0.48620000  1.0 0.2404394526
H  H82  1  0.55700000  0.60410000  0.46230000  1.0 0.0843600226
H  H83  1  0.59370000  0.71970000  0.54640000  1.0 0.0725837173
H  H84  1  0.55950000  0.76610000  0.54780000  1.0 0.0475289911
H  H85  1  0.13790000  0.62940000  0.69830000  1.0 0.1225205354
H  H86  1  0.18130000  0.65450000  0.83060000  1.0 0.1225205354
H  H87  1  0.09550000  0.46520000  0.48620000  1.0 0.2404394526
H  H88  1  0.04710000  0.44300000  0.46230000  1.0 0.0843600226
H  H89  1  0.12600000  0.40630000  0.54640000  1.0 0.0725837173
H  H90  1  0.20660000  0.44050000  0.54780000  1.0 0.0475289911
H  H91  1  0.50850000  0.13790000  0.69830000  1.0 0.1225205354
H  H92  1  0.52680000  0.18130000  0.83060000  1.0 0.1225205354
H  H93  1  0.63030000  0.09550000  0.48620000  1.0 0.2404394526
H  H94  1  0.60410000  0.04710000  0.46230000  1.0 0.0843600226
H  H95  1  0.71970000  0.12600000  0.54640000  1.0 0.0725837173
H  H96  1  0.76610000  0.20660000  0.54780000  1.0 0.0475289911
H  H97  1  0.62940000  0.49150000  0.69830000  1.0 0.1225205354
H  H98  1  0.65450000  0.47320000  0.83060000  1.0 0.1225205354
H  H99  1  0.46520000  0.36970000  0.48620000  1.0 0.2404394526
H  H100  1  0.44300000  0.39590000  0.46230000  1.0 0.0843600226
H  H101  1  0.40630000  0.28030000  0.54640000  1.0 0.0725837173
H  H102  1  0.44050000  0.23390000  0.54780000  1.0 0.0475289911
H  H103  1  0.86210000  0.37060000  0.69830000  1.0 0.1225205354
H  H104  1  0.81870000  0.34550000  0.83060000  1.0 0.1225205354
H  H105  1  0.90450000  0.53480000  0.48620000  1.0 0.2404394526
H  H106  1  0.95290000  0.55700000  0.46230000  1.0 0.0843600226
H  H107  1  0.87400000  0.59370000  0.54640000  1.0 0.0725837173
H  H108  1  0.79340000  0.55950000  0.54780000  1.0 0.0475289911
H  H109  1  0.62940000  0.13790000  0.30170000  1.0 0.1225205354
H  H110  1  0.65450000  0.18130000  0.16940000  1.0 0.1225205354
H  H111  1  0.46520000  0.09550000  0.51380000  1.0 0.2404394526
H  H112  1  0.44300000  0.04710000  0.53770000  1.0 0.0843600226
H  H113  1  0.40630000  0.12600000  0.45360000  1.0 0.0725837173
H  H114  1  0.44050000  0.20660000  0.45220000  1.0 0.0475289911
H  H115  1  0.86210000  0.49150000  0.30170000  1.0 0.1225205354
H  H116  1  0.81870000  0.47320000  0.16940000  1.0 0.1225205354
H  H117  1  0.90450000  0.36970000  0.51380000  1.0 0.2404394526
H  H118  1  0.95290000  0.39590000  0.53770000  1.0 0.0843600226
H  H119  1  0.87400000  0.28030000  0.45360000  1.0 0.0725837173
H  H120  1  0.79340000  0.23390000  0.45220000  1.0 0.0475289911
H  H121  1  0.50850000  0.37060000  0.30170000  1.0 0.1225205354
H  H122  1  0.52680000  0.34550000  0.16940000  1.0 0.1225205354
H  H123  1  0.63030000  0.53480000  0.51380000  1.0 0.2404394526
H  H124  1  0.60410000  0.55700000  0.53770000  1.0 0.0843600226
H  H125  1  0.71970000  0.59370000  0.45360000  1.0 0.0725837173
H  H126  1  0.76610000  0.55950000  0.45220000  1.0 0.0475289911
H  H127  1  0.37060000  0.86210000  0.30170000  1.0 0.1225205354
H  H128  1  0.34550000  0.81870000  0.16940000  1.0 0.1225205354
H  H129  1  0.53480000  0.90450000  0.51380000  1.0 0.2404394526
H  H130  1  0.55700000  0.95290000  0.53770000  1.0 0.0843600226
H  H131  1  0.59370000  0.87400000  0.45360000  1.0 0.0725837173
H  H132  1  0.55950000  0.79340000  0.45220000  1.0 0.0475289911
H  H133  1  0.13790000  0.50850000  0.30170000  1.0 0.1225205354
H  H134  1  0.18130000  0.52680000  0.16940000  1.0 0.1225205354
H  H135  1  0.09550000  0.63030000  0.51380000  1.0 0.2404394526
H  H136  1  0.04710000  0.60410000  0.53770000  1.0 0.0843600226
H  H137  1  0.12600000  0.71970000  0.45360000  1.0 0.0725837173
H  H138  1  0.20660000  0.76610000  0.45220000  1.0 0.0475289911
H  H139  1  0.49150000  0.62940000  0.30170000  1.0 0.1225205354
H  H140  1  0.47320000  0.65450000  0.16940000  1.0 0.1225205354
H  H141  1  0.36970000  0.46520000  0.51380000  1.0 0.2404394526
H  H142  1  0.39590000  0.44300000  0.53770000  1.0 0.0843600226
H  H143  1  0.28030000  0.40630000  0.45360000  1.0 0.0725837173
H  H144  1  0.23390000  0.44050000  0.45220000  1.0 0.0475289911
H  H145  1  0.52150000  0.04300000  0.20330000  1.0 0.1374637662
H  H146  1  0.59130000  0.18260000  0.42670000  1.0 0.1466134443
H  H147  1  0.52150000  0.47850000  0.20330000  1.0 0.1374637662
H  H148  1  0.59130000  0.40870000  0.42670000  1.0 0.1466134443
H  H149  1  0.95700000  0.47850000  0.20330000  1.0 0.1374637662
H  H150  1  0.81740000  0.40870000  0.42670000  1.0 0.1466134443
H  H151  1  0.47850000  0.95700000  0.20330000  1.0 0.1374637662
H  H152  1  0.40870000  0.81740000  0.42670000  1.0 0.1466134443
H  H153  1  0.47850000  0.52150000  0.20330000  1.0 0.1374637662
H  H154  1  0.40870000  0.59130000  0.42670000  1.0 0.1466134443
H  H155  1  0.04300000  0.52150000  0.20330000  1.0 0.1374637662
H  H156  1  0.18260000  0.59130000  0.42670000  1.0 0.1466134443
H  H157  1  0.47850000  0.95700000  0.79670000  1.0 0.1374637662
H  H158  1  0.40870000  0.81740000  0.57330000  1.0 0.1466134443
H  H159  1  0.04300000  0.52150000  0.79670000  1.0 0.1374637662
H  H160  1  0.18260000  0.59130000  0.57330000  1.0 0.1466134443
H  H161  1  0.47850000  0.52150000  0.79670000  1.0 0.1374637662
H  H162  1  0.40870000  0.59130000  0.57330000  1.0 0.1466134443
H  H163  1  0.52150000  0.04300000  0.79670000  1.0 0.1374637662
H  H164  1  0.59130000  0.18260000  0.57330000  1.0 0.1466134443
H  H165  1  0.95700000  0.47850000  0.79670000  1.0 0.1374637662
H  H166  1  0.81740000  0.40870000  0.57330000  1.0 0.1466134443
H  H167  1  0.52150000  0.47850000  0.79670000  1.0 0.1374637662
H  H168  1  0.59130000  0.40870000  0.57330000  1.0 0.1466134443
H  H169  1  0.73990000  0.21680000  0.50000000  1.0 0.0843600226
H  H170  1  0.78830000  0.17840000  0.50000000  1.0 0.0725837173
H  H171  1  0.47690000  0.26010000  0.50000000  1.0 0.0858692332
H  H172  1  0.39010000  0.21170000  0.50000000  1.0 0.0725837173
H  H173  1  0.78320000  0.52310000  0.50000000  1.0 0.0843600226
H  H174  1  0.82160000  0.60990000  0.50000000  1.0 0.0725837173
H  H175  1  0.26010000  0.78320000  0.50000000  1.0 0.0843600226
H  H176  1  0.21170000  0.82160000  0.50000000  1.0 0.0725837173
H  H177  1  0.52310000  0.73990000  0.50000000  1.0 0.0843600226
H  H178  1  0.60990000  0.78830000  0.50000000  1.0 0.0725837173
H  H179  1  0.21680000  0.47690000  0.50000000  1.0 0.0843600226
H  H180  1  0.17840000  0.39010000  0.50000000  1.0 0.0725837173
H  H181  1  0.52310000  0.78320000  0.50000000  1.0 0.0843600226
H  H182  1  0.60990000  0.82160000  0.50000000  1.0 0.0725837173
H  H183  1  0.21680000  0.73990000  0.50000000  1.0 0.0843600226
H  H184  1  0.17840000  0.78830000  0.50000000  1.0 0.0725837173
H  H185  1  0.26010000  0.47690000  0.50000000  1.0 0.0843600226
H  H186  1  0.21170000  0.39010000  0.50000000  1.0 0.0725837173
H  H187  1  0.47690000  0.21680000  0.50000000  1.0 0.0843600226
H  H188  1  0.39010000  0.17840000  0.50000000  1.0 0.0725837173
H  H189  1  0.78320000  0.26010000  0.50000000  1.0 0.0858692332
H  H190  1  0.82160000  0.21170000  0.50000000  1.0 0.0725837173
H  H191  1  0.73990000  0.52310000  0.50000000  1.0 0.0858692332
H  H192  1  0.78830000  0.60990000  0.50000000  1.0 0.0725837173
H  H193  1  0.74355000  0.25645000  0.54150000  1.0 0.1930253385
H  H194  1  0.51290000  0.25645000  0.54150000  1.0 0.1950595109
H  H195  1  0.74355000  0.48710000  0.54150000  1.0 0.1950595109
H  H196  1  0.25645000  0.74355000  0.54150000  1.0 0.1930253385
H  H197  1  0.48710000  0.74355000  0.54150000  1.0 0.1930253385
H  H198  1  0.25645000  0.51290000  0.54150000  1.0 0.1930253385
H  H199  1  0.48710000  0.74355000  0.45850000  1.0 0.1930253385
H  H200  1  0.25645000  0.74355000  0.45850000  1.0 0.1930253385
H  H201  1  0.25645000  0.51290000  0.45850000  1.0 0.1930253385
H  H202  1  0.51290000  0.25645000  0.45850000  1.0 0.1950595109
H  H203  1  0.74355000  0.25645000  0.45850000  1.0 0.1930253385
H  H204  1  0.74355000  0.48710000  0.45850000  1.0 0.1950595109
H  H205  1  0.66666667  0.33333333  0.94920000  1.0 0.4287488638
H  H206  1  0.33333333  0.66666667  0.94920000  1.0 0.4287488638
H  H207  1  0.33333333  0.66666667  0.05080000  1.0 0.4287488638
H  H208  1  0.66666667  0.33333333  0.05080000  1.0 0.4287488638
Ir  Ir1  1  0.50000000  0.00000000  0.50000000  1.0 0.5604329684
Ir  Ir2  1  0.50000000  0.50000000  0.50000000  1.0 0.5604329684
Ir  Ir3  1  0.00000000  0.50000000  0.50000000  1.0 0.5604329684
C  C1  1  0.53610000  0.14380000  0.27090000  1.0 -0.1560800606
C  C2  1  0.54980000  0.17600000  0.19760000  1.0 -0.0392654133
C  C3  1  0.60770000  0.46390000  0.27090000  1.0 -0.1560800606
C  C4  1  0.62620000  0.45020000  0.19760000  1.0 -0.0392654133
C  C5  1  0.85620000  0.39230000  0.27090000  1.0 -0.1560800606
C  C6  1  0.82400000  0.37380000  0.19760000  1.0 -0.0392654133
C  C7  1  0.46390000  0.85620000  0.27090000  1.0 -0.1560800606
C  C8  1  0.45020000  0.82400000  0.19760000  1.0 -0.0392654133
C  C9  1  0.39230000  0.53610000  0.27090000  1.0 -0.1560800606
C  C10  1  0.37380000  0.54980000  0.19760000  1.0 -0.0392654133
C  C11  1  0.14380000  0.60770000  0.27090000  1.0 -0.1560800606
C  C12  1  0.17600000  0.62620000  0.19760000  1.0 -0.0392654133
C  C13  1  0.39230000  0.85620000  0.72910000  1.0 -0.1560800606
C  C14  1  0.37380000  0.82400000  0.80240000  1.0 -0.0392654133
C  C15  1  0.14380000  0.53610000  0.72910000  1.0 -0.1560800606
C  C16  1  0.17600000  0.54980000  0.80240000  1.0 -0.0392654133
C  C17  1  0.46390000  0.60770000  0.72910000  1.0 -0.1560800606
C  C18  1  0.45020000  0.62620000  0.80240000  1.0 -0.0392654133
C  C19  1  0.60770000  0.14380000  0.72910000  1.0 -0.1560800606
C  C20  1  0.62620000  0.17600000  0.80240000  1.0 -0.0392654133
C  C21  1  0.85620000  0.46390000  0.72910000  1.0 -0.1560800606
C  C22  1  0.82400000  0.45020000  0.80240000  1.0 -0.0392654133
C  C23  1  0.53610000  0.39230000  0.72910000  1.0 -0.1560800606
C  C24  1  0.54980000  0.37380000  0.80240000  1.0 -0.0392654133
C  C25  1  0.46390000  0.85620000  0.72910000  1.0 -0.1560800606
C  C26  1  0.45020000  0.82400000  0.80240000  1.0 -0.0392654133
C  C27  1  0.39230000  0.53610000  0.72910000  1.0 -0.1560800606
C  C28  1  0.37380000  0.54980000  0.80240000  1.0 -0.0392654133
C  C29  1  0.14380000  0.60770000  0.72910000  1.0 -0.1560800606
C  C30  1  0.17600000  0.62620000  0.80240000  1.0 -0.0392654133
C  C31  1  0.53610000  0.14380000  0.72910000  1.0 -0.1560800606
C  C32  1  0.54980000  0.17600000  0.80240000  1.0 -0.0392654133
C  C33  1  0.60770000  0.46390000  0.72910000  1.0 -0.1560800606
C  C34  1  0.62620000  0.45020000  0.80240000  1.0 -0.0392654133
C  C35  1  0.85620000  0.39230000  0.72910000  1.0 -0.1560800606
C  C36  1  0.82400000  0.37380000  0.80240000  1.0 -0.0392654133
C  C37  1  0.60770000  0.14380000  0.27090000  1.0 -0.1560800606
C  C38  1  0.62620000  0.17600000  0.19760000  1.0 -0.0392654133
C  C39  1  0.85620000  0.46390000  0.27090000  1.0 -0.1560800606
C  C40  1  0.82400000  0.45020000  0.19760000  1.0 -0.0392654133
C  C41  1  0.53610000  0.39230000  0.27090000  1.0 -0.1560800606
C  C42  1  0.54980000  0.37380000  0.19760000  1.0 -0.0392654133
C  C43  1  0.39230000  0.85620000  0.27090000  1.0 -0.1560800606
C  C44  1  0.37380000  0.82400000  0.19760000  1.0 -0.0392654133
C  C45  1  0.14380000  0.53610000  0.27090000  1.0 -0.1560800606
C  C46  1  0.17600000  0.54980000  0.19760000  1.0 -0.0392654133
C  C47  1  0.46390000  0.60770000  0.27090000  1.0 -0.1560800606
C  C48  1  0.45020000  0.62620000  0.19760000  1.0 -0.0392654133
C  C49  1  0.51780000  0.03560000  0.33090000  1.0 0.1767028326
C  C50  1  0.55068000  0.10136000  0.44010000  1.0 0.0475289911
C  C51  1  0.51098000  0.02196000  0.24840000  1.0 -0.137370478
C  C52  1  0.54390000  0.08780000  0.35270000  1.0 -0.2593682429
C  C53  1  0.57762000  0.15524000  0.46180000  1.0 -0.253428352
C  C54  1  0.56200000  0.12400000  0.29200000  1.0 0.1017286856
C  C55  1  0.59880000  0.19760000  0.17420000  1.0 -0.107800218
C  C56  1  0.61300000  0.22600000  0.10510000  1.0 0.5450877129
C  C57  1  0.51780000  0.48220000  0.33090000  1.0 0.1767028326
C  C58  1  0.55068000  0.44932000  0.44010000  1.0 0.0475289911
C  C59  1  0.51098000  0.48902000  0.24840000  1.0 -0.137370478
C  C60  1  0.54390000  0.45610000  0.35270000  1.0 -0.2593682429
C  C61  1  0.57762000  0.42238000  0.46180000  1.0 -0.253428352
C  C62  1  0.56200000  0.43800000  0.29200000  1.0 0.1017286856
C  C63  1  0.59880000  0.40120000  0.17420000  1.0 -0.107800218
C  C64  1  0.61300000  0.38700000  0.10510000  1.0 0.5450877129
C  C65  1  0.96440000  0.48220000  0.33090000  1.0 0.1767028326
C  C66  1  0.89864000  0.44932000  0.44010000  1.0 0.0475289911
C  C67  1  0.97804000  0.48902000  0.24840000  1.0 -0.137370478
C  C68  1  0.91220000  0.45610000  0.35270000  1.0 -0.2593682429
C  C69  1  0.84476000  0.42238000  0.46180000  1.0 -0.253428352
C  C70  1  0.87600000  0.43800000  0.29200000  1.0 0.1017286856
C  C71  1  0.80240000  0.40120000  0.17420000  1.0 -0.107800218
C  C72  1  0.77400000  0.38700000  0.10510000  1.0 0.5450877129
C  C73  1  0.48220000  0.96440000  0.33090000  1.0 0.1767028326
C  C74  1  0.44932000  0.89864000  0.44010000  1.0 0.0475289911
C  C75  1  0.48902000  0.97804000  0.24840000  1.0 -0.137370478
C  C76  1  0.45610000  0.91220000  0.35270000  1.0 -0.2593682429
C  C77  1  0.42238000  0.84476000  0.46180000  1.0 -0.253428352
C  C78  1  0.43800000  0.87600000  0.29200000  1.0 0.1017286856
C  C79  1  0.40120000  0.80240000  0.17420000  1.0 -0.107800218
C  C80  1  0.38700000  0.77400000  0.10510000  1.0 0.5450877129
C  C81  1  0.48220000  0.51780000  0.33090000  1.0 0.1767028326
C  C82  1  0.44932000  0.55068000  0.44010000  1.0 0.0475289911
C  C83  1  0.48902000  0.51098000  0.24840000  1.0 -0.137370478
C  C84  1  0.45610000  0.54390000  0.35270000  1.0 -0.2593682429
C  C85  1  0.42238000  0.57762000  0.46180000  1.0 -0.253428352
C  C86  1  0.43800000  0.56200000  0.29200000  1.0 0.1017286856
C  C87  1  0.40120000  0.59880000  0.17420000  1.0 -0.107800218
C  C88  1  0.38700000  0.61300000  0.10510000  1.0 0.5450877129
C  C89  1  0.03560000  0.51780000  0.33090000  1.0 0.1767028326
C  C90  1  0.10136000  0.55068000  0.44010000  1.0 0.0475289911
C  C91  1  0.02196000  0.51098000  0.24840000  1.0 -0.137370478
C  C92  1  0.08780000  0.54390000  0.35270000  1.0 -0.2593682429
C  C93  1  0.15524000  0.57762000  0.46180000  1.0 -0.253428352
C  C94  1  0.12400000  0.56200000  0.29200000  1.0 0.1017286856
C  C95  1  0.19760000  0.59880000  0.17420000  1.0 -0.107800218
C  C96  1  0.22600000  0.61300000  0.10510000  1.0 0.5450877129
C  C97  1  0.48220000  0.96440000  0.66910000  1.0 0.1767028326
C  C98  1  0.44932000  0.89864000  0.55990000  1.0 0.0475289911
C  C99  1  0.48902000  0.97804000  0.75160000  1.0 -0.137370478
C  C100  1  0.45610000  0.91220000  0.64730000  1.0 -0.2593682429
C  C101  1  0.42238000  0.84476000  0.53820000  1.0 -0.253428352
C  C102  1  0.43800000  0.87600000  0.70800000  1.0 0.1017286856
C  C103  1  0.40120000  0.80240000  0.82580000  1.0 -0.107800218
C  C104  1  0.38700000  0.77400000  0.89490000  1.0 0.5450877129
C  C105  1  0.03560000  0.51780000  0.66910000  1.0 0.1767028326
C  C106  1  0.10136000  0.55068000  0.55990000  1.0 0.0475289911
C  C107  1  0.02196000  0.51098000  0.75160000  1.0 -0.137370478
C  C108  1  0.08780000  0.54390000  0.64730000  1.0 -0.2593682429
C  C109  1  0.15524000  0.57762000  0.53820000  1.0 -0.253428352
C  C110  1  0.12400000  0.56200000  0.70800000  1.0 0.1017286856
C  C111  1  0.19760000  0.59880000  0.82580000  1.0 -0.107800218
C  C112  1  0.22600000  0.61300000  0.89490000  1.0 0.5450877129
C  C113  1  0.48220000  0.51780000  0.66910000  1.0 0.1767028326
C  C114  1  0.44932000  0.55068000  0.55990000  1.0 0.0475289911
C  C115  1  0.48902000  0.51098000  0.75160000  1.0 -0.137370478
C  C116  1  0.45610000  0.54390000  0.64730000  1.0 -0.2593682429
C  C117  1  0.42238000  0.57762000  0.53820000  1.0 -0.253428352
C  C118  1  0.43800000  0.56200000  0.70800000  1.0 0.1017286856
C  C119  1  0.40120000  0.59880000  0.82580000  1.0 -0.107800218
C  C120  1  0.38700000  0.61300000  0.89490000  1.0 0.5450877129
C  C121  1  0.51780000  0.03560000  0.66910000  1.0 0.1767028326
C  C122  1  0.55068000  0.10136000  0.55990000  1.0 0.0475289911
C  C123  1  0.51098000  0.02196000  0.75160000  1.0 -0.137370478
C  C124  1  0.54390000  0.08780000  0.64730000  1.0 -0.2593682429
C  C125  1  0.57762000  0.15524000  0.53820000  1.0 -0.253428352
C  C126  1  0.56200000  0.12400000  0.70800000  1.0 0.1017286856
C  C127  1  0.59880000  0.19760000  0.82580000  1.0 -0.107800218
C  C128  1  0.61300000  0.22600000  0.89490000  1.0 0.5450877129
C  C129  1  0.96440000  0.48220000  0.66910000  1.0 0.1767028326
C  C130  1  0.89864000  0.44932000  0.55990000  1.0 0.0475289911
C  C131  1  0.97804000  0.48902000  0.75160000  1.0 -0.137370478
C  C132  1  0.91220000  0.45610000  0.64730000  1.0 -0.2593682429
C  C133  1  0.84476000  0.42238000  0.53820000  1.0 -0.253428352
C  C134  1  0.87600000  0.43800000  0.70800000  1.0 0.1017286856
C  C135  1  0.80240000  0.40120000  0.82580000  1.0 -0.107800218
C  C136  1  0.77400000  0.38700000  0.89490000  1.0 0.5450877129
C  C137  1  0.51780000  0.48220000  0.66910000  1.0 0.1767028326
C  C138  1  0.55068000  0.44932000  0.55990000  1.0 0.0475289911
C  C139  1  0.51098000  0.48902000  0.75160000  1.0 -0.137370478
C  C140  1  0.54390000  0.45610000  0.64730000  1.0 -0.2593682429
C  C141  1  0.57762000  0.42238000  0.53820000  1.0 -0.253428352
C  C142  1  0.56200000  0.43800000  0.70800000  1.0 0.1017286856
C  C143  1  0.59880000  0.40120000  0.82580000  1.0 -0.107800218
C  C144  1  0.61300000  0.38700000  0.89490000  1.0 0.5450877129
C  C145  1  0.58690000  0.01310000  0.50000000  1.0 -0.107800218
C  C146  1  0.64210000  0.04770000  0.50000000  1.0 0.2308804968
C  C147  1  0.71230000  0.14070000  0.50000000  1.0 -0.107800218
C  C148  1  0.76280000  0.18730000  0.50000000  1.0 -0.2196395903
C  C149  1  0.42620000  0.41310000  0.50000000  1.0 -0.107800218
C  C150  1  0.40560000  0.35790000  0.50000000  1.0 0.2308804968
C  C151  1  0.42840000  0.28770000  0.50000000  1.0 -0.107800218
C  C152  1  0.42450000  0.23720000  0.50000000  1.0 -0.2196395903
C  C153  1  0.98690000  0.57380000  0.50000000  1.0 -0.107800218
C  C154  1  0.95230000  0.59440000  0.50000000  1.0 0.2308804968
C  C155  1  0.85930000  0.57160000  0.50000000  1.0 -0.107800218
C  C156  1  0.81270000  0.57550000  0.50000000  1.0 -0.2196395903
C  C157  1  0.41310000  0.98690000  0.50000000  1.0 -0.107800218
C  C158  1  0.35790000  0.95230000  0.50000000  1.0 0.2308804968
C  C159  1  0.28770000  0.85930000  0.50000000  1.0 -0.107800218
C  C160  1  0.23720000  0.81270000  0.50000000  1.0 -0.2196395903
C  C161  1  0.57380000  0.58690000  0.50000000  1.0 -0.107800218
C  C162  1  0.59440000  0.64210000  0.50000000  1.0 0.2308804968
C  C163  1  0.57160000  0.71230000  0.50000000  1.0 -0.107800218
C  C164  1  0.57550000  0.76280000  0.50000000  1.0 -0.2196395903
C  C165  1  0.01310000  0.42620000  0.50000000  1.0 -0.107800218
C  C166  1  0.04770000  0.40560000  0.50000000  1.0 0.2308804968
C  C167  1  0.14070000  0.42840000  0.50000000  1.0 -0.107800218
C  C168  1  0.18730000  0.42450000  0.50000000  1.0 -0.2196395903
C  C169  1  0.57380000  0.98690000  0.50000000  1.0 -0.107800218
C  C170  1  0.59440000  0.95230000  0.50000000  1.0 0.2308804968
C  C171  1  0.57160000  0.85930000  0.50000000  1.0 -0.107800218
C  C172  1  0.57550000  0.81270000  0.50000000  1.0 -0.2196395903
C  C173  1  0.01310000  0.58690000  0.50000000  1.0 -0.107800218
C  C174  1  0.04770000  0.64210000  0.50000000  1.0 0.2308804968
C  C175  1  0.14070000  0.71230000  0.50000000  1.0 -0.107800218
C  C176  1  0.18730000  0.76280000  0.50000000  1.0 -0.2196395903
C  C177  1  0.41310000  0.42620000  0.50000000  1.0 -0.107800218
C  C178  1  0.35790000  0.40560000  0.50000000  1.0 0.2308804968
C  C179  1  0.28770000  0.42840000  0.50000000  1.0 -0.107800218
C  C180  1  0.23720000  0.42450000  0.50000000  1.0 -0.2196395903
C  C181  1  0.42620000  0.01310000  0.50000000  1.0 -0.107800218
C  C182  1  0.40560000  0.04770000  0.50000000  1.0 0.2308804968
C  C183  1  0.42840000  0.14070000  0.50000000  1.0 -0.107800218
C  C184  1  0.42450000  0.18730000  0.50000000  1.0 -0.2196395903
C  C185  1  0.98690000  0.41310000  0.50000000  1.0 -0.107800218
C  C186  1  0.95230000  0.35790000  0.50000000  1.0 0.2308804968
C  C187  1  0.85930000  0.28770000  0.50000000  1.0 -0.107800218
C  C188  1  0.81270000  0.23720000  0.50000000  1.0 -0.2196395903
C  C189  1  0.58690000  0.57380000  0.50000000  1.0 -0.107800218
C  C190  1  0.64210000  0.59440000  0.50000000  1.0 0.2308804968
C  C191  1  0.71230000  0.57160000  0.50000000  1.0 -0.107800218
C  C192  1  0.76280000  0.57550000  0.50000000  1.0 -0.2196395903
N  N1  1  0.50000000  0.00000000  0.37860000  1.0 -0.2785841943
N  N2  1  0.50000000  0.50000000  0.37860000  1.0 -0.2785841943
N  N3  1  0.00000000  0.50000000  0.37860000  1.0 -0.2785841943
N  N4  1  0.50000000  0.00000000  0.62140000  1.0 -0.2785841943
N  N5  1  0.00000000  0.50000000  0.62140000  1.0 -0.2785841943
N  N6  1  0.50000000  0.50000000  0.62140000  1.0 -0.2785841943
N  N7  1  0.53390000  0.06780000  0.50000000  1.0 -0.3746114195
N  N8  1  0.53390000  0.46610000  0.50000000  1.0 -0.3746114195
N  N9  1  0.93220000  0.46610000  0.50000000  1.0 -0.3746114195
N  N10  1  0.46610000  0.93220000  0.50000000  1.0 -0.3746114195
N  N11  1  0.46610000  0.53390000  0.50000000  1.0 -0.3746114195
N  N12  1  0.06780000  0.53390000  0.50000000  1.0 -0.3746114195
Cl  Cl1  1  0.68800000  0.16900000  0.50000000  1.0 -0.1274271057
Cl  Cl2  1  0.48100000  0.31200000  0.50000000  1.0 -0.1274271057
Cl  Cl3  1  0.83100000  0.51900000  0.50000000  1.0 -0.1274271057
Cl  Cl4  1  0.31200000  0.83100000  0.50000000  1.0 -0.1274271057
Cl  Cl5  1  0.51900000  0.68800000  0.50000000  1.0 -0.1274271057
Cl  Cl6  1  0.16900000  0.48100000  0.50000000  1.0 -0.1274271057
Cl  Cl7  1  0.51900000  0.83100000  0.50000000  1.0 -0.1274271057
Cl  Cl8  1  0.16900000  0.68800000  0.50000000  1.0 -0.1274271057
Cl  Cl9  1  0.31200000  0.48100000  0.50000000  1.0 -0.1274271057
Cl  Cl10  1  0.48100000  0.16900000  0.50000000  1.0 -0.1274271057
Cl  Cl11  1  0.83100000  0.31200000  0.50000000  1.0 -0.1274271057
Cl  Cl12  1  0.68800000  0.51900000  0.50000000  1.0 -0.1274271057
O  O1  1  0.58970000  0.25070000  0.08930000  1.0 -0.570553434
O  O2  1  0.66100000  0.41030000  0.08930000  1.0 -0.570553434
O  O3  1  0.74930000  0.33900000  0.08930000  1.0 -0.570553434
O  O4  1  0.41030000  0.74930000  0.08930000  1.0 -0.570553434
O  O5  1  0.33900000  0.58970000  0.08930000  1.0 -0.570553434
O  O6  1  0.25070000  0.66100000  0.08930000  1.0 -0.570553434
O  O7  1  0.33900000  0.74930000  0.91070000  1.0 -0.570553434
O  O8  1  0.25070000  0.58970000  0.91070000  1.0 -0.570553434
O  O9  1  0.41030000  0.66100000  0.91070000  1.0 -0.570553434
O  O10  1  0.66100000  0.25070000  0.91070000  1.0 -0.570553434
O  O11  1  0.74930000  0.41030000  0.91070000  1.0 -0.570553434
O  O12  1  0.58970000  0.33900000  0.91070000  1.0 -0.570553434
O  O13  1  0.41030000  0.74930000  0.91070000  1.0 -0.570553434
O  O14  1  0.33900000  0.58970000  0.91070000  1.0 -0.570553434
O  O15  1  0.25070000  0.66100000  0.91070000  1.0 -0.570553434
O  O16  1  0.58970000  0.25070000  0.91070000  1.0 -0.570553434
O  O17  1  0.66100000  0.41030000  0.91070000  1.0 -0.570553434
O  O18  1  0.74930000  0.33900000  0.91070000  1.0 -0.570553434
O  O19  1  0.66100000  0.25070000  0.08930000  1.0 -0.570553434
O  O20  1  0.74930000  0.41030000  0.08930000  1.0 -0.570553434
O  O21  1  0.58970000  0.33900000  0.08930000  1.0 -0.570553434
O  O22  1  0.33900000  0.74930000  0.08930000  1.0 -0.570553434
O  O23  1  0.25070000  0.58970000  0.08930000  1.0 -0.570553434
O  O24  1  0.41030000  0.66100000  0.08930000  1.0 -0.570553434
O  O25  1  0.75250000  0.24750000  0.50000000  1.0 -0.3532253152
O  O26  1  0.49500000  0.24750000  0.50000000  1.0 -0.3532253152
O  O27  1  0.75250000  0.50500000  0.50000000  1.0 -0.3532253152
O  O28  1  0.24750000  0.75250000  0.50000000  1.0 -0.3532253152
O  O29  1  0.50500000  0.75250000  0.50000000  1.0 -0.3532253152
O  O30  1  0.24750000  0.49500000  0.50000000  1.0 -0.3532253152
O  O31  1  0.66666667  0.33333333  0.00000000  1.0 -0.6632433356
O  O32  1  0.33333333  0.66666667  0.00000000  1.0 -0.6632433356
O  O33  1  0.62070000  0.06620000  0.50000000  1.0 -0.0806595828
O  O34  1  0.67490000  0.03130000  0.50000000  1.0 -0.3532253152
O  O35  1  0.65770000  0.10250000  0.50000000  1.0 -0.0107438039
O  O36  1  0.44550000  0.37930000  0.50000000  1.0 -0.0806595828
O  O37  1  0.35640000  0.32510000  0.50000000  1.0 -0.3532253152
O  O38  1  0.44480000  0.34230000  0.50000000  1.0 -0.0107438039
O  O39  1  0.93380000  0.55450000  0.50000000  1.0 -0.0806595828
O  O40  1  0.96870000  0.64360000  0.50000000  1.0 -0.3532253152
O  O41  1  0.89750000  0.55520000  0.50000000  1.0 -0.0107438039
O  O42  1  0.37930000  0.93380000  0.50000000  1.0 -0.0806595828
O  O43  1  0.32510000  0.96870000  0.50000000  1.0 -0.357804072
O  O44  1  0.34230000  0.89750000  0.50000000  1.0 -0.0107438039
O  O45  1  0.55450000  0.62070000  0.50000000  1.0 -0.0806595828
O  O46  1  0.64360000  0.67490000  0.50000000  1.0 -0.3532253152
O  O47  1  0.55520000  0.65770000  0.50000000  1.0 -0.0107438039
O  O48  1  0.06620000  0.44550000  0.50000000  1.0 -0.0806595828
O  O49  1  0.03130000  0.35640000  0.50000000  1.0 -0.357804072
O  O50  1  0.10250000  0.44480000  0.50000000  1.0 -0.0107438039
O  O51  1  0.55450000  0.93380000  0.50000000  1.0 -0.0806595828
O  O52  1  0.64360000  0.96870000  0.50000000  1.0 -0.357804072
O  O53  1  0.55520000  0.89750000  0.50000000  1.0 -0.0107438039
O  O54  1  0.06620000  0.62070000  0.50000000  1.0 -0.0806595828
O  O55  1  0.03130000  0.67490000  0.50000000  1.0 -0.357804072
O  O56  1  0.10250000  0.65770000  0.50000000  1.0 -0.0107438039
O  O57  1  0.37930000  0.44550000  0.50000000  1.0 -0.0806595828
O  O58  1  0.32510000  0.35640000  0.50000000  1.0 -0.357804072
O  O59  1  0.34230000  0.44480000  0.50000000  1.0 -0.0107438039
O  O60  1  0.44550000  0.06620000  0.50000000  1.0 -0.0806595828
O  O61  1  0.35640000  0.03130000  0.50000000  1.0 -0.3532253152
O  O62  1  0.44480000  0.10250000  0.50000000  1.0 -0.0107438039
O  O63  1  0.93380000  0.37930000  0.50000000  1.0 -0.0806595828
O  O64  1  0.96870000  0.32510000  0.50000000  1.0 -0.357804072
O  O65  1  0.89750000  0.34230000  0.50000000  1.0 -0.0107438039
O  O66  1  0.62070000  0.55450000  0.50000000  1.0 -0.0806595828
O  O67  1  0.67490000  0.64360000  0.50000000  1.0 -0.3532253152
O  O68  1  0.65770000  0.55520000  0.50000000  1.0 -0.0107438039
