# DDEC6 charges by PACMAN v1.1 (https://github.com/mtap-research/PACMAN-charge/)
data_ATUZEW_ASR_pacman
_symmetry_space_group_name_H-M   'P 1'
_cell_length_a   16.69210000
_cell_length_b   16.69210000
_cell_length_c   16.69210000
_cell_angle_alpha   68.10000000
_cell_angle_beta   68.10000000
_cell_angle_gamma   68.10000000
_symmetry_Int_Tables_number   1
_chemical_formula_structural   CuH3C15O8
_chemical_formula_sum   'Cu6 H18 C90 O48'
_cell_volume   3853.25736763
_cell_formula_units_Z   6
loop_
 _symmetry_equiv_pos_site_id
 _symmetry_equiv_pos_as_xyz
  1  'x, y, z'
loop_
 _atom_site_type_symbol
 _atom_site_label
 _atom_site_symmetry_multiplicity
 _atom_site_fract_x
 _atom_site_fract_y
 _atom_site_fract_z
 _atom_site_occupancy
 _atom_site_charge
Cu  Cu1  1  0.57494000  0.00563000  0.00563000  1.0 0.8779067465
Cu  Cu2  1  0.00563000  0.00563000  0.57494000  1.0 0.8779067465
Cu  Cu3  1  0.42506000  0.99437000  0.99437000  1.0 0.8779067465
Cu  Cu4  1  0.00563000  0.57494000  0.00563000  1.0 0.8779067465
Cu  Cu5  1  0.99437000  0.42506000  0.99437000  1.0 0.8779067465
Cu  Cu6  1  0.99437000  0.99437000  0.42506000  1.0 0.8779067465
H  H1  1  0.26820000  0.26820000  0.97530000  1.0 0.1508064338
H  H2  1  0.26820000  0.97530000  0.26820000  1.0 0.1508064338
H  H3  1  0.73180000  0.02470000  0.73180000  1.0 0.1508064338
H  H4  1  0.97530000  0.26820000  0.26820000  1.0 0.1508064338
H  H5  1  0.73180000  0.73180000  0.02470000  1.0 0.1508064338
H  H6  1  0.02470000  0.73180000  0.73180000  1.0 0.1508064338
H  H7  1  0.49970000  0.28550000  0.97970000  1.0 0.1416032681
H  H8  1  0.28550000  0.97970000  0.49970000  1.0 0.1416032681
H  H9  1  0.50030000  0.02030000  0.71450000  1.0 0.1416032681
H  H10  1  0.97970000  0.49970000  0.28550000  1.0 0.1416032681
H  H11  1  0.71450000  0.50030000  0.02030000  1.0 0.1416032681
H  H12  1  0.02030000  0.71450000  0.50030000  1.0 0.1416032681
H  H13  1  0.50030000  0.71450000  0.02030000  1.0 0.1416032681
H  H14  1  0.71450000  0.02030000  0.50030000  1.0 0.1416032681
H  H15  1  0.49970000  0.97970000  0.28550000  1.0 0.1416032681
H  H16  1  0.02030000  0.50030000  0.71450000  1.0 0.1416032681
H  H17  1  0.28550000  0.49970000  0.97970000  1.0 0.1416032681
H  H18  1  0.97970000  0.28550000  0.49970000  1.0 0.1416032681
C  C1  1  0.45286000  0.45286000  0.98866000  1.0 0.0687572763
C  C2  1  0.45286000  0.98866000  0.45286000  1.0 0.0687572763
C  C3  1  0.54714000  0.01134000  0.54714000  1.0 0.0687572763
C  C4  1  0.98866000  0.45286000  0.45286000  1.0 0.0687572763
C  C5  1  0.54714000  0.54714000  0.01134000  1.0 0.0687572763
C  C6  1  0.01134000  0.54714000  0.54714000  1.0 0.0687572763
C  C7  1  0.39079000  0.26249000  0.97599000  1.0 -0.0036201722
C  C8  1  0.26249000  0.97599000  0.39079000  1.0 -0.0036201722
C  C9  1  0.60921000  0.02401000  0.73751000  1.0 -0.0036201722
C  C10  1  0.97599000  0.39079000  0.26249000  1.0 -0.0036201722
C  C11  1  0.73751000  0.60921000  0.02401000  1.0 -0.0036201722
C  C12  1  0.02401000  0.73751000  0.60921000  1.0 -0.0036201722
C  C13  1  0.60921000  0.73751000  0.02401000  1.0 -0.0036201722
C  C14  1  0.73751000  0.02401000  0.60921000  1.0 -0.0036201722
C  C15  1  0.39079000  0.97599000  0.26249000  1.0 -0.0036201722
C  C16  1  0.02401000  0.60921000  0.73751000  1.0 -0.0036201722
C  C17  1  0.26249000  0.39079000  0.97599000  1.0 -0.0036201722
C  C18  1  0.97599000  0.26249000  0.39079000  1.0 -0.0036201722
C  C19  1  0.43235000  0.16535000  0.98015000  1.0 0.5974893837
C  C20  1  0.16535000  0.98015000  0.43235000  1.0 0.5974893837
C  C21  1  0.56765000  0.01985000  0.83465000  1.0 0.5974893837
C  C22  1  0.98015000  0.43235000  0.16535000  1.0 0.5974893837
C  C23  1  0.83465000  0.56765000  0.01985000  1.0 0.5974893837
C  C24  1  0.01985000  0.83465000  0.56765000  1.0 0.5974893837
C  C25  1  0.56765000  0.83465000  0.01985000  1.0 0.5974893837
C  C26  1  0.83465000  0.01985000  0.56765000  1.0 0.5974893837
C  C27  1  0.43235000  0.98015000  0.16535000  1.0 0.5974893837
C  C28  1  0.01985000  0.56765000  0.83465000  1.0 0.5974893837
C  C29  1  0.16535000  0.43235000  0.98015000  1.0 0.5974893837
C  C30  1  0.98015000  0.16535000  0.43235000  1.0 0.5974893837
C  C31  1  0.30173000  0.30173000  0.97568000  1.0 -0.085128452
C  C32  1  0.30173000  0.97568000  0.30173000  1.0 -0.085128452
C  C33  1  0.69827000  0.02432000  0.69827000  1.0 -0.085128452
C  C34  1  0.97568000  0.30173000  0.30173000  1.0 -0.085128452
C  C35  1  0.69827000  0.69827000  0.02432000  1.0 -0.085128452
C  C36  1  0.02432000  0.69827000  0.69827000  1.0 -0.085128452
C  C37  1  0.40102000  0.40102000  0.98152000  1.0 0.0808544414
C  C38  1  0.40102000  0.98152000  0.40102000  1.0 0.0808544414
C  C39  1  0.59898000  0.01848000  0.59898000  1.0 0.0808544414
C  C40  1  0.98152000  0.40102000  0.40102000  1.0 0.0808544414
C  C41  1  0.59898000  0.59898000  0.01848000  1.0 0.0808544414
C  C42  1  0.01848000  0.59898000  0.59898000  1.0 0.0808544414
C  C43  1  0.43985000  0.31215000  0.97915000  1.0 -0.1075255492
C  C44  1  0.31215000  0.97915000  0.43985000  1.0 -0.1075255492
C  C45  1  0.56015000  0.02085000  0.68785000  1.0 -0.1075255492
C  C46  1  0.97915000  0.43985000  0.31215000  1.0 -0.1075255492
C  C47  1  0.68785000  0.56015000  0.02085000  1.0 -0.1075255492
C  C48  1  0.02085000  0.68785000  0.56015000  1.0 -0.1075255492
C  C49  1  0.56015000  0.68785000  0.02085000  1.0 -0.1075255492
C  C50  1  0.68785000  0.02085000  0.56015000  1.0 -0.1075255492
C  C51  1  0.43985000  0.97915000  0.31215000  1.0 -0.1075255492
C  C52  1  0.02085000  0.56015000  0.68785000  1.0 -0.1075255492
C  C53  1  0.31215000  0.43985000  0.97915000  1.0 -0.1075255492
C  C54  1  0.97915000  0.31215000  0.43985000  1.0 -0.1075255492
C  C55  1  0.44600000  0.54240000  0.94180000  1.0 -0.0285849323
C  C56  1  0.54240000  0.94180000  0.44600000  1.0 -0.0285849323
C  C57  1  0.55400000  0.05820000  0.45760000  1.0 -0.0285849323
C  C58  1  0.94180000  0.44600000  0.54240000  1.0 -0.0285849323
C  C59  1  0.45760000  0.55400000  0.05820000  1.0 -0.0285849323
C  C60  1  0.05820000  0.45760000  0.55400000  1.0 -0.0285849323
C  C61  1  0.55400000  0.45760000  0.05820000  1.0 -0.0285849323
C  C62  1  0.45760000  0.05820000  0.55400000  1.0 -0.0285849323
C  C63  1  0.44600000  0.94180000  0.54240000  1.0 -0.0285849323
C  C64  1  0.05820000  0.55400000  0.45760000  1.0 -0.0285849323
C  C65  1  0.54240000  0.44600000  0.94180000  1.0 -0.0285849323
C  C66  1  0.94180000  0.54240000  0.44600000  1.0 -0.0285849323
C  C67  1  0.50540000  0.41240000  0.04840000  1.0 -0.0214269671
C  C68  1  0.41240000  0.04840000  0.50540000  1.0 -0.0214269671
C  C69  1  0.49460000  0.95160000  0.58760000  1.0 -0.0214269671
C  C70  1  0.04840000  0.50540000  0.41240000  1.0 -0.0214269671
C  C71  1  0.58760000  0.49460000  0.95160000  1.0 -0.0214269671
C  C72  1  0.95160000  0.58760000  0.49460000  1.0 -0.0214269671
C  C73  1  0.49460000  0.58760000  0.95160000  1.0 -0.0214269671
C  C74  1  0.58760000  0.95160000  0.49460000  1.0 -0.0214269671
C  C75  1  0.50540000  0.04840000  0.41240000  1.0 -0.0214269671
C  C76  1  0.95160000  0.49460000  0.58760000  1.0 -0.0214269671
C  C77  1  0.41240000  0.50540000  0.04840000  1.0 -0.0214269671
C  C78  1  0.04840000  0.41240000  0.50540000  1.0 -0.0214269671
C  C79  1  0.40500000  0.59580000  0.85350000  1.0 0.5312736202
C  C80  1  0.59580000  0.85350000  0.40500000  1.0 0.5312736202
C  C81  1  0.59500000  0.14650000  0.40420000  1.0 0.5312736202
C  C82  1  0.85350000  0.40500000  0.59580000  1.0 0.5312736202
C  C83  1  0.40420000  0.59500000  0.14650000  1.0 0.5312736202
C  C84  1  0.14650000  0.40420000  0.59500000  1.0 0.5312736202
C  C85  1  0.59500000  0.40420000  0.14650000  1.0 0.5312736202
C  C86  1  0.40420000  0.14650000  0.59500000  1.0 0.5312736202
C  C87  1  0.40500000  0.85350000  0.59580000  1.0 0.5312736202
C  C88  1  0.14650000  0.59500000  0.40420000  1.0 0.5312736202
C  C89  1  0.59580000  0.40500000  0.85350000  1.0 0.5312736202
C  C90  1  0.85350000  0.59580000  0.40500000  1.0 0.5312736202
O  O1  1  0.51129000  0.13305000  0.98697000  1.0 -0.511639103
O  O2  1  0.13305000  0.98697000  0.51129000  1.0 -0.5152578114
O  O3  1  0.48871000  0.01303000  0.86695000  1.0 -0.5152578114
O  O4  1  0.98697000  0.51129000  0.13305000  1.0 -0.5152578114
O  O5  1  0.86695000  0.48871000  0.01303000  1.0 -0.5152578114
O  O6  1  0.01303000  0.86695000  0.48871000  1.0 -0.5152578114
O  O7  1  0.48871000  0.86695000  0.01303000  1.0 -0.5152578114
O  O8  1  0.86695000  0.01303000  0.48871000  1.0 -0.5152578114
O  O9  1  0.51129000  0.98697000  0.13305000  1.0 -0.5152578114
O  O10  1  0.01303000  0.48871000  0.86695000  1.0 -0.5152578114
O  O11  1  0.13305000  0.51129000  0.98697000  1.0 -0.5152578114
O  O12  1  0.98697000  0.13305000  0.51129000  1.0 -0.5152578114
O  O13  1  0.35860000  0.67450000  0.84910000  1.0 -0.3666212346
O  O14  1  0.67450000  0.84910000  0.35860000  1.0 -0.3666212346
O  O15  1  0.64140000  0.15090000  0.32550000  1.0 -0.3666212346
O  O16  1  0.84910000  0.35860000  0.67450000  1.0 -0.3666212346
O  O17  1  0.32550000  0.64140000  0.15090000  1.0 -0.3666212346
O  O18  1  0.15090000  0.32550000  0.64140000  1.0 -0.3666212346
O  O19  1  0.64140000  0.32550000  0.15090000  1.0 -0.3666212346
O  O20  1  0.32550000  0.15090000  0.64140000  1.0 -0.3666212346
O  O21  1  0.35860000  0.84910000  0.67450000  1.0 -0.3666212346
O  O22  1  0.15090000  0.64140000  0.32550000  1.0 -0.3666212346
O  O23  1  0.67450000  0.35860000  0.84910000  1.0 -0.3624757559
O  O24  1  0.84910000  0.67450000  0.35860000  1.0 -0.3666212346
O  O25  1  0.40150000  0.56130000  0.81710000  1.0 -0.2625057566
O  O26  1  0.56130000  0.81710000  0.40150000  1.0 -0.2625057566
O  O27  1  0.59850000  0.18290000  0.43870000  1.0 -0.2625057566
O  O28  1  0.81710000  0.40150000  0.56130000  1.0 -0.2625057566
O  O29  1  0.43870000  0.59850000  0.18290000  1.0 -0.2625057566
O  O30  1  0.18290000  0.43870000  0.59850000  1.0 -0.2625057566
O  O31  1  0.59850000  0.43870000  0.18290000  1.0 -0.2625057566
O  O32  1  0.43870000  0.18290000  0.59850000  1.0 -0.2625057566
O  O33  1  0.40150000  0.81710000  0.56130000  1.0 -0.2625057566
O  O34  1  0.18290000  0.59850000  0.43870000  1.0 -0.2625057566
O  O35  1  0.56130000  0.40150000  0.81710000  1.0 -0.2676655681
O  O36  1  0.81710000  0.56130000  0.40150000  1.0 -0.2625057566
O  O37  1  0.38435000  0.12403000  0.97809000  1.0 -0.511639103
O  O38  1  0.12403000  0.97809000  0.38435000  1.0 -0.511639103
O  O39  1  0.61565000  0.02191000  0.87597000  1.0 -0.511639103
O  O40  1  0.97809000  0.38435000  0.12403000  1.0 -0.511639103
O  O41  1  0.87597000  0.61565000  0.02191000  1.0 -0.511639103
O  O42  1  0.02191000  0.87597000  0.61565000  1.0 -0.511639103
O  O43  1  0.61565000  0.87597000  0.02191000  1.0 -0.511639103
O  O44  1  0.87597000  0.02191000  0.61565000  1.0 -0.511639103
O  O45  1  0.38435000  0.97809000  0.12403000  1.0 -0.511639103
O  O46  1  0.02191000  0.61565000  0.87597000  1.0 -0.511639103
O  O47  1  0.12403000  0.38435000  0.97809000  1.0 -0.511639103
O  O48  1  0.97809000  0.12403000  0.38435000  1.0 -0.511639103
