# DDEC6 charges by PACMAN v1.1 (https://github.com/mtap-research/PACMAN-charge/)
data_AVAJUE_FSR_pacman
_symmetry_space_group_name_H-M   'P 1'
_cell_length_a   43.06990000
_cell_length_b   43.06990000
_cell_length_c   43.06990000
_cell_angle_alpha   60.00000000
_cell_angle_beta   60.00000000
_cell_angle_gamma   60.00000000
_symmetry_Int_Tables_number   1
_chemical_formula_structural   Cu3H48C78N2O15
_chemical_formula_sum   'Cu12 H192 C312 N8 O60'
_cell_volume   56494.55503931
_cell_formula_units_Z   4
loop_
 _symmetry_equiv_pos_site_id
 _symmetry_equiv_pos_as_xyz
  1  'x, y, z'
loop_
 _atom_site_type_symbol
 _atom_site_label
 _atom_site_symmetry_multiplicity
 _atom_site_fract_x
 _atom_site_fract_y
 _atom_site_fract_z
 _atom_site_occupancy
 _atom_site_charge
Cu  Cu1  1  0.00000000  0.46952000  0.53048000  1.0 0.9225420291
Cu  Cu2  1  0.46952000  0.00000000  0.00000000  1.0 0.9225420291
Cu  Cu3  1  0.53048000  0.00000000  0.00000000  1.0 0.9225420291
Cu  Cu4  1  0.00000000  0.53048000  0.46952000  1.0 0.9225420291
Cu  Cu5  1  0.53048000  0.00000000  0.46952000  1.0 0.9225420291
Cu  Cu6  1  0.00000000  0.46952000  0.00000000  1.0 0.9225420291
Cu  Cu7  1  0.00000000  0.53048000  0.00000000  1.0 0.9225420291
Cu  Cu8  1  0.46952000  0.00000000  0.53048000  1.0 0.9225420291
Cu  Cu9  1  0.46952000  0.53048000  0.00000000  1.0 0.9225420291
Cu  Cu10  1  0.00000000  0.00000000  0.46952000  1.0 0.9225420291
Cu  Cu11  1  0.00000000  0.00000000  0.53048000  1.0 0.9225420291
Cu  Cu12  1  0.53048000  0.46952000  0.00000000  1.0 0.9225420291
H  H1  1  0.88160000  0.50540000  0.59320000  1.0 0.1302480332
H  H2  1  0.50540000  0.88160000  0.01980000  1.0 0.1302480332
H  H3  1  0.59320000  0.01980000  0.88160000  1.0 0.1302480332
H  H4  1  0.01980000  0.59320000  0.50540000  1.0 0.1302480332
H  H5  1  0.59320000  0.88160000  0.50540000  1.0 0.1302480332
H  H6  1  0.01980000  0.50540000  0.88160000  1.0 0.1302480332
H  H7  1  0.88160000  0.59320000  0.01980000  1.0 0.1302480332
H  H8  1  0.50540000  0.01980000  0.59320000  1.0 0.1302480332
H  H9  1  0.50540000  0.59320000  0.88160000  1.0 0.1302480332
H  H10  1  0.88160000  0.01980000  0.50540000  1.0 0.1302480332
H  H11  1  0.01980000  0.88160000  0.59320000  1.0 0.1302480332
H  H12  1  0.59320000  0.50540000  0.01980000  1.0 0.1302480332
H  H13  1  0.11840000  0.49460000  0.98020000  1.0 0.1302480332
H  H14  1  0.49460000  0.11840000  0.40680000  1.0 0.1302480332
H  H15  1  0.40680000  0.98020000  0.49460000  1.0 0.1302480332
H  H16  1  0.98020000  0.40680000  0.11840000  1.0 0.1302480332
H  H17  1  0.40680000  0.11840000  0.98020000  1.0 0.1350977405
H  H18  1  0.98020000  0.49460000  0.40680000  1.0 0.1302480332
H  H19  1  0.11840000  0.40680000  0.49460000  1.0 0.1302480332
H  H20  1  0.49460000  0.98020000  0.11840000  1.0 0.1302480332
H  H21  1  0.49460000  0.40680000  0.98020000  1.0 0.1302480332
H  H22  1  0.11840000  0.98020000  0.40680000  1.0 0.1302480332
H  H23  1  0.98020000  0.11840000  0.49460000  1.0 0.1302480332
H  H24  1  0.40680000  0.49460000  0.11840000  1.0 0.1302480332
H  H25  1  0.81780000  0.53520000  0.62200000  1.0 0.1108626229
H  H26  1  0.53520000  0.81780000  0.02500000  1.0 0.1108626229
H  H27  1  0.62200000  0.02500000  0.81780000  1.0 0.1108626229
H  H28  1  0.02500000  0.62200000  0.53520000  1.0 0.1108626229
H  H29  1  0.62200000  0.81780000  0.53520000  1.0 0.1108626229
H  H30  1  0.02500000  0.53520000  0.81780000  1.0 0.1108626229
H  H31  1  0.81780000  0.62200000  0.02500000  1.0 0.1108626229
H  H32  1  0.53520000  0.02500000  0.62200000  1.0 0.1108626229
H  H33  1  0.53520000  0.62200000  0.81780000  1.0 0.1108626229
H  H34  1  0.81780000  0.02500000  0.53520000  1.0 0.1108626229
H  H35  1  0.02500000  0.81780000  0.62200000  1.0 0.1108626229
H  H36  1  0.62200000  0.53520000  0.02500000  1.0 0.1108626229
H  H37  1  0.18220000  0.46480000  0.97500000  1.0 0.1108626229
H  H38  1  0.46480000  0.18220000  0.37800000  1.0 0.1108626229
H  H39  1  0.37800000  0.97500000  0.46480000  1.0 0.1108626229
H  H40  1  0.97500000  0.37800000  0.18220000  1.0 0.1108626229
H  H41  1  0.37800000  0.18220000  0.97500000  1.0 0.1108626229
H  H42  1  0.97500000  0.46480000  0.37800000  1.0 0.1108626229
H  H43  1  0.18220000  0.37800000  0.46480000  1.0 0.1108626229
H  H44  1  0.46480000  0.97500000  0.18220000  1.0 0.1108626229
H  H45  1  0.46480000  0.37800000  0.97500000  1.0 0.1108626229
H  H46  1  0.18220000  0.97500000  0.37800000  1.0 0.1108626229
H  H47  1  0.97500000  0.18220000  0.46480000  1.0 0.1108626229
H  H48  1  0.37800000  0.46480000  0.18220000  1.0 0.1108626229
H  H49  1  0.81990000  0.62950000  0.52990000  1.0 0.1108626229
H  H50  1  0.62950000  0.81990000  0.02070000  1.0 0.1108626229
H  H51  1  0.52990000  0.02070000  0.81990000  1.0 0.1108626229
H  H52  1  0.02070000  0.52990000  0.62950000  1.0 0.1108626229
H  H53  1  0.52990000  0.81990000  0.62950000  1.0 0.1108626229
H  H54  1  0.02070000  0.62950000  0.81990000  1.0 0.1108626229
H  H55  1  0.81990000  0.52990000  0.02070000  1.0 0.1108626229
H  H56  1  0.62950000  0.02070000  0.52990000  1.0 0.1108626229
H  H57  1  0.62950000  0.52990000  0.81990000  1.0 0.1108626229
H  H58  1  0.81990000  0.02070000  0.62950000  1.0 0.1108626229
H  H59  1  0.02070000  0.81990000  0.52990000  1.0 0.1108626229
H  H60  1  0.52990000  0.62950000  0.02070000  1.0 0.1108626229
H  H61  1  0.18010000  0.37050000  0.97930000  1.0 0.1108626229
H  H62  1  0.37050000  0.18010000  0.47010000  1.0 0.1108626229
H  H63  1  0.47010000  0.97930000  0.37050000  1.0 0.1108626229
H  H64  1  0.97930000  0.47010000  0.18010000  1.0 0.1108626229
H  H65  1  0.47010000  0.18010000  0.97930000  1.0 0.1108626229
H  H66  1  0.97930000  0.37050000  0.47010000  1.0 0.1108626229
H  H67  1  0.18010000  0.47010000  0.37050000  1.0 0.1108626229
H  H68  1  0.37050000  0.97930000  0.18010000  1.0 0.1108626229
H  H69  1  0.37050000  0.47010000  0.97930000  1.0 0.1108626229
H  H70  1  0.18010000  0.97930000  0.47010000  1.0 0.1108626229
H  H71  1  0.97930000  0.18010000  0.37050000  1.0 0.1108626229
H  H72  1  0.47010000  0.37050000  0.18010000  1.0 0.1108626229
H  H73  1  0.88370000  0.59990000  0.50110000  1.0 0.1302480332
H  H74  1  0.59990000  0.88370000  0.01530000  1.0 0.1302480332
H  H75  1  0.50110000  0.01530000  0.88370000  1.0 0.1302480332
H  H76  1  0.01530000  0.50110000  0.59990000  1.0 0.1302480332
H  H77  1  0.50110000  0.88370000  0.59990000  1.0 0.1302480332
H  H78  1  0.01530000  0.59990000  0.88370000  1.0 0.1302480332
H  H79  1  0.88370000  0.50110000  0.01530000  1.0 0.1302480332
H  H80  1  0.59990000  0.01530000  0.50110000  1.0 0.1302480332
H  H81  1  0.59990000  0.50110000  0.88370000  1.0 0.1302480332
H  H82  1  0.88370000  0.01530000  0.59990000  1.0 0.1302480332
H  H83  1  0.01530000  0.88370000  0.50110000  1.0 0.1302480332
H  H84  1  0.50110000  0.59990000  0.01530000  1.0 0.1302480332
H  H85  1  0.11630000  0.40010000  0.98470000  1.0 0.1302480332
H  H86  1  0.40010000  0.11630000  0.49890000  1.0 0.1302480332
H  H87  1  0.49890000  0.98470000  0.40010000  1.0 0.1302480332
H  H88  1  0.98470000  0.49890000  0.11630000  1.0 0.1302480332
H  H89  1  0.49890000  0.11630000  0.98470000  1.0 0.1302480332
H  H90  1  0.98470000  0.40010000  0.49890000  1.0 0.1302480332
H  H91  1  0.11630000  0.49890000  0.40010000  1.0 0.1302480332
H  H92  1  0.40010000  0.98470000  0.11630000  1.0 0.1302480332
H  H93  1  0.40010000  0.49890000  0.98470000  1.0 0.1302480332
H  H94  1  0.11630000  0.98470000  0.49890000  1.0 0.1302480332
H  H95  1  0.98470000  0.11630000  0.40010000  1.0 0.1302480332
H  H96  1  0.49890000  0.40010000  0.11630000  1.0 0.1302480332
H  H97  1  0.77530000  0.57790000  0.64850000  1.0 0.1108626229
H  H98  1  0.57790000  0.77530000  0.99830000  1.0 0.1108626229
H  H99  1  0.64850000  0.99830000  0.77530000  1.0 0.1108626229
H  H100  1  0.99830000  0.64850000  0.57790000  1.0 0.1108626229
H  H101  1  0.64850000  0.77530000  0.57790000  1.0 0.1108626229
H  H102  1  0.99830000  0.57790000  0.77530000  1.0 0.1108626229
H  H103  1  0.77530000  0.64850000  0.99830000  1.0 0.1108626229
H  H104  1  0.57790000  0.99830000  0.64850000  1.0 0.1108626229
H  H105  1  0.57790000  0.64850000  0.77530000  1.0 0.1108626229
H  H106  1  0.77530000  0.99830000  0.57790000  1.0 0.1108626229
H  H107  1  0.99830000  0.77530000  0.64850000  1.0 0.1108626229
H  H108  1  0.64850000  0.57790000  0.99830000  1.0 0.1108626229
H  H109  1  0.22470000  0.42210000  0.00170000  1.0 0.1108626229
H  H110  1  0.42210000  0.22470000  0.35150000  1.0 0.1108626229
H  H111  1  0.35150000  0.00170000  0.42210000  1.0 0.1108626229
H  H112  1  0.00170000  0.35150000  0.22470000  1.0 0.1108626229
H  H113  1  0.35150000  0.22470000  0.00170000  1.0 0.1108626229
H  H114  1  0.00170000  0.42210000  0.35150000  1.0 0.1108626229
H  H115  1  0.22470000  0.35150000  0.42210000  1.0 0.1108626229
H  H116  1  0.42210000  0.00170000  0.22470000  1.0 0.1108626229
H  H117  1  0.42210000  0.35150000  0.00170000  1.0 0.1108626229
H  H118  1  0.22470000  0.00170000  0.35150000  1.0 0.1108626229
H  H119  1  0.00170000  0.22470000  0.42210000  1.0 0.1108626229
H  H120  1  0.35150000  0.42210000  0.22470000  1.0 0.1108626229
H  H121  1  0.71170000  0.60330000  0.68130000  1.0 0.1302480332
H  H122  1  0.60330000  0.71170000  0.00370000  1.0 0.1302480332
H  H123  1  0.68130000  0.00370000  0.71170000  1.0 0.1302480332
H  H124  1  0.00370000  0.68130000  0.60330000  1.0 0.1302480332
H  H125  1  0.68130000  0.71170000  0.60330000  1.0 0.1302480332
H  H126  1  0.00370000  0.60330000  0.71170000  1.0 0.1302480332
H  H127  1  0.71170000  0.68130000  0.00370000  1.0 0.1302480332
H  H128  1  0.60330000  0.00370000  0.68130000  1.0 0.1302480332
H  H129  1  0.60330000  0.68130000  0.71170000  1.0 0.1302480332
H  H130  1  0.71170000  0.00370000  0.60330000  1.0 0.1302480332
H  H131  1  0.00370000  0.71170000  0.68130000  1.0 0.1302480332
H  H132  1  0.68130000  0.60330000  0.00370000  1.0 0.1302480332
H  H133  1  0.28830000  0.39670000  0.99630000  1.0 0.1302480332
H  H134  1  0.39670000  0.28830000  0.31870000  1.0 0.1302480332
H  H135  1  0.31870000  0.99630000  0.39670000  1.0 0.1302480332
H  H136  1  0.99630000  0.31870000  0.28830000  1.0 0.1302480332
H  H137  1  0.31870000  0.28830000  0.99630000  1.0 0.1302480332
H  H138  1  0.99630000  0.39670000  0.31870000  1.0 0.1302480332
H  H139  1  0.28830000  0.31870000  0.39670000  1.0 0.1302480332
H  H140  1  0.39670000  0.99630000  0.28830000  1.0 0.1302480332
H  H141  1  0.39670000  0.31870000  0.99630000  1.0 0.1302480332
H  H142  1  0.28830000  0.99630000  0.31870000  1.0 0.1302480332
H  H143  1  0.99630000  0.28830000  0.39670000  1.0 0.1302480332
H  H144  1  0.31870000  0.39670000  0.28830000  1.0 0.1206923794
H  H145  1  0.68980000  0.66260000  0.58280000  1.0 0.1206923794
H  H146  1  0.66260000  0.68980000  0.06480000  1.0 0.1206923794
H  H147  1  0.58280000  0.06480000  0.68980000  1.0 0.1206923794
H  H148  1  0.06480000  0.58280000  0.66260000  1.0 0.1206923794
H  H149  1  0.58280000  0.68980000  0.66260000  1.0 0.1206923794
H  H150  1  0.06480000  0.66260000  0.68980000  1.0 0.1206923794
H  H151  1  0.68980000  0.58280000  0.06480000  1.0 0.1206923794
H  H152  1  0.66260000  0.06480000  0.58280000  1.0 0.1206923794
H  H153  1  0.66260000  0.58280000  0.68980000  1.0 0.1206923794
H  H154  1  0.68980000  0.06480000  0.66260000  1.0 0.1206923794
H  H155  1  0.06480000  0.68980000  0.58280000  1.0 0.1206923794
H  H156  1  0.58280000  0.66260000  0.06480000  1.0 0.1206923794
H  H157  1  0.31020000  0.33740000  0.93520000  1.0 0.1206923794
H  H158  1  0.33740000  0.31020000  0.41720000  1.0 0.1206923794
H  H159  1  0.41720000  0.93520000  0.33740000  1.0 0.1206923794
H  H160  1  0.93520000  0.41720000  0.31020000  1.0 0.1206923794
H  H161  1  0.41720000  0.31020000  0.93520000  1.0 0.1206923794
H  H162  1  0.93520000  0.33740000  0.41720000  1.0 0.1206923794
H  H163  1  0.31020000  0.41720000  0.33740000  1.0 0.1206923794
H  H164  1  0.33740000  0.93520000  0.31020000  1.0 0.1206923794
H  H165  1  0.33740000  0.41720000  0.93520000  1.0 0.1206923794
H  H166  1  0.31020000  0.93520000  0.41720000  1.0 0.1206923794
H  H167  1  0.93520000  0.31020000  0.33740000  1.0 0.1206923794
H  H168  1  0.41720000  0.33740000  0.31020000  1.0 0.1206923794
H  H169  1  0.75340000  0.63740000  0.55000000  1.0 0.1108626229
H  H170  1  0.63740000  0.75340000  0.05920000  1.0 0.1108626229
H  H171  1  0.55000000  0.05920000  0.75340000  1.0 0.1206923794
H  H172  1  0.05920000  0.55000000  0.63740000  1.0 0.1108626229
H  H173  1  0.55000000  0.75340000  0.63740000  1.0 0.1108626229
H  H174  1  0.05920000  0.63740000  0.75340000  1.0 0.1108626229
H  H175  1  0.75340000  0.55000000  0.05920000  1.0 0.1108626229
H  H176  1  0.63740000  0.05920000  0.55000000  1.0 0.1206923794
H  H177  1  0.63740000  0.55000000  0.75340000  1.0 0.1108626229
H  H178  1  0.75340000  0.05920000  0.63740000  1.0 0.1206923794
H  H179  1  0.05920000  0.75340000  0.55000000  1.0 0.1108626229
H  H180  1  0.55000000  0.63740000  0.05920000  1.0 0.1108626229
H  H181  1  0.24660000  0.36260000  0.94080000  1.0 0.1206923794
H  H182  1  0.36260000  0.24660000  0.45000000  1.0 0.1206923794
H  H183  1  0.45000000  0.94080000  0.36260000  1.0 0.1108626229
H  H184  1  0.94080000  0.45000000  0.24660000  1.0 0.1108626229
H  H185  1  0.45000000  0.24660000  0.94080000  1.0 0.1206923794
H  H186  1  0.94080000  0.36260000  0.45000000  1.0 0.1108626229
H  H187  1  0.24660000  0.45000000  0.36260000  1.0 0.1206923794
H  H188  1  0.36260000  0.94080000  0.24660000  1.0 0.1108626229
H  H189  1  0.36260000  0.45000000  0.94080000  1.0 0.1108626229
H  H190  1  0.24660000  0.94080000  0.45000000  1.0 0.1108626229
H  H191  1  0.94080000  0.24660000  0.36260000  1.0 0.1108626229
H  H192  1  0.45000000  0.36260000  0.24660000  1.0 0.1206923794
C  C1  1  0.93420000  0.53026000  0.52600000  1.0 0.5327894847
C  C2  1  0.53026000  0.93420000  0.00954000  1.0 0.5327894847
C  C3  1  0.52600000  0.00954000  0.93420000  1.0 0.5327894847
C  C4  1  0.00954000  0.52600000  0.53026000  1.0 0.5327894847
C  C5  1  0.52600000  0.93420000  0.53026000  1.0 0.5327894847
C  C6  1  0.00954000  0.53026000  0.93420000  1.0 0.5327894847
C  C7  1  0.93420000  0.52600000  0.00954000  1.0 0.5327894847
C  C8  1  0.53026000  0.00954000  0.52600000  1.0 0.5327894847
C  C9  1  0.53026000  0.52600000  0.93420000  1.0 0.5327894847
C  C10  1  0.93420000  0.00954000  0.53026000  1.0 0.5327894847
C  C11  1  0.00954000  0.93420000  0.52600000  1.0 0.5327894847
C  C12  1  0.52600000  0.53026000  0.00954000  1.0 0.5327894847
C  C13  1  0.06580000  0.46974000  0.99046000  1.0 0.5350152984
C  C14  1  0.46974000  0.06580000  0.47400000  1.0 0.5327894847
C  C15  1  0.47400000  0.99046000  0.46974000  1.0 0.5327894847
C  C16  1  0.99046000  0.47400000  0.06580000  1.0 0.5327894847
C  C17  1  0.47400000  0.06580000  0.99046000  1.0 0.5327894847
C  C18  1  0.99046000  0.46974000  0.47400000  1.0 0.5327894847
C  C19  1  0.06580000  0.47400000  0.46974000  1.0 0.5327894847
C  C20  1  0.46974000  0.99046000  0.06580000  1.0 0.5327894847
C  C21  1  0.46974000  0.47400000  0.99046000  1.0 0.5327894847
C  C22  1  0.06580000  0.99046000  0.47400000  1.0 0.5327894847
C  C23  1  0.99046000  0.06580000  0.46974000  1.0 0.5327894847
C  C24  1  0.47400000  0.46974000  0.06580000  1.0 0.5327894847
C  C25  1  0.88893000  0.54977000  0.54429000  1.0 0.0027634944
C  C26  1  0.54977000  0.88893000  0.01701000  1.0 0.0027634944
C  C27  1  0.54429000  0.01701000  0.88893000  1.0 0.0027634944
C  C28  1  0.01701000  0.54429000  0.54977000  1.0 0.0027634944
C  C29  1  0.54429000  0.88893000  0.54977000  1.0 0.0027634944
C  C30  1  0.01701000  0.54977000  0.88893000  1.0 0.0027634944
C  C31  1  0.88893000  0.54429000  0.01701000  1.0 0.0027634944
C  C32  1  0.54977000  0.01701000  0.54429000  1.0 0.0027634944
C  C33  1  0.54977000  0.54429000  0.88893000  1.0 0.0027634944
C  C34  1  0.88893000  0.01701000  0.54977000  1.0 0.0027634944
C  C35  1  0.01701000  0.88893000  0.54429000  1.0 0.0027634944
C  C36  1  0.54429000  0.54977000  0.01701000  1.0 0.0027634944
C  C37  1  0.11107000  0.45023000  0.98299000  1.0 0.0027634944
C  C38  1  0.45023000  0.11107000  0.45571000  1.0 0.0027634944
C  C39  1  0.45571000  0.98299000  0.45023000  1.0 0.0027634944
C  C40  1  0.98299000  0.45571000  0.11107000  1.0 0.0027634944
C  C41  1  0.45571000  0.11107000  0.98299000  1.0 0.0027634944
C  C42  1  0.98299000  0.45023000  0.45571000  1.0 0.0027634944
C  C43  1  0.11107000  0.45571000  0.45023000  1.0 0.0027634944
C  C44  1  0.45023000  0.98299000  0.11107000  1.0 0.0027634944
C  C45  1  0.45023000  0.45571000  0.98299000  1.0 0.0027634944
C  C46  1  0.11107000  0.98299000  0.45571000  1.0 0.0027634944
C  C47  1  0.98299000  0.11107000  0.45023000  1.0 0.0027634944
C  C48  1  0.45571000  0.45023000  0.11107000  1.0 0.0027634944
C  C49  1  0.86922000  0.53038000  0.58048000  1.0 -0.1100315369
C  C50  1  0.53038000  0.86922000  0.01992000  1.0 -0.1100315369
C  C51  1  0.58048000  0.01992000  0.86922000  1.0 -0.1100315369
C  C52  1  0.01992000  0.58048000  0.53038000  1.0 -0.1100315369
C  C53  1  0.58048000  0.86922000  0.53038000  1.0 -0.1100315369
C  C54  1  0.01992000  0.53038000  0.86922000  1.0 -0.1100315369
C  C55  1  0.86922000  0.58048000  0.01992000  1.0 -0.1100315369
C  C56  1  0.53038000  0.01992000  0.58048000  1.0 -0.1100315369
C  C57  1  0.53038000  0.58048000  0.86922000  1.0 -0.1100315369
C  C58  1  0.86922000  0.01992000  0.53038000  1.0 -0.1100315369
C  C59  1  0.01992000  0.86922000  0.58048000  1.0 -0.1100315369
C  C60  1  0.58048000  0.53038000  0.01992000  1.0 -0.1100315369
C  C61  1  0.13078000  0.46962000  0.98008000  1.0 -0.1100315369
C  C62  1  0.46962000  0.13078000  0.41952000  1.0 -0.1100315369
C  C63  1  0.41952000  0.98008000  0.46962000  1.0 -0.1100315369
C  C64  1  0.98008000  0.41952000  0.13078000  1.0 -0.1100315369
C  C65  1  0.41952000  0.13078000  0.98008000  1.0 -0.1100315369
C  C66  1  0.98008000  0.46962000  0.41952000  1.0 -0.1100315369
C  C67  1  0.13078000  0.41952000  0.46962000  1.0 -0.1100315369
C  C68  1  0.46962000  0.98008000  0.13078000  1.0 -0.1100315369
C  C69  1  0.46962000  0.41952000  0.98008000  1.0 -0.1100315369
C  C70  1  0.13078000  0.98008000  0.41952000  1.0 -0.1100315369
C  C71  1  0.98008000  0.13078000  0.46962000  1.0 -0.1100315369
C  C72  1  0.41952000  0.46962000  0.13078000  1.0 -0.1100315369
C  C73  1  0.83101000  0.54815000  0.59773000  1.0 -0.1526561458
C  C74  1  0.54815000  0.83101000  0.02311000  1.0 -0.1526561458
C  C75  1  0.59773000  0.02311000  0.83101000  1.0 -0.1526561458
C  C76  1  0.02311000  0.59773000  0.54815000  1.0 -0.1526561458
C  C77  1  0.59773000  0.83101000  0.54815000  1.0 -0.1526561458
C  C78  1  0.02311000  0.54815000  0.83101000  1.0 -0.1526561458
C  C79  1  0.83101000  0.59773000  0.02311000  1.0 -0.1526561458
C  C80  1  0.54815000  0.02311000  0.59773000  1.0 -0.1526561458
C  C81  1  0.54815000  0.59773000  0.83101000  1.0 -0.1526561458
C  C82  1  0.83101000  0.02311000  0.54815000  1.0 -0.1526561458
C  C83  1  0.02311000  0.83101000  0.59773000  1.0 -0.1526561458
C  C84  1  0.59773000  0.54815000  0.02311000  1.0 -0.1526561458
C  C85  1  0.16899000  0.45185000  0.97689000  1.0 -0.1526561458
C  C86  1  0.45185000  0.16899000  0.40227000  1.0 -0.1526561458
C  C87  1  0.40227000  0.97689000  0.45185000  1.0 -0.1526561458
C  C88  1  0.97689000  0.40227000  0.16899000  1.0 -0.1526561458
C  C89  1  0.40227000  0.16899000  0.97689000  1.0 -0.1526561458
C  C90  1  0.97689000  0.45185000  0.40227000  1.0 -0.1526561458
C  C91  1  0.16899000  0.40227000  0.45185000  1.0 -0.1526561458
C  C92  1  0.45185000  0.97689000  0.16899000  1.0 -0.1526561458
C  C93  1  0.45185000  0.40227000  0.97689000  1.0 -0.1526561458
C  C94  1  0.16899000  0.97689000  0.40227000  1.0 -0.1526561458
C  C95  1  0.97689000  0.16899000  0.45185000  1.0 -0.1526561458
C  C96  1  0.40227000  0.45185000  0.16899000  1.0 -0.1526561458
C  C97  1  0.81251000  0.58533000  0.57877000  1.0 0.0621476352
C  C98  1  0.58533000  0.81251000  0.02339000  1.0 0.0621476352
C  C99  1  0.57877000  0.02339000  0.81251000  1.0 0.0621476352
C  C100  1  0.02339000  0.57877000  0.58533000  1.0 0.0621476352
C  C101  1  0.57877000  0.81251000  0.58533000  1.0 0.0621476352
C  C102  1  0.02339000  0.58533000  0.81251000  1.0 0.0621476352
C  C103  1  0.81251000  0.57877000  0.02339000  1.0 0.0621476352
C  C104  1  0.58533000  0.02339000  0.57877000  1.0 0.0621476352
C  C105  1  0.58533000  0.57877000  0.81251000  1.0 0.0621476352
C  C106  1  0.81251000  0.02339000  0.58533000  1.0 0.0621476352
C  C107  1  0.02339000  0.81251000  0.57877000  1.0 0.0621476352
C  C108  1  0.57877000  0.58533000  0.02339000  1.0 0.0621476352
C  C109  1  0.18749000  0.41467000  0.97661000  1.0 0.0621476352
C  C110  1  0.41467000  0.18749000  0.42123000  1.0 0.0621476352
C  C111  1  0.42123000  0.97661000  0.41467000  1.0 0.0621476352
C  C112  1  0.97661000  0.42123000  0.18749000  1.0 0.0621476352
C  C113  1  0.42123000  0.18749000  0.97661000  1.0 0.0621476352
C  C114  1  0.97661000  0.41467000  0.42123000  1.0 0.0621476352
C  C115  1  0.18749000  0.42123000  0.41467000  1.0 0.0621476352
C  C116  1  0.41467000  0.97661000  0.18749000  1.0 0.0621476352
C  C117  1  0.41467000  0.42123000  0.97661000  1.0 0.0621476352
C  C118  1  0.18749000  0.97661000  0.42123000  1.0 0.0621476352
C  C119  1  0.97661000  0.18749000  0.41467000  1.0 0.0621476352
C  C120  1  0.42123000  0.41467000  0.18749000  1.0 0.0621476352
C  C121  1  0.83222000  0.60472000  0.54258000  1.0 -0.1526561458
C  C122  1  0.60472000  0.83222000  0.02048000  1.0 -0.1526561458
C  C123  1  0.54258000  0.02048000  0.83222000  1.0 -0.1526561458
C  C124  1  0.02048000  0.54258000  0.60472000  1.0 -0.1526561458
C  C125  1  0.54258000  0.83222000  0.60472000  1.0 -0.1526561458
C  C126  1  0.02048000  0.60472000  0.83222000  1.0 -0.1526561458
C  C127  1  0.83222000  0.54258000  0.02048000  1.0 -0.1526561458
C  C128  1  0.60472000  0.02048000  0.54258000  1.0 -0.1526561458
C  C129  1  0.60472000  0.54258000  0.83222000  1.0 -0.1526561458
C  C130  1  0.83222000  0.02048000  0.60472000  1.0 -0.1526561458
C  C131  1  0.02048000  0.83222000  0.54258000  1.0 -0.1553906963
C  C132  1  0.54258000  0.60472000  0.02048000  1.0 -0.1526561458
C  C133  1  0.16778000  0.39528000  0.97952000  1.0 -0.1526561458
C  C134  1  0.39528000  0.16778000  0.45742000  1.0 -0.1526561458
C  C135  1  0.45742000  0.97952000  0.39528000  1.0 -0.1526561458
C  C136  1  0.97952000  0.45742000  0.16778000  1.0 -0.1526561458
C  C137  1  0.45742000  0.16778000  0.97952000  1.0 -0.1526561458
C  C138  1  0.97952000  0.39528000  0.45742000  1.0 -0.1526561458
C  C139  1  0.16778000  0.45742000  0.39528000  1.0 -0.1526561458
C  C140  1  0.39528000  0.97952000  0.16778000  1.0 -0.1526561458
C  C141  1  0.39528000  0.45742000  0.97952000  1.0 -0.1526561458
C  C142  1  0.16778000  0.97952000  0.45742000  1.0 -0.1526561458
C  C143  1  0.97952000  0.16778000  0.39528000  1.0 -0.1526561458
C  C144  1  0.45742000  0.39528000  0.16778000  1.0 -0.1526561458
C  C145  1  0.87043000  0.58695000  0.52533000  1.0 -0.1100315369
C  C146  1  0.58695000  0.87043000  0.01729000  1.0 -0.1100315369
C  C147  1  0.52533000  0.01729000  0.87043000  1.0 -0.1100315369
C  C148  1  0.01729000  0.52533000  0.58695000  1.0 -0.1100315369
C  C149  1  0.52533000  0.87043000  0.58695000  1.0 -0.1100315369
C  C150  1  0.01729000  0.58695000  0.87043000  1.0 -0.1044745003
C  C151  1  0.87043000  0.52533000  0.01729000  1.0 -0.1100315369
C  C152  1  0.58695000  0.01729000  0.52533000  1.0 -0.1100315369
C  C153  1  0.58695000  0.52533000  0.87043000  1.0 -0.1044745003
C  C154  1  0.87043000  0.01729000  0.58695000  1.0 -0.1044745003
C  C155  1  0.01729000  0.87043000  0.52533000  1.0 -0.1044745003
C  C156  1  0.52533000  0.58695000  0.01729000  1.0 -0.1100315369
C  C157  1  0.12957000  0.41305000  0.98271000  1.0 -0.1044745003
C  C158  1  0.41305000  0.12957000  0.47467000  1.0 -0.1100315369
C  C159  1  0.47467000  0.98271000  0.41305000  1.0 -0.1044745003
C  C160  1  0.98271000  0.47467000  0.12957000  1.0 -0.1100315369
C  C161  1  0.47467000  0.12957000  0.98271000  1.0 -0.1100315369
C  C162  1  0.98271000  0.41305000  0.47467000  1.0 -0.1100315369
C  C163  1  0.12957000  0.47467000  0.41305000  1.0 -0.1100315369
C  C164  1  0.41305000  0.98271000  0.12957000  1.0 -0.1100315369
C  C165  1  0.41305000  0.47467000  0.98271000  1.0 -0.1100315369
C  C166  1  0.12957000  0.98271000  0.47467000  1.0 -0.1100315369
C  C167  1  0.98271000  0.12957000  0.41305000  1.0 -0.1044745003
C  C168  1  0.47467000  0.41305000  0.12957000  1.0 -0.1100315369
C  C169  1  0.77071000  0.60511000  0.59599000  1.0 0.0621476352
C  C170  1  0.60511000  0.77071000  0.02819000  1.0 0.0621476352
C  C171  1  0.59599000  0.02819000  0.77071000  1.0 0.0621476352
C  C172  1  0.02819000  0.59599000  0.60511000  1.0 0.0621476352
C  C173  1  0.59599000  0.77071000  0.60511000  1.0 0.0621476352
C  C174  1  0.02819000  0.60511000  0.77071000  1.0 0.0621476352
C  C175  1  0.77071000  0.59599000  0.02819000  1.0 0.0621476352
C  C176  1  0.60511000  0.02819000  0.59599000  1.0 0.0621476352
C  C177  1  0.60511000  0.59599000  0.77071000  1.0 0.0621476352
C  C178  1  0.77071000  0.02819000  0.60511000  1.0 0.0621476352
C  C179  1  0.02819000  0.77071000  0.59599000  1.0 0.0621476352
C  C180  1  0.59599000  0.60511000  0.02819000  1.0 0.0621476352
C  C181  1  0.22929000  0.39489000  0.97181000  1.0 0.0621476352
C  C182  1  0.39489000  0.22929000  0.40401000  1.0 0.0621476352
C  C183  1  0.40401000  0.97181000  0.39489000  1.0 0.0621476352
C  C184  1  0.97181000  0.40401000  0.22929000  1.0 0.0621476352
C  C185  1  0.40401000  0.22929000  0.97181000  1.0 0.0621476352
C  C186  1  0.97181000  0.39489000  0.40401000  1.0 0.0621476352
C  C187  1  0.22929000  0.40401000  0.39489000  1.0 0.0621476352
C  C188  1  0.39489000  0.97181000  0.22929000  1.0 0.0621476352
C  C189  1  0.39489000  0.40401000  0.97181000  1.0 0.0621476352
C  C190  1  0.22929000  0.97181000  0.40401000  1.0 0.0621476352
C  C191  1  0.97181000  0.22929000  0.39489000  1.0 0.0621476352
C  C192  1  0.40401000  0.39489000  0.22929000  1.0 0.0621476352
C  C193  1  0.75820000  0.59492000  0.63532000  1.0 -0.1404355997
C  C194  1  0.59492000  0.75820000  0.01156000  1.0 -0.1404355997
C  C195  1  0.63532000  0.01156000  0.75820000  1.0 -0.1404355997
C  C196  1  0.01156000  0.63532000  0.59492000  1.0 -0.1404355997
C  C197  1  0.63532000  0.75820000  0.59492000  1.0 -0.1404355997
C  C198  1  0.01156000  0.59492000  0.75820000  1.0 -0.1404355997
C  C199  1  0.75820000  0.63532000  0.01156000  1.0 -0.1404355997
C  C200  1  0.59492000  0.01156000  0.63532000  1.0 -0.1404355997
C  C201  1  0.59492000  0.63532000  0.75820000  1.0 -0.1404355997
C  C202  1  0.75820000  0.01156000  0.59492000  1.0 -0.1404355997
C  C203  1  0.01156000  0.75820000  0.63532000  1.0 -0.1404355997
C  C204  1  0.63532000  0.59492000  0.01156000  1.0 -0.1404355997
C  C205  1  0.24180000  0.40508000  0.98844000  1.0 -0.1404355997
C  C206  1  0.40508000  0.24180000  0.36468000  1.0 -0.1404355997
C  C207  1  0.36468000  0.98844000  0.40508000  1.0 -0.1404355997
C  C208  1  0.98844000  0.36468000  0.24180000  1.0 -0.1404355997
C  C209  1  0.36468000  0.24180000  0.98844000  1.0 -0.1404355997
C  C210  1  0.98844000  0.40508000  0.36468000  1.0 -0.1404355997
C  C211  1  0.24180000  0.36468000  0.40508000  1.0 -0.1404355997
C  C212  1  0.40508000  0.98844000  0.24180000  1.0 -0.1404355997
C  C213  1  0.40508000  0.36468000  0.98844000  1.0 -0.1404355997
C  C214  1  0.24180000  0.98844000  0.36468000  1.0 -0.1404355997
C  C215  1  0.98844000  0.24180000  0.40508000  1.0 -0.1404355997
C  C216  1  0.36468000  0.40508000  0.24180000  1.0 -0.1404355997
C  C217  1  0.72005000  0.61009000  0.65499000  1.0 -0.1826600946
C  C218  1  0.61009000  0.72005000  0.01487000  1.0 -0.1853895501
C  C219  1  0.65499000  0.01487000  0.72005000  1.0 -0.1826600946
C  C220  1  0.01487000  0.65499000  0.61009000  1.0 -0.1853895501
C  C221  1  0.65499000  0.72005000  0.61009000  1.0 -0.1853895501
C  C222  1  0.01487000  0.61009000  0.72005000  1.0 -0.1853895501
C  C223  1  0.72005000  0.65499000  0.01487000  1.0 -0.1853895501
C  C224  1  0.61009000  0.01487000  0.65499000  1.0 -0.1826600946
C  C225  1  0.61009000  0.65499000  0.72005000  1.0 -0.1826600946
C  C226  1  0.72005000  0.01487000  0.61009000  1.0 -0.1826600946
C  C227  1  0.01487000  0.72005000  0.65499000  1.0 -0.1853895501
C  C228  1  0.65499000  0.61009000  0.01487000  1.0 -0.1853895501
C  C229  1  0.27995000  0.38991000  0.98513000  1.0 -0.1826600946
C  C230  1  0.38991000  0.27995000  0.34501000  1.0 -0.1853895501
C  C231  1  0.34501000  0.98513000  0.38991000  1.0 -0.1853895501
C  C232  1  0.98513000  0.34501000  0.27995000  1.0 -0.1826600946
C  C233  1  0.34501000  0.27995000  0.98513000  1.0 -0.1853895501
C  C234  1  0.98513000  0.38991000  0.34501000  1.0 -0.1826600946
C  C235  1  0.27995000  0.34501000  0.38991000  1.0 -0.1826600946
C  C236  1  0.38991000  0.98513000  0.27995000  1.0 -0.1853895501
C  C237  1  0.38991000  0.34501000  0.98513000  1.0 -0.1826600946
C  C238  1  0.27995000  0.98513000  0.34501000  1.0 -0.1853895501
C  C239  1  0.98513000  0.27995000  0.38991000  1.0 -0.1826600946
C  C240  1  0.34501000  0.38991000  0.27995000  1.0 -0.1826600946
C  C241  1  0.69443000  0.63547000  0.63533000  1.0 0.1640524675
C  C242  1  0.63547000  0.69443000  0.03477000  1.0 0.1640524675
C  C243  1  0.63533000  0.03477000  0.69443000  1.0 0.1640524675
C  C244  1  0.03477000  0.63533000  0.63547000  1.0 0.1640524675
C  C245  1  0.63533000  0.69443000  0.63547000  1.0 0.1640524675
C  C246  1  0.03477000  0.63547000  0.69443000  1.0 0.1640524675
C  C247  1  0.69443000  0.63533000  0.03477000  1.0 0.1640524675
C  C248  1  0.63547000  0.03477000  0.63533000  1.0 0.1640524675
C  C249  1  0.63547000  0.63533000  0.69443000  1.0 0.1640524675
C  C250  1  0.69443000  0.03477000  0.63547000  1.0 0.1640524675
C  C251  1  0.03477000  0.69443000  0.63533000  1.0 0.1640524675
C  C252  1  0.63533000  0.63547000  0.03477000  1.0 0.1640524675
C  C253  1  0.30557000  0.36453000  0.96523000  1.0 0.1640524675
C  C254  1  0.36453000  0.30557000  0.36467000  1.0 0.1640524675
C  C255  1  0.36467000  0.96523000  0.36453000  1.0 0.1640524675
C  C256  1  0.96523000  0.36467000  0.30557000  1.0 0.1640524675
C  C257  1  0.36467000  0.30557000  0.96523000  1.0 0.1640524675
C  C258  1  0.96523000  0.36453000  0.36467000  1.0 0.1640524675
C  C259  1  0.30557000  0.36467000  0.36453000  1.0 0.1640524675
C  C260  1  0.36453000  0.96523000  0.30557000  1.0 0.1640524675
C  C261  1  0.36453000  0.36467000  0.96523000  1.0 0.1640524675
C  C262  1  0.30557000  0.96523000  0.36467000  1.0 0.1640524675
C  C263  1  0.96523000  0.30557000  0.36453000  1.0 0.1640524675
C  C264  1  0.36467000  0.36453000  0.30557000  1.0 0.1640524675
C  C265  1  0.70695000  0.64565000  0.59601000  1.0 -0.1826600946
C  C266  1  0.64565000  0.70695000  0.05139000  1.0 -0.1826600946
C  C267  1  0.59601000  0.05139000  0.70695000  1.0 -0.1826600946
C  C268  1  0.05139000  0.59601000  0.64565000  1.0 -0.1826600946
C  C269  1  0.59601000  0.70695000  0.64565000  1.0 -0.1826600946
C  C270  1  0.05139000  0.64565000  0.70695000  1.0 -0.1826600946
C  C271  1  0.70695000  0.59601000  0.05139000  1.0 -0.1826600946
C  C272  1  0.64565000  0.05139000  0.59601000  1.0 -0.1826600946
C  C273  1  0.64565000  0.59601000  0.70695000  1.0 -0.1826600946
C  C274  1  0.70695000  0.05139000  0.64565000  1.0 -0.1826600946
C  C275  1  0.05139000  0.70695000  0.59601000  1.0 -0.1826600946
C  C276  1  0.59601000  0.64565000  0.05139000  1.0 -0.1826600946
C  C277  1  0.29305000  0.35435000  0.94861000  1.0 -0.1826600946
C  C278  1  0.35435000  0.29305000  0.40399000  1.0 -0.1826600946
C  C279  1  0.40399000  0.94861000  0.35435000  1.0 -0.1826600946
C  C280  1  0.94861000  0.40399000  0.29305000  1.0 -0.1826600946
C  C281  1  0.40399000  0.29305000  0.94861000  1.0 -0.1826600946
C  C282  1  0.94861000  0.35435000  0.40399000  1.0 -0.1826600946
C  C283  1  0.29305000  0.40399000  0.35435000  1.0 -0.1826600946
C  C284  1  0.35435000  0.94861000  0.29305000  1.0 -0.1826600946
C  C285  1  0.35435000  0.40399000  0.94861000  1.0 -0.1826600946
C  C286  1  0.29305000  0.94861000  0.40399000  1.0 -0.1826600946
C  C287  1  0.94861000  0.29305000  0.35435000  1.0 -0.1826600946
C  C288  1  0.40399000  0.35435000  0.29305000  1.0 -0.1826600946
C  C289  1  0.74509000  0.63049000  0.57633000  1.0 -0.1526561458
C  C290  1  0.63049000  0.74509000  0.04809000  1.0 -0.1526561458
C  C291  1  0.57633000  0.04809000  0.74509000  1.0 -0.1526561458
C  C292  1  0.04809000  0.57633000  0.63049000  1.0 -0.1526561458
C  C293  1  0.57633000  0.74509000  0.63049000  1.0 -0.1526561458
C  C294  1  0.04809000  0.63049000  0.74509000  1.0 -0.1526561458
C  C295  1  0.74509000  0.57633000  0.04809000  1.0 -0.1526561458
C  C296  1  0.63049000  0.04809000  0.57633000  1.0 -0.1526561458
C  C297  1  0.63049000  0.57633000  0.74509000  1.0 -0.1526561458
C  C298  1  0.74509000  0.04809000  0.63049000  1.0 -0.1526561458
C  C299  1  0.04809000  0.74509000  0.57633000  1.0 -0.1526561458
C  C300  1  0.57633000  0.63049000  0.04809000  1.0 -0.1526561458
C  C301  1  0.25491000  0.36951000  0.95191000  1.0 -0.1526561458
C  C302  1  0.36951000  0.25491000  0.42367000  1.0 -0.1526561458
C  C303  1  0.42367000  0.95191000  0.36951000  1.0 -0.1526561458
C  C304  1  0.95191000  0.42367000  0.25491000  1.0 -0.1526561458
C  C305  1  0.42367000  0.25491000  0.95191000  1.0 -0.1526561458
C  C306  1  0.95191000  0.36951000  0.42367000  1.0 -0.1526561458
C  C307  1  0.25491000  0.42367000  0.36951000  1.0 -0.1526561458
C  C308  1  0.36951000  0.95191000  0.25491000  1.0 -0.1526561458
C  C309  1  0.36951000  0.42367000  0.95191000  1.0 -0.1526561458
C  C310  1  0.25491000  0.95191000  0.42367000  1.0 -0.1526561458
C  C311  1  0.95191000  0.25491000  0.36951000  1.0 -0.1526561458
C  C312  1  0.42367000  0.36951000  0.25491000  1.0 -0.1526561458
N  N1  1  0.65502000  0.65502000  0.65502000  1.0 -0.1826600946
N  N2  1  0.65502000  0.65502000  0.03494000  1.0 -0.1826600946
N  N3  1  0.65502000  0.03494000  0.65502000  1.0 -0.1826600946
N  N4  1  0.03494000  0.65502000  0.65502000  1.0 -0.1826600946
N  N5  1  0.34498000  0.34498000  0.96506000  1.0 -0.1826600946
N  N6  1  0.34498000  0.34498000  0.34498000  1.0 -0.1826600946
N  N7  1  0.34498000  0.96506000  0.34498000  1.0 -0.1826600946
N  N8  1  0.96506000  0.34498000  0.34498000  1.0 -0.1826600946
O  O1  1  0.94974000  0.49348000  0.54084000  1.0 -0.5441565976
O  O2  1  0.49348000  0.94974000  0.01594000  1.0 -0.5441565976
O  O3  1  0.54084000  0.01594000  0.94974000  1.0 -0.5441565976
O  O4  1  0.01594000  0.54084000  0.49348000  1.0 -0.5456766204
O  O5  1  0.54084000  0.94974000  0.49348000  1.0 -0.5456766204
O  O6  1  0.01594000  0.49348000  0.94974000  1.0 -0.5456766204
O  O7  1  0.94974000  0.54084000  0.01594000  1.0 -0.5441565976
O  O8  1  0.49348000  0.01594000  0.54084000  1.0 -0.5456766204
O  O9  1  0.49348000  0.54084000  0.94974000  1.0 -0.5456766204
O  O10  1  0.94974000  0.01594000  0.49348000  1.0 -0.5441565976
O  O11  1  0.01594000  0.94974000  0.54084000  1.0 -0.5456766204
O  O12  1  0.54084000  0.49348000  0.01594000  1.0 -0.5456766204
O  O13  1  0.05026000  0.50652000  0.98406000  1.0 -0.5456766204
O  O14  1  0.50652000  0.05026000  0.45916000  1.0 -0.5441565976
O  O15  1  0.45916000  0.98406000  0.50652000  1.0 -0.5456766204
O  O16  1  0.98406000  0.45916000  0.05026000  1.0 -0.5441565976
O  O17  1  0.45916000  0.05026000  0.98406000  1.0 -0.5441565976
O  O18  1  0.98406000  0.50652000  0.45916000  1.0 -0.5441565976
O  O19  1  0.05026000  0.45916000  0.50652000  1.0 -0.5441565976
O  O20  1  0.50652000  0.98406000  0.05026000  1.0 -0.5441565976
O  O21  1  0.50652000  0.45916000  0.98406000  1.0 -0.5456766204
O  O22  1  0.05026000  0.98406000  0.45916000  1.0 -0.5456766204
O  O23  1  0.98406000  0.05026000  0.50652000  1.0 -0.5441565976
O  O24  1  0.45916000  0.50652000  0.05026000  1.0 -0.5456766204
O  O25  1  0.94480000  0.55584000  0.49386000  1.0 -0.5120703792
O  O26  1  0.55584000  0.94480000  0.00550000  1.0 -0.5120703792
O  O27  1  0.49386000  0.00550000  0.94480000  1.0 -0.5120703792
O  O28  1  0.00550000  0.49386000  0.55584000  1.0 -0.5120703792
O  O29  1  0.49386000  0.94480000  0.55584000  1.0 -0.5120703792
O  O30  1  0.00550000  0.55584000  0.94480000  1.0 -0.5120703792
O  O31  1  0.94480000  0.49386000  0.00550000  1.0 -0.5120703792
O  O32  1  0.55584000  0.00550000  0.49386000  1.0 -0.5120703792
O  O33  1  0.55584000  0.49386000  0.94480000  1.0 -0.5120703792
O  O34  1  0.94480000  0.00550000  0.55584000  1.0 -0.5120703792
O  O35  1  0.00550000  0.94480000  0.49386000  1.0 -0.5120703792
O  O36  1  0.49386000  0.55584000  0.00550000  1.0 -0.5120703792
O  O37  1  0.05520000  0.44416000  0.99450000  1.0 -0.5120703792
O  O38  1  0.44416000  0.05520000  0.50614000  1.0 -0.5120703792
O  O39  1  0.50614000  0.99450000  0.44416000  1.0 -0.5120703792
O  O40  1  0.99450000  0.50614000  0.05520000  1.0 -0.5120703792
O  O41  1  0.50614000  0.05520000  0.99450000  1.0 -0.5120703792
O  O42  1  0.99450000  0.44416000  0.50614000  1.0 -0.5120703792
O  O43  1  0.05520000  0.50614000  0.44416000  1.0 -0.5120703792
O  O44  1  0.44416000  0.99450000  0.05520000  1.0 -0.5120703792
O  O45  1  0.44416000  0.50614000  0.99450000  1.0 -0.5120703792
O  O46  1  0.05520000  0.99450000  0.50614000  1.0 -0.5120703792
O  O47  1  0.99450000  0.05520000  0.44416000  1.0 -0.5120703792
O  O48  1  0.50614000  0.44416000  0.05520000  1.0 -0.5120703792
O  O49  1  0.00000000  0.41518000  0.58482000  1.0 0.1108626229
O  O50  1  0.41518000  0.00000000  0.00000000  1.0 0.1206923794
O  O51  1  0.58482000  0.00000000  0.00000000  1.0 0.1302480332
O  O52  1  0.00000000  0.58482000  0.41518000  1.0 0.1108626229
O  O53  1  0.58482000  0.00000000  0.41518000  1.0 0.1108626229
O  O54  1  0.00000000  0.41518000  0.00000000  1.0 0.1108626229
O  O55  1  0.00000000  0.58482000  0.00000000  1.0 0.1108626229
O  O56  1  0.41518000  0.00000000  0.58482000  1.0 0.1206923794
O  O57  1  0.41518000  0.58482000  0.00000000  1.0 0.1206923794
O  O58  1  0.00000000  0.00000000  0.41518000  1.0 0.1206923794
O  O59  1  0.00000000  0.00000000  0.58482000  1.0 0.1206923794
O  O60  1  0.58482000  0.41518000  0.00000000  1.0 0.1108626229
