# DDEC6 charges by PACMAN v1.1 (https://github.com/mtap-research/PACMAN-charge/)
data_AVAKOZ_FSR_pacman
_symmetry_space_group_name_H-M   'P 1'
_cell_length_a   35.49000000
_cell_length_b   35.49000000
_cell_length_c   35.49000000
_cell_angle_alpha   90.00000000
_cell_angle_beta   90.00000000
_cell_angle_gamma   90.00000000
_symmetry_Int_Tables_number   1
_chemical_formula_structural   Cu9H102C129N11O15
_chemical_formula_sum   'Cu36 H408 C516 N44 O60'
_cell_volume   44701.07814900
_cell_formula_units_Z   4
loop_
 _symmetry_equiv_pos_site_id
 _symmetry_equiv_pos_as_xyz
  1  'x, y, z'
loop_
 _atom_site_type_symbol
 _atom_site_label
 _atom_site_symmetry_multiplicity
 _atom_site_fract_x
 _atom_site_fract_y
 _atom_site_fract_z
 _atom_site_occupancy
 _atom_site_charge
Cu  Cu1  1  0.28769000  0.50000000  0.00000000  1.0 0.760968508
Cu  Cu2  1  0.71231000  0.50000000  0.00000000  1.0 0.760968508
Cu  Cu3  1  0.00000000  0.28769000  0.50000000  1.0 0.760968508
Cu  Cu4  1  0.00000000  0.71231000  0.50000000  1.0 0.760968508
Cu  Cu5  1  0.50000000  0.00000000  0.28769000  1.0 0.760968508
Cu  Cu6  1  0.50000000  0.00000000  0.71231000  1.0 0.760968508
Cu  Cu7  1  0.00000000  0.78769000  0.50000000  1.0 0.760968508
Cu  Cu8  1  0.00000000  0.21231000  0.50000000  1.0 0.760968508
Cu  Cu9  1  0.78769000  0.50000000  0.00000000  1.0 0.760968508
Cu  Cu10  1  0.21231000  0.50000000  0.00000000  1.0 0.760968508
Cu  Cu11  1  0.50000000  0.00000000  0.21231000  1.0 0.760968508
Cu  Cu12  1  0.50000000  0.00000000  0.78769000  1.0 0.760968508
Cu  Cu13  1  0.50000000  0.52560000  0.00000000  1.0 -0.0270982187
Cu  Cu14  1  0.50000000  0.47440000  0.00000000  1.0 -0.0270982187
Cu  Cu15  1  0.00000000  0.50000000  0.52560000  1.0 -0.0270982187
Cu  Cu16  1  0.00000000  0.50000000  0.47440000  1.0 -0.0270982187
Cu  Cu17  1  0.52560000  0.00000000  0.50000000  1.0 -0.0270982187
Cu  Cu18  1  0.47440000  0.00000000  0.50000000  1.0 -0.0270982187
Cu  Cu19  1  0.02560000  0.00000000  0.50000000  1.0 -0.0270982187
Cu  Cu20  1  0.97440000  0.00000000  0.50000000  1.0 -0.0270982187
Cu  Cu21  1  0.00000000  0.50000000  0.97440000  1.0 -0.0270982187
Cu  Cu22  1  0.00000000  0.50000000  0.02560000  1.0 -0.0270982187
Cu  Cu23  1  0.50000000  0.02560000  0.00000000  1.0 -0.0270982187
Cu  Cu24  1  0.50000000  0.97440000  0.00000000  1.0 -0.0270982187
Cu  Cu25  1  0.50000000  0.50000000  0.02030000  1.0 -0.1345154726
Cu  Cu26  1  0.50000000  0.50000000  0.97970000  1.0 -0.1345154726
Cu  Cu27  1  0.02030000  0.50000000  0.50000000  1.0 -0.1345154726
Cu  Cu28  1  0.97970000  0.50000000  0.50000000  1.0 -0.1345154726
Cu  Cu29  1  0.50000000  0.02030000  0.50000000  1.0 -0.1345154726
Cu  Cu30  1  0.50000000  0.97970000  0.50000000  1.0 -0.1345154726
Cu  Cu31  1  0.00000000  0.00000000  0.47970000  1.0 -0.1345154726
Cu  Cu32  1  0.00000000  0.00000000  0.52030000  1.0 -0.1345154726
Cu  Cu33  1  0.00000000  0.52030000  0.00000000  1.0 -0.1350272083
Cu  Cu34  1  0.00000000  0.47970000  0.00000000  1.0 -0.1350272083
Cu  Cu35  1  0.52030000  0.00000000  0.00000000  1.0 -0.1350272083
Cu  Cu36  1  0.47970000  0.00000000  0.00000000  1.0 -0.1350272083
H  H1  1  0.19370000  0.41590000  0.91420000  1.0 0.1328739053
H  H2  1  0.80630000  0.58410000  0.91420000  1.0 0.1328739053
H  H3  1  0.80630000  0.41590000  0.08580000  1.0 0.1328739053
H  H4  1  0.19370000  0.58410000  0.08580000  1.0 0.1328739053
H  H5  1  0.91420000  0.19370000  0.41590000  1.0 0.1328739053
H  H6  1  0.91420000  0.80630000  0.58410000  1.0 0.1328739053
H  H7  1  0.08580000  0.80630000  0.41590000  1.0 0.1328739053
H  H8  1  0.08580000  0.19370000  0.58410000  1.0 0.1328739053
H  H9  1  0.41590000  0.91420000  0.19370000  1.0 0.1328739053
H  H10  1  0.58410000  0.91420000  0.80630000  1.0 0.1328739053
H  H11  1  0.41590000  0.08580000  0.80630000  1.0 0.1328739053
H  H12  1  0.58410000  0.08580000  0.19370000  1.0 0.1328739053
H  H13  1  0.91590000  0.69370000  0.58580000  1.0 0.1328739053
H  H14  1  0.08410000  0.30630000  0.58580000  1.0 0.1328739053
H  H15  1  0.91590000  0.30630000  0.41420000  1.0 0.1328739053
H  H16  1  0.08410000  0.69370000  0.41420000  1.0 0.1328739053
H  H17  1  0.69370000  0.41420000  0.08410000  1.0 0.1328739053
H  H18  1  0.30630000  0.41420000  0.91590000  1.0 0.1328739053
H  H19  1  0.30630000  0.58580000  0.08410000  1.0 0.1328739053
H  H20  1  0.69370000  0.58580000  0.91590000  1.0 0.1328739053
H  H21  1  0.41420000  0.91590000  0.30630000  1.0 0.1328739053
H  H22  1  0.41420000  0.08410000  0.69370000  1.0 0.1328739053
H  H23  1  0.58580000  0.91590000  0.69370000  1.0 0.1328739053
H  H24  1  0.58580000  0.08410000  0.30630000  1.0 0.1328739053
H  H25  1  0.80630000  0.58410000  0.08580000  1.0 0.1328739053
H  H26  1  0.19370000  0.41590000  0.08580000  1.0 0.1328739053
H  H27  1  0.19370000  0.58410000  0.91420000  1.0 0.1328739053
H  H28  1  0.80630000  0.41590000  0.91420000  1.0 0.1328739053
H  H29  1  0.08580000  0.80630000  0.58410000  1.0 0.1328739053
H  H30  1  0.08580000  0.19370000  0.41590000  1.0 0.1328739053
H  H31  1  0.91420000  0.19370000  0.58410000  1.0 0.1328739053
H  H32  1  0.91420000  0.80630000  0.41590000  1.0 0.1328739053
H  H33  1  0.58410000  0.08580000  0.80630000  1.0 0.1328739053
H  H34  1  0.41590000  0.08580000  0.19370000  1.0 0.1328739053
H  H35  1  0.58410000  0.91420000  0.19370000  1.0 0.1328739053
H  H36  1  0.41590000  0.91420000  0.80630000  1.0 0.1328739053
H  H37  1  0.08410000  0.30630000  0.41420000  1.0 0.1328739053
H  H38  1  0.91590000  0.69370000  0.41420000  1.0 0.1328739053
H  H39  1  0.08410000  0.69370000  0.58580000  1.0 0.1328739053
H  H40  1  0.91590000  0.30630000  0.58580000  1.0 0.1328739053
H  H41  1  0.30630000  0.58580000  0.91590000  1.0 0.1328739053
H  H42  1  0.69370000  0.58580000  0.08410000  1.0 0.1328739053
H  H43  1  0.69370000  0.41420000  0.91590000  1.0 0.1328739053
H  H44  1  0.30630000  0.41420000  0.08410000  1.0 0.1328739053
H  H45  1  0.58580000  0.08410000  0.69370000  1.0 0.1328739053
H  H46  1  0.58580000  0.91590000  0.30630000  1.0 0.1328739053
H  H47  1  0.41420000  0.08410000  0.30630000  1.0 0.1328739053
H  H48  1  0.41420000  0.91590000  0.69370000  1.0 0.1328739053
H  H49  1  0.19400000  0.37000000  0.86830000  1.0 0.1181872629
H  H50  1  0.80600000  0.63000000  0.86830000  1.0 0.1181872629
H  H51  1  0.80600000  0.37000000  0.13170000  1.0 0.1181872629
H  H52  1  0.19400000  0.63000000  0.13170000  1.0 0.1181872629
H  H53  1  0.86830000  0.19400000  0.37000000  1.0 0.1181872629
H  H54  1  0.86830000  0.80600000  0.63000000  1.0 0.1181872629
H  H55  1  0.13170000  0.80600000  0.37000000  1.0 0.1181872629
H  H56  1  0.13170000  0.19400000  0.63000000  1.0 0.1181872629
H  H57  1  0.37000000  0.86830000  0.19400000  1.0 0.1181872629
H  H58  1  0.63000000  0.86830000  0.80600000  1.0 0.1181872629
H  H59  1  0.37000000  0.13170000  0.80600000  1.0 0.1181872629
H  H60  1  0.63000000  0.13170000  0.19400000  1.0 0.1181872629
H  H61  1  0.87000000  0.69400000  0.63170000  1.0 0.1181872629
H  H62  1  0.13000000  0.30600000  0.63170000  1.0 0.1181872629
H  H63  1  0.87000000  0.30600000  0.36830000  1.0 0.1181872629
H  H64  1  0.13000000  0.69400000  0.36830000  1.0 0.1181872629
H  H65  1  0.69400000  0.36830000  0.13000000  1.0 0.1181872629
H  H66  1  0.30600000  0.36830000  0.87000000  1.0 0.1181872629
H  H67  1  0.30600000  0.63170000  0.13000000  1.0 0.1181872629
H  H68  1  0.69400000  0.63170000  0.87000000  1.0 0.1181872629
H  H69  1  0.36830000  0.87000000  0.30600000  1.0 0.1181872629
H  H70  1  0.36830000  0.13000000  0.69400000  1.0 0.1181872629
H  H71  1  0.63170000  0.87000000  0.69400000  1.0 0.1181872629
H  H72  1  0.63170000  0.13000000  0.30600000  1.0 0.1181872629
H  H73  1  0.80600000  0.63000000  0.13170000  1.0 0.1181872629
H  H74  1  0.19400000  0.37000000  0.13170000  1.0 0.1181872629
H  H75  1  0.19400000  0.63000000  0.86830000  1.0 0.1181872629
H  H76  1  0.80600000  0.37000000  0.86830000  1.0 0.1181872629
H  H77  1  0.13170000  0.80600000  0.63000000  1.0 0.1181872629
H  H78  1  0.13170000  0.19400000  0.37000000  1.0 0.1181872629
H  H79  1  0.86830000  0.19400000  0.63000000  1.0 0.1181872629
H  H80  1  0.86830000  0.80600000  0.37000000  1.0 0.1181872629
H  H81  1  0.63000000  0.13170000  0.80600000  1.0 0.1181872629
H  H82  1  0.37000000  0.13170000  0.19400000  1.0 0.1181872629
H  H83  1  0.63000000  0.86830000  0.19400000  1.0 0.1181872629
H  H84  1  0.37000000  0.86830000  0.80600000  1.0 0.1181872629
H  H85  1  0.13000000  0.30600000  0.36830000  1.0 0.1181872629
H  H86  1  0.87000000  0.69400000  0.36830000  1.0 0.1181872629
H  H87  1  0.13000000  0.69400000  0.63170000  1.0 0.1181872629
H  H88  1  0.87000000  0.30600000  0.63170000  1.0 0.1181872629
H  H89  1  0.30600000  0.63170000  0.87000000  1.0 0.1181872629
H  H90  1  0.69400000  0.63170000  0.13000000  1.0 0.1181872629
H  H91  1  0.69400000  0.36830000  0.87000000  1.0 0.1181872629
H  H92  1  0.30600000  0.36830000  0.13000000  1.0 0.1181872629
H  H93  1  0.63170000  0.13000000  0.69400000  1.0 0.1181872629
H  H94  1  0.63170000  0.87000000  0.30600000  1.0 0.1181872629
H  H95  1  0.36830000  0.13000000  0.30600000  1.0 0.1181872629
H  H96  1  0.36830000  0.87000000  0.69400000  1.0 0.1181872629
H  H97  1  0.20460000  0.35190000  0.80550000  1.0 0.1181872629
H  H98  1  0.79540000  0.64810000  0.80550000  1.0 0.1181872629
H  H99  1  0.79540000  0.35190000  0.19450000  1.0 0.1181872629
H  H100  1  0.20460000  0.64810000  0.19450000  1.0 0.1181872629
H  H101  1  0.80550000  0.20460000  0.35190000  1.0 0.1181872629
H  H102  1  0.80550000  0.79540000  0.64810000  1.0 0.1181872629
H  H103  1  0.19450000  0.79540000  0.35190000  1.0 0.1181872629
H  H104  1  0.19450000  0.20460000  0.64810000  1.0 0.1181872629
H  H105  1  0.35190000  0.80550000  0.20460000  1.0 0.1181872629
H  H106  1  0.64810000  0.80550000  0.79540000  1.0 0.1181872629
H  H107  1  0.35190000  0.19450000  0.79540000  1.0 0.1181872629
H  H108  1  0.64810000  0.19450000  0.20460000  1.0 0.1181872629
H  H109  1  0.85190000  0.70460000  0.69450000  1.0 0.1181872629
H  H110  1  0.14810000  0.29540000  0.69450000  1.0 0.1181872629
H  H111  1  0.85190000  0.29540000  0.30550000  1.0 0.1181872629
H  H112  1  0.14810000  0.70460000  0.30550000  1.0 0.1181872629
H  H113  1  0.70460000  0.30550000  0.14810000  1.0 0.1181872629
H  H114  1  0.29540000  0.30550000  0.85190000  1.0 0.1181872629
H  H115  1  0.29540000  0.69450000  0.14810000  1.0 0.1181872629
H  H116  1  0.70460000  0.69450000  0.85190000  1.0 0.1181872629
H  H117  1  0.30550000  0.85190000  0.29540000  1.0 0.1181872629
H  H118  1  0.30550000  0.14810000  0.70460000  1.0 0.1181872629
H  H119  1  0.69450000  0.85190000  0.70460000  1.0 0.1181872629
H  H120  1  0.69450000  0.14810000  0.29540000  1.0 0.1181872629
H  H121  1  0.79540000  0.64810000  0.19450000  1.0 0.1181872629
H  H122  1  0.20460000  0.35190000  0.19450000  1.0 0.1181872629
H  H123  1  0.20460000  0.64810000  0.80550000  1.0 0.1181872629
H  H124  1  0.79540000  0.35190000  0.80550000  1.0 0.1181872629
H  H125  1  0.19450000  0.79540000  0.64810000  1.0 0.1181872629
H  H126  1  0.19450000  0.20460000  0.35190000  1.0 0.1181872629
H  H127  1  0.80550000  0.20460000  0.64810000  1.0 0.1181872629
H  H128  1  0.80550000  0.79540000  0.35190000  1.0 0.1181872629
H  H129  1  0.64810000  0.19450000  0.79540000  1.0 0.1181872629
H  H130  1  0.35190000  0.19450000  0.20460000  1.0 0.1181872629
H  H131  1  0.64810000  0.80550000  0.20460000  1.0 0.1181872629
H  H132  1  0.35190000  0.80550000  0.79540000  1.0 0.1181872629
H  H133  1  0.14810000  0.29540000  0.30550000  1.0 0.1181872629
H  H134  1  0.85190000  0.70460000  0.30550000  1.0 0.1181872629
H  H135  1  0.14810000  0.70460000  0.69450000  1.0 0.1181872629
H  H136  1  0.85190000  0.29540000  0.69450000  1.0 0.1181872629
H  H137  1  0.29540000  0.69450000  0.85190000  1.0 0.1181872629
H  H138  1  0.70460000  0.69450000  0.14810000  1.0 0.1181872629
H  H139  1  0.70460000  0.30550000  0.85190000  1.0 0.1181872629
H  H140  1  0.29540000  0.30550000  0.14810000  1.0 0.1181872629
H  H141  1  0.69450000  0.14810000  0.70460000  1.0 0.1181872629
H  H142  1  0.69450000  0.85190000  0.29540000  1.0 0.1181872629
H  H143  1  0.30550000  0.14810000  0.29540000  1.0 0.1181872629
H  H144  1  0.30550000  0.85190000  0.70460000  1.0 0.1181872629
H  H145  1  0.35320000  0.44550000  0.00000000  1.0 0.1103501589
H  H146  1  0.64680000  0.55450000  0.00000000  1.0 0.1103501589
H  H147  1  0.64680000  0.44550000  0.00000000  1.0 0.1103501589
H  H148  1  0.35320000  0.55450000  0.00000000  1.0 0.1103501589
H  H149  1  0.00000000  0.35320000  0.44550000  1.0 0.1103501589
H  H150  1  0.00000000  0.64680000  0.55450000  1.0 0.1103501589
H  H151  1  0.00000000  0.64680000  0.44550000  1.0 0.1103501589
H  H152  1  0.00000000  0.35320000  0.55450000  1.0 0.1103501589
H  H153  1  0.44550000  0.00000000  0.35320000  1.0 0.1103501589
H  H154  1  0.55450000  0.00000000  0.64680000  1.0 0.1103501589
H  H155  1  0.44550000  0.00000000  0.64680000  1.0 0.1103501589
H  H156  1  0.55450000  0.00000000  0.35320000  1.0 0.1103501589
H  H157  1  0.94550000  0.85320000  0.50000000  1.0 0.1103501589
H  H158  1  0.05450000  0.14680000  0.50000000  1.0 0.1103501589
H  H159  1  0.94550000  0.14680000  0.50000000  1.0 0.1103501589
H  H160  1  0.05450000  0.85320000  0.50000000  1.0 0.1103501589
H  H161  1  0.85320000  0.50000000  0.05450000  1.0 0.1103501589
H  H162  1  0.14680000  0.50000000  0.94550000  1.0 0.1103501589
H  H163  1  0.14680000  0.50000000  0.05450000  1.0 0.1103501589
H  H164  1  0.85320000  0.50000000  0.94550000  1.0 0.1103501589
H  H165  1  0.50000000  0.94550000  0.14680000  1.0 0.1103501589
H  H166  1  0.50000000  0.05450000  0.85320000  1.0 0.1103501589
H  H167  1  0.50000000  0.94550000  0.85320000  1.0 0.1103501589
H  H168  1  0.50000000  0.05450000  0.14680000  1.0 0.1103501589
H  H169  1  0.41220000  0.41540000  0.96590000  1.0 0.0994314059
H  H170  1  0.58780000  0.58460000  0.96590000  1.0 0.0994314059
H  H171  1  0.58780000  0.41540000  0.03410000  1.0 0.0994314059
H  H172  1  0.41220000  0.58460000  0.03410000  1.0 0.0994314059
H  H173  1  0.96590000  0.41220000  0.41540000  1.0 0.0994314059
H  H174  1  0.96590000  0.58780000  0.58460000  1.0 0.0994314059
H  H175  1  0.03410000  0.58780000  0.41540000  1.0 0.0994314059
H  H176  1  0.03410000  0.41220000  0.58460000  1.0 0.0994314059
H  H177  1  0.41540000  0.96590000  0.41220000  1.0 0.0994314059
H  H178  1  0.58460000  0.96590000  0.58780000  1.0 0.0994314059
H  H179  1  0.41540000  0.03410000  0.58780000  1.0 0.0994314059
H  H180  1  0.58460000  0.03410000  0.41220000  1.0 0.0994314059
H  H181  1  0.91540000  0.91220000  0.53410000  1.0 0.0994314059
H  H182  1  0.08460000  0.08780000  0.53410000  1.0 0.0994314059
H  H183  1  0.91540000  0.08780000  0.46590000  1.0 0.0994314059
H  H184  1  0.08460000  0.91220000  0.46590000  1.0 0.0994314059
H  H185  1  0.91220000  0.46590000  0.08460000  1.0 0.0994314059
H  H186  1  0.08780000  0.46590000  0.91540000  1.0 0.0994314059
H  H187  1  0.08780000  0.53410000  0.08460000  1.0 0.0994314059
H  H188  1  0.91220000  0.53410000  0.91540000  1.0 0.0994314059
H  H189  1  0.46590000  0.91540000  0.08780000  1.0 0.0994314059
H  H190  1  0.46590000  0.08460000  0.91220000  1.0 0.0994314059
H  H191  1  0.53410000  0.91540000  0.91220000  1.0 0.0994314059
H  H192  1  0.53410000  0.08460000  0.08780000  1.0 0.0994314059
H  H193  1  0.58780000  0.58460000  0.03410000  1.0 0.0994314059
H  H194  1  0.41220000  0.41540000  0.03410000  1.0 0.0994314059
H  H195  1  0.41220000  0.58460000  0.96590000  1.0 0.0994314059
H  H196  1  0.58780000  0.41540000  0.96590000  1.0 0.0994314059
H  H197  1  0.03410000  0.58780000  0.58460000  1.0 0.0994314059
H  H198  1  0.03410000  0.41220000  0.41540000  1.0 0.0994314059
H  H199  1  0.96590000  0.41220000  0.58460000  1.0 0.0994314059
H  H200  1  0.96590000  0.58780000  0.41540000  1.0 0.0994314059
H  H201  1  0.58460000  0.03410000  0.58780000  1.0 0.0994314059
H  H202  1  0.41540000  0.03410000  0.41220000  1.0 0.0994314059
H  H203  1  0.58460000  0.96590000  0.41220000  1.0 0.0994314059
H  H204  1  0.41540000  0.96590000  0.58780000  1.0 0.0994314059
H  H205  1  0.08460000  0.08780000  0.46590000  1.0 0.0994314059
H  H206  1  0.91540000  0.91220000  0.46590000  1.0 0.0994314059
H  H207  1  0.08460000  0.91220000  0.53410000  1.0 0.0994314059
H  H208  1  0.91540000  0.08780000  0.53410000  1.0 0.0994314059
H  H209  1  0.08780000  0.53410000  0.91540000  1.0 0.0994314059
H  H210  1  0.91220000  0.53410000  0.08460000  1.0 0.0994314059
H  H211  1  0.91220000  0.46590000  0.91540000  1.0 0.0994314059
H  H212  1  0.08780000  0.46590000  0.08460000  1.0 0.0994314059
H  H213  1  0.53410000  0.08460000  0.91220000  1.0 0.0994314059
H  H214  1  0.53410000  0.91540000  0.08780000  1.0 0.0994314059
H  H215  1  0.46590000  0.08460000  0.08780000  1.0 0.0994314059
H  H216  1  0.46590000  0.91540000  0.91220000  1.0 0.0994314059
H  H217  1  0.47040000  0.38230000  0.02210000  1.0 0.0994314059
H  H218  1  0.52960000  0.61770000  0.02210000  1.0 0.0994314059
H  H219  1  0.52960000  0.38230000  0.97790000  1.0 0.0994314059
H  H220  1  0.47040000  0.61770000  0.97790000  1.0 0.0994314059
H  H221  1  0.02210000  0.47040000  0.38230000  1.0 0.0994314059
H  H222  1  0.02210000  0.52960000  0.61770000  1.0 0.0994314059
H  H223  1  0.97790000  0.52960000  0.38230000  1.0 0.0994314059
H  H224  1  0.97790000  0.47040000  0.61770000  1.0 0.0994314059
H  H225  1  0.38230000  0.02210000  0.47040000  1.0 0.0994314059
H  H226  1  0.61770000  0.02210000  0.52960000  1.0 0.0994314059
H  H227  1  0.38230000  0.97790000  0.52960000  1.0 0.0994314059
H  H228  1  0.61770000  0.97790000  0.47040000  1.0 0.0994314059
H  H229  1  0.88230000  0.97040000  0.47790000  1.0 0.0994314059
H  H230  1  0.11770000  0.02960000  0.47790000  1.0 0.0994314059
H  H231  1  0.88230000  0.02960000  0.52210000  1.0 0.0994314059
H  H232  1  0.11770000  0.97040000  0.52210000  1.0 0.0994314059
H  H233  1  0.97040000  0.52210000  0.11770000  1.0 0.0994314059
H  H234  1  0.02960000  0.52210000  0.88230000  1.0 0.0994314059
H  H235  1  0.02960000  0.47790000  0.11770000  1.0 0.0994314059
H  H236  1  0.97040000  0.47790000  0.88230000  1.0 0.0994314059
H  H237  1  0.52210000  0.88230000  0.02960000  1.0 0.0994314059
H  H238  1  0.52210000  0.11770000  0.97040000  1.0 0.0994314059
H  H239  1  0.47790000  0.88230000  0.97040000  1.0 0.0994314059
H  H240  1  0.47790000  0.11770000  0.02960000  1.0 0.0994314059
H  H241  1  0.52960000  0.61770000  0.97790000  1.0 0.0994314059
H  H242  1  0.47040000  0.38230000  0.97790000  1.0 0.0994314059
H  H243  1  0.47040000  0.61770000  0.02210000  1.0 0.0994314059
H  H244  1  0.52960000  0.38230000  0.02210000  1.0 0.0994314059
H  H245  1  0.97790000  0.52960000  0.61770000  1.0 0.0994314059
H  H246  1  0.97790000  0.47040000  0.38230000  1.0 0.0994314059
H  H247  1  0.02210000  0.47040000  0.61770000  1.0 0.0994314059
H  H248  1  0.02210000  0.52960000  0.38230000  1.0 0.0994314059
H  H249  1  0.61770000  0.97790000  0.52960000  1.0 0.0994314059
H  H250  1  0.38230000  0.97790000  0.47040000  1.0 0.0994314059
H  H251  1  0.61770000  0.02210000  0.47040000  1.0 0.0994314059
H  H252  1  0.38230000  0.02210000  0.52960000  1.0 0.0994314059
H  H253  1  0.11770000  0.02960000  0.52210000  1.0 0.0994314059
H  H254  1  0.88230000  0.97040000  0.52210000  1.0 0.0994314059
H  H255  1  0.11770000  0.97040000  0.47790000  1.0 0.0994314059
H  H256  1  0.88230000  0.02960000  0.47790000  1.0 0.0994314059
H  H257  1  0.02960000  0.47790000  0.88230000  1.0 0.0994314059
H  H258  1  0.97040000  0.47790000  0.11770000  1.0 0.0994314059
H  H259  1  0.97040000  0.52210000  0.88230000  1.0 0.0994314059
H  H260  1  0.02960000  0.52210000  0.11770000  1.0 0.0994314059
H  H261  1  0.47790000  0.11770000  0.97040000  1.0 0.0994314059
H  H262  1  0.47790000  0.88230000  0.02960000  1.0 0.0994314059
H  H263  1  0.52210000  0.11770000  0.02960000  1.0 0.0994314059
H  H264  1  0.52210000  0.88230000  0.97040000  1.0 0.0994314059
H  H265  1  0.13340000  0.30910000  0.75010000  1.0 0.1103501589
H  H266  1  0.86660000  0.69090000  0.75010000  1.0 0.1103501589
H  H267  1  0.86660000  0.30910000  0.24990000  1.0 0.1103501589
H  H268  1  0.13340000  0.69090000  0.24990000  1.0 0.1103501589
H  H269  1  0.75010000  0.13340000  0.30910000  1.0 0.1103501589
H  H270  1  0.75010000  0.86660000  0.69090000  1.0 0.1103501589
H  H271  1  0.24990000  0.86660000  0.30910000  1.0 0.1103501589
H  H272  1  0.24990000  0.13340000  0.69090000  1.0 0.1103501589
H  H273  1  0.30910000  0.75010000  0.13340000  1.0 0.1103501589
H  H274  1  0.69090000  0.75010000  0.86660000  1.0 0.1103501589
H  H275  1  0.30910000  0.24990000  0.86660000  1.0 0.1103501589
H  H276  1  0.69090000  0.24990000  0.13340000  1.0 0.1103501589
H  H277  1  0.80910000  0.63340000  0.74990000  1.0 0.1103501589
H  H278  1  0.19090000  0.36660000  0.74990000  1.0 0.1103501589
H  H279  1  0.80910000  0.36660000  0.25010000  1.0 0.1103501589
H  H280  1  0.19090000  0.63340000  0.25010000  1.0 0.1103501589
H  H281  1  0.63340000  0.25010000  0.19090000  1.0 0.1103501589
H  H282  1  0.36660000  0.25010000  0.80910000  1.0 0.1103501589
H  H283  1  0.36660000  0.74990000  0.19090000  1.0 0.1103501589
H  H284  1  0.63340000  0.74990000  0.80910000  1.0 0.1103501589
H  H285  1  0.25010000  0.80910000  0.36660000  1.0 0.1103501589
H  H286  1  0.25010000  0.19090000  0.63340000  1.0 0.1103501589
H  H287  1  0.74990000  0.80910000  0.63340000  1.0 0.1103501589
H  H288  1  0.74990000  0.19090000  0.36660000  1.0 0.1103501589
H  H289  1  0.86660000  0.69090000  0.24990000  1.0 0.1103501589
H  H290  1  0.13340000  0.30910000  0.24990000  1.0 0.1103501589
H  H291  1  0.13340000  0.69090000  0.75010000  1.0 0.1103501589
H  H292  1  0.86660000  0.30910000  0.75010000  1.0 0.1103501589
H  H293  1  0.24990000  0.86660000  0.69090000  1.0 0.1103501589
H  H294  1  0.24990000  0.13340000  0.30910000  1.0 0.1103501589
H  H295  1  0.75010000  0.13340000  0.69090000  1.0 0.1103501589
H  H296  1  0.75010000  0.86660000  0.30910000  1.0 0.1103501589
H  H297  1  0.69090000  0.24990000  0.86660000  1.0 0.1103501589
H  H298  1  0.30910000  0.24990000  0.13340000  1.0 0.1103501589
H  H299  1  0.69090000  0.75010000  0.13340000  1.0 0.1103501589
H  H300  1  0.30910000  0.75010000  0.86660000  1.0 0.1103501589
H  H301  1  0.19090000  0.36660000  0.25010000  1.0 0.1103501589
H  H302  1  0.80910000  0.63340000  0.25010000  1.0 0.1103501589
H  H303  1  0.19090000  0.63340000  0.74990000  1.0 0.1103501589
H  H304  1  0.80910000  0.36660000  0.74990000  1.0 0.1103501589
H  H305  1  0.36660000  0.74990000  0.80910000  1.0 0.1103501589
H  H306  1  0.63340000  0.74990000  0.19090000  1.0 0.1103501589
H  H307  1  0.63340000  0.25010000  0.80910000  1.0 0.1103501589
H  H308  1  0.36660000  0.25010000  0.19090000  1.0 0.1103501589
H  H309  1  0.74990000  0.19090000  0.63340000  1.0 0.1103501589
H  H310  1  0.74990000  0.80910000  0.36660000  1.0 0.1103501589
H  H311  1  0.25010000  0.19090000  0.36660000  1.0 0.1103501589
H  H312  1  0.25010000  0.80910000  0.63340000  1.0 0.1103501589
H  H313  1  0.14940000  0.28300000  0.78190000  1.0 0.1181872629
H  H314  1  0.85060000  0.71700000  0.78190000  1.0 0.1181872629
H  H315  1  0.85060000  0.28300000  0.21810000  1.0 0.1181872629
H  H316  1  0.14940000  0.71700000  0.21810000  1.0 0.1181872629
H  H317  1  0.78190000  0.14940000  0.28300000  1.0 0.1181872629
H  H318  1  0.78190000  0.85060000  0.71700000  1.0 0.1181872629
H  H319  1  0.21810000  0.85060000  0.28300000  1.0 0.1181872629
H  H320  1  0.21810000  0.14940000  0.71700000  1.0 0.1181872629
H  H321  1  0.28300000  0.78190000  0.14940000  1.0 0.1181872629
H  H322  1  0.71700000  0.78190000  0.85060000  1.0 0.1181872629
H  H323  1  0.28300000  0.21810000  0.85060000  1.0 0.1181872629
H  H324  1  0.71700000  0.21810000  0.14940000  1.0 0.1181872629
H  H325  1  0.78300000  0.64940000  0.71810000  1.0 0.1181872629
H  H326  1  0.21700000  0.35060000  0.71810000  1.0 0.1181872629
H  H327  1  0.78300000  0.35060000  0.28190000  1.0 0.1181872629
H  H328  1  0.21700000  0.64940000  0.28190000  1.0 0.1181872629
H  H329  1  0.64940000  0.28190000  0.21700000  1.0 0.1181872629
H  H330  1  0.35060000  0.28190000  0.78300000  1.0 0.1181872629
H  H331  1  0.35060000  0.71810000  0.21700000  1.0 0.1181872629
H  H332  1  0.64940000  0.71810000  0.78300000  1.0 0.1181872629
H  H333  1  0.28190000  0.78300000  0.35060000  1.0 0.1181872629
H  H334  1  0.28190000  0.21700000  0.64940000  1.0 0.1181872629
H  H335  1  0.71810000  0.78300000  0.64940000  1.0 0.1181872629
H  H336  1  0.71810000  0.21700000  0.35060000  1.0 0.1181872629
H  H337  1  0.85060000  0.71700000  0.21810000  1.0 0.1181872629
H  H338  1  0.14940000  0.28300000  0.21810000  1.0 0.1181872629
H  H339  1  0.14940000  0.71700000  0.78190000  1.0 0.1181872629
H  H340  1  0.85060000  0.28300000  0.78190000  1.0 0.1181872629
H  H341  1  0.21810000  0.85060000  0.71700000  1.0 0.1181872629
H  H342  1  0.21810000  0.14940000  0.28300000  1.0 0.1181872629
H  H343  1  0.78190000  0.14940000  0.71700000  1.0 0.1181872629
H  H344  1  0.78190000  0.85060000  0.28300000  1.0 0.1181872629
H  H345  1  0.71700000  0.21810000  0.85060000  1.0 0.1181872629
H  H346  1  0.28300000  0.21810000  0.14940000  1.0 0.1181872629
H  H347  1  0.71700000  0.78190000  0.14940000  1.0 0.1181872629
H  H348  1  0.28300000  0.78190000  0.85060000  1.0 0.1181872629
H  H349  1  0.21700000  0.35060000  0.28190000  1.0 0.1181872629
H  H350  1  0.78300000  0.64940000  0.28190000  1.0 0.1181872629
H  H351  1  0.21700000  0.64940000  0.71810000  1.0 0.1181872629
H  H352  1  0.78300000  0.35060000  0.71810000  1.0 0.1181872629
H  H353  1  0.35060000  0.71810000  0.78300000  1.0 0.1181872629
H  H354  1  0.64940000  0.71810000  0.21700000  1.0 0.1181872629
H  H355  1  0.64940000  0.28190000  0.78300000  1.0 0.1181872629
H  H356  1  0.35060000  0.28190000  0.21700000  1.0 0.1181872629
H  H357  1  0.71810000  0.21700000  0.64940000  1.0 0.1181872629
H  H358  1  0.71810000  0.78300000  0.35060000  1.0 0.1181872629
H  H359  1  0.28190000  0.21700000  0.35060000  1.0 0.1181872629
H  H360  1  0.28190000  0.78300000  0.64940000  1.0 0.1181872629
H  H361  1  0.15040000  0.32680000  0.78680000  1.0 0.1103501589
H  H362  1  0.84960000  0.67320000  0.78680000  1.0 0.1103501589
H  H363  1  0.84960000  0.32680000  0.21320000  1.0 0.1103501589
H  H364  1  0.15040000  0.67320000  0.21320000  1.0 0.1103501589
H  H365  1  0.78680000  0.15040000  0.32680000  1.0 0.1103501589
H  H366  1  0.78680000  0.84960000  0.67320000  1.0 0.1103501589
H  H367  1  0.21320000  0.84960000  0.32680000  1.0 0.1103501589
H  H368  1  0.21320000  0.15040000  0.67320000  1.0 0.1103501589
H  H369  1  0.32680000  0.78680000  0.15040000  1.0 0.1103501589
H  H370  1  0.67320000  0.78680000  0.84960000  1.0 0.1103501589
H  H371  1  0.32680000  0.21320000  0.84960000  1.0 0.1103501589
H  H372  1  0.67320000  0.21320000  0.15040000  1.0 0.1103501589
H  H373  1  0.82680000  0.65040000  0.71320000  1.0 0.1103501589
H  H374  1  0.17320000  0.34960000  0.71320000  1.0 0.1103501589
H  H375  1  0.82680000  0.34960000  0.28680000  1.0 0.1103501589
H  H376  1  0.17320000  0.65040000  0.28680000  1.0 0.1103501589
H  H377  1  0.65040000  0.28680000  0.17320000  1.0 0.1103501589
H  H378  1  0.34960000  0.28680000  0.82680000  1.0 0.1103501589
H  H379  1  0.34960000  0.71320000  0.17320000  1.0 0.1103501589
H  H380  1  0.65040000  0.71320000  0.82680000  1.0 0.1103501589
H  H381  1  0.28680000  0.82680000  0.34960000  1.0 0.1103501589
H  H382  1  0.28680000  0.17320000  0.65040000  1.0 0.1103501589
H  H383  1  0.71320000  0.82680000  0.65040000  1.0 0.1103501589
H  H384  1  0.71320000  0.17320000  0.34960000  1.0 0.1103501589
H  H385  1  0.84960000  0.67320000  0.21320000  1.0 0.1103501589
H  H386  1  0.15040000  0.32680000  0.21320000  1.0 0.1103501589
H  H387  1  0.15040000  0.67320000  0.78680000  1.0 0.1103501589
H  H388  1  0.84960000  0.32680000  0.78680000  1.0 0.1103501589
H  H389  1  0.21320000  0.84960000  0.67320000  1.0 0.1103501589
H  H390  1  0.21320000  0.15040000  0.32680000  1.0 0.1103501589
H  H391  1  0.78680000  0.15040000  0.67320000  1.0 0.1103501589
H  H392  1  0.78680000  0.84960000  0.32680000  1.0 0.1103501589
H  H393  1  0.67320000  0.21320000  0.84960000  1.0 0.1103501589
H  H394  1  0.32680000  0.21320000  0.15040000  1.0 0.1103501589
H  H395  1  0.67320000  0.78680000  0.15040000  1.0 0.1103501589
H  H396  1  0.32680000  0.78680000  0.84960000  1.0 0.1103501589
H  H397  1  0.17320000  0.34960000  0.28680000  1.0 0.1103501589
H  H398  1  0.82680000  0.65040000  0.28680000  1.0 0.1103501589
H  H399  1  0.17320000  0.65040000  0.71320000  1.0 0.1103501589
H  H400  1  0.82680000  0.34960000  0.71320000  1.0 0.1103501589
H  H401  1  0.34960000  0.71320000  0.82680000  1.0 0.1103501589
H  H402  1  0.65040000  0.71320000  0.17320000  1.0 0.1103501589
H  H403  1  0.65040000  0.28680000  0.82680000  1.0 0.1103501589
H  H404  1  0.34960000  0.28680000  0.17320000  1.0 0.1103501589
H  H405  1  0.71320000  0.17320000  0.65040000  1.0 0.1103501589
H  H406  1  0.71320000  0.82680000  0.34960000  1.0 0.1103501589
H  H407  1  0.28680000  0.17320000  0.34960000  1.0 0.1103501589
H  H408  1  0.28680000  0.82680000  0.65040000  1.0 0.1103501589
C  C1  1  0.25000000  0.45030000  0.95030000  1.0 0.560424558
C  C2  1  0.75000000  0.54970000  0.95030000  1.0 0.560424558
C  C3  1  0.75000000  0.45030000  0.04970000  1.0 0.560424558
C  C4  1  0.25000000  0.54970000  0.04970000  1.0 0.560424558
C  C5  1  0.95030000  0.25000000  0.45030000  1.0 0.560424558
C  C6  1  0.95030000  0.75000000  0.54970000  1.0 0.560424558
C  C7  1  0.04970000  0.75000000  0.45030000  1.0 0.560424558
C  C8  1  0.04970000  0.25000000  0.54970000  1.0 0.560424558
C  C9  1  0.45030000  0.95030000  0.25000000  1.0 0.560424558
C  C10  1  0.54970000  0.95030000  0.75000000  1.0 0.560424558
C  C11  1  0.45030000  0.04970000  0.75000000  1.0 0.560424558
C  C12  1  0.54970000  0.04970000  0.25000000  1.0 0.560424558
C  C13  1  0.75000000  0.54970000  0.04970000  1.0 0.560424558
C  C14  1  0.25000000  0.45030000  0.04970000  1.0 0.560424558
C  C15  1  0.25000000  0.54970000  0.95030000  1.0 0.560424558
C  C16  1  0.75000000  0.45030000  0.95030000  1.0 0.560424558
C  C17  1  0.04970000  0.75000000  0.54970000  1.0 0.560424558
C  C18  1  0.04970000  0.25000000  0.45030000  1.0 0.560424558
C  C19  1  0.95030000  0.25000000  0.54970000  1.0 0.560424558
C  C20  1  0.95030000  0.75000000  0.45030000  1.0 0.560424558
C  C21  1  0.54970000  0.04970000  0.75000000  1.0 0.560424558
C  C22  1  0.45030000  0.04970000  0.25000000  1.0 0.560424558
C  C23  1  0.54970000  0.95030000  0.25000000  1.0 0.560424558
C  C24  1  0.45030000  0.95030000  0.75000000  1.0 0.560424558
C  C25  1  0.25000000  0.41960000  0.91960000  1.0 -0.0115287843
C  C26  1  0.75000000  0.58040000  0.91960000  1.0 -0.0115287843
C  C27  1  0.75000000  0.41960000  0.08040000  1.0 -0.0115287843
C  C28  1  0.25000000  0.58040000  0.08040000  1.0 -0.0115287843
C  C29  1  0.91960000  0.25000000  0.41960000  1.0 -0.0115287843
C  C30  1  0.91960000  0.75000000  0.58040000  1.0 -0.0115287843
C  C31  1  0.08040000  0.75000000  0.41960000  1.0 -0.0115287843
C  C32  1  0.08040000  0.25000000  0.58040000  1.0 -0.0115287843
C  C33  1  0.41960000  0.91960000  0.25000000  1.0 -0.0115287843
C  C34  1  0.58040000  0.91960000  0.75000000  1.0 -0.0115287843
C  C35  1  0.41960000  0.08040000  0.75000000  1.0 -0.0115287843
C  C36  1  0.58040000  0.08040000  0.25000000  1.0 -0.0115287843
C  C37  1  0.75000000  0.58040000  0.08040000  1.0 -0.0115287843
C  C38  1  0.25000000  0.41960000  0.08040000  1.0 -0.0115287843
C  C39  1  0.25000000  0.58040000  0.91960000  1.0 -0.0115287843
C  C40  1  0.75000000  0.41960000  0.91960000  1.0 -0.0115287843
C  C41  1  0.08040000  0.75000000  0.58040000  1.0 -0.0115287843
C  C42  1  0.08040000  0.25000000  0.41960000  1.0 -0.0115287843
C  C43  1  0.91960000  0.25000000  0.58040000  1.0 -0.0115287843
C  C44  1  0.91960000  0.75000000  0.41960000  1.0 -0.0115287843
C  C45  1  0.58040000  0.08040000  0.75000000  1.0 -0.0115287843
C  C46  1  0.41960000  0.08040000  0.25000000  1.0 -0.0115287843
C  C47  1  0.58040000  0.91960000  0.25000000  1.0 -0.0115287843
C  C48  1  0.41960000  0.91960000  0.75000000  1.0 -0.0115287843
C  C49  1  0.21640000  0.40640000  0.90530000  1.0 -0.0973672279
C  C50  1  0.78360000  0.59360000  0.90530000  1.0 -0.0973672279
C  C51  1  0.78360000  0.40640000  0.09470000  1.0 -0.0973672279
C  C52  1  0.21640000  0.59360000  0.09470000  1.0 -0.0973672279
C  C53  1  0.90530000  0.21640000  0.40640000  1.0 -0.0973672279
C  C54  1  0.90530000  0.78360000  0.59360000  1.0 -0.0973672279
C  C55  1  0.09470000  0.78360000  0.40640000  1.0 -0.0973672279
C  C56  1  0.09470000  0.21640000  0.59360000  1.0 -0.0973672279
C  C57  1  0.40640000  0.90530000  0.21640000  1.0 -0.0973672279
C  C58  1  0.59360000  0.90530000  0.78360000  1.0 -0.0973672279
C  C59  1  0.40640000  0.09470000  0.78360000  1.0 -0.0973672279
C  C60  1  0.59360000  0.09470000  0.21640000  1.0 -0.0973672279
C  C61  1  0.90640000  0.71640000  0.59470000  1.0 -0.0973672279
C  C62  1  0.09360000  0.28360000  0.59470000  1.0 -0.0973672279
C  C63  1  0.90640000  0.28360000  0.40530000  1.0 -0.0973672279
C  C64  1  0.09360000  0.71640000  0.40530000  1.0 -0.0973672279
C  C65  1  0.71640000  0.40530000  0.09360000  1.0 -0.0973672279
C  C66  1  0.28360000  0.40530000  0.90640000  1.0 -0.0973672279
C  C67  1  0.28360000  0.59470000  0.09360000  1.0 -0.0973672279
C  C68  1  0.71640000  0.59470000  0.90640000  1.0 -0.0973672279
C  C69  1  0.40530000  0.90640000  0.28360000  1.0 -0.0973672279
C  C70  1  0.40530000  0.09360000  0.71640000  1.0 -0.0973672279
C  C71  1  0.59470000  0.90640000  0.71640000  1.0 -0.0973672279
C  C72  1  0.59470000  0.09360000  0.28360000  1.0 -0.0973672279
C  C73  1  0.78360000  0.59360000  0.09470000  1.0 -0.0973672279
C  C74  1  0.21640000  0.40640000  0.09470000  1.0 -0.0973672279
C  C75  1  0.21640000  0.59360000  0.90530000  1.0 -0.0973672279
C  C76  1  0.78360000  0.40640000  0.90530000  1.0 -0.0973672279
C  C77  1  0.09470000  0.78360000  0.59360000  1.0 -0.0973672279
C  C78  1  0.09470000  0.21640000  0.40640000  1.0 -0.0973672279
C  C79  1  0.90530000  0.21640000  0.59360000  1.0 -0.0973672279
C  C80  1  0.90530000  0.78360000  0.40640000  1.0 -0.0973672279
C  C81  1  0.59360000  0.09470000  0.78360000  1.0 -0.0973672279
C  C82  1  0.40640000  0.09470000  0.21640000  1.0 -0.0973672279
C  C83  1  0.59360000  0.90530000  0.21640000  1.0 -0.0973672279
C  C84  1  0.40640000  0.90530000  0.78360000  1.0 -0.0973672279
C  C85  1  0.09360000  0.28360000  0.40530000  1.0 -0.0973672279
C  C86  1  0.90640000  0.71640000  0.40530000  1.0 -0.0973672279
C  C87  1  0.09360000  0.71640000  0.59470000  1.0 -0.0973672279
C  C88  1  0.90640000  0.28360000  0.59470000  1.0 -0.0973672279
C  C89  1  0.28360000  0.59470000  0.90640000  1.0 -0.0973672279
C  C90  1  0.71640000  0.59470000  0.09360000  1.0 -0.0973672279
C  C91  1  0.71640000  0.40530000  0.90640000  1.0 -0.0973672279
C  C92  1  0.28360000  0.40530000  0.09360000  1.0 -0.0973672279
C  C93  1  0.59470000  0.09360000  0.71640000  1.0 -0.0973672279
C  C94  1  0.59470000  0.90640000  0.28360000  1.0 -0.0973672279
C  C95  1  0.40530000  0.09360000  0.28360000  1.0 -0.0973672279
C  C96  1  0.40530000  0.90640000  0.71640000  1.0 -0.0973672279
C  C97  1  0.21690000  0.37880000  0.87780000  1.0 -0.1569415761
C  C98  1  0.78310000  0.62120000  0.87780000  1.0 -0.1569415761
C  C99  1  0.78310000  0.37880000  0.12220000  1.0 -0.1569415761
C  C100  1  0.21690000  0.62120000  0.12220000  1.0 -0.1569415761
C  C101  1  0.87780000  0.21690000  0.37880000  1.0 -0.1569415761
C  C102  1  0.87780000  0.78310000  0.62120000  1.0 -0.1569415761
C  C103  1  0.12220000  0.78310000  0.37880000  1.0 -0.1569415761
C  C104  1  0.12220000  0.21690000  0.62120000  1.0 -0.1569415761
C  C105  1  0.37880000  0.87780000  0.21690000  1.0 -0.1569415761
C  C106  1  0.62120000  0.87780000  0.78310000  1.0 -0.1569415761
C  C107  1  0.37880000  0.12220000  0.78310000  1.0 -0.1569415761
C  C108  1  0.62120000  0.12220000  0.21690000  1.0 -0.1569415761
C  C109  1  0.87880000  0.71690000  0.62220000  1.0 -0.1569415761
C  C110  1  0.12120000  0.28310000  0.62220000  1.0 -0.1569415761
C  C111  1  0.87880000  0.28310000  0.37780000  1.0 -0.1569415761
C  C112  1  0.12120000  0.71690000  0.37780000  1.0 -0.1569415761
C  C113  1  0.71690000  0.37780000  0.12120000  1.0 -0.1569415761
C  C114  1  0.28310000  0.37780000  0.87880000  1.0 -0.1569415761
C  C115  1  0.28310000  0.62220000  0.12120000  1.0 -0.1569415761
C  C116  1  0.71690000  0.62220000  0.87880000  1.0 -0.1569415761
C  C117  1  0.37780000  0.87880000  0.28310000  1.0 -0.1569415761
C  C118  1  0.37780000  0.12120000  0.71690000  1.0 -0.1569415761
C  C119  1  0.62220000  0.87880000  0.71690000  1.0 -0.1569415761
C  C120  1  0.62220000  0.12120000  0.28310000  1.0 -0.1569415761
C  C121  1  0.78310000  0.62120000  0.12220000  1.0 -0.1569415761
C  C122  1  0.21690000  0.37880000  0.12220000  1.0 -0.1569415761
C  C123  1  0.21690000  0.62120000  0.87780000  1.0 -0.1569415761
C  C124  1  0.78310000  0.37880000  0.87780000  1.0 -0.1569415761
C  C125  1  0.12220000  0.78310000  0.62120000  1.0 -0.1569415761
C  C126  1  0.12220000  0.21690000  0.37880000  1.0 -0.1569415761
C  C127  1  0.87780000  0.21690000  0.62120000  1.0 -0.1569415761
C  C128  1  0.87780000  0.78310000  0.37880000  1.0 -0.1569415761
C  C129  1  0.62120000  0.12220000  0.78310000  1.0 -0.1569415761
C  C130  1  0.37880000  0.12220000  0.21690000  1.0 -0.1569415761
C  C131  1  0.62120000  0.87780000  0.21690000  1.0 -0.1569415761
C  C132  1  0.37880000  0.87780000  0.78310000  1.0 -0.1569415761
C  C133  1  0.12120000  0.28310000  0.37780000  1.0 -0.1569415761
C  C134  1  0.87880000  0.71690000  0.37780000  1.0 -0.1569415761
C  C135  1  0.12120000  0.71690000  0.62220000  1.0 -0.1569415761
C  C136  1  0.87880000  0.28310000  0.62220000  1.0 -0.1569415761
C  C137  1  0.28310000  0.62220000  0.87880000  1.0 -0.1569415761
C  C138  1  0.71690000  0.62220000  0.12120000  1.0 -0.1569415761
C  C139  1  0.71690000  0.37780000  0.87880000  1.0 -0.1569415761
C  C140  1  0.28310000  0.37780000  0.12120000  1.0 -0.1569415761
C  C141  1  0.62220000  0.12120000  0.71690000  1.0 -0.1569415761
C  C142  1  0.62220000  0.87880000  0.28310000  1.0 -0.1569415761
C  C143  1  0.37780000  0.12120000  0.28310000  1.0 -0.1569415761
C  C144  1  0.37780000  0.87880000  0.71690000  1.0 -0.1569415761
C  C145  1  0.25000000  0.36370000  0.86370000  1.0 0.0753804437
C  C146  1  0.75000000  0.63630000  0.86370000  1.0 0.0753804437
C  C147  1  0.75000000  0.36370000  0.13630000  1.0 0.0753804437
C  C148  1  0.25000000  0.63630000  0.13630000  1.0 0.0753804437
C  C149  1  0.86370000  0.25000000  0.36370000  1.0 0.0753804437
C  C150  1  0.86370000  0.75000000  0.63630000  1.0 0.0753804437
C  C151  1  0.13630000  0.75000000  0.36370000  1.0 0.0753804437
C  C152  1  0.13630000  0.25000000  0.63630000  1.0 0.0753804437
C  C153  1  0.36370000  0.86370000  0.25000000  1.0 0.0753804437
C  C154  1  0.63630000  0.86370000  0.75000000  1.0 0.0753804437
C  C155  1  0.36370000  0.13630000  0.75000000  1.0 0.0753804437
C  C156  1  0.63630000  0.13630000  0.25000000  1.0 0.0753804437
C  C157  1  0.75000000  0.63630000  0.13630000  1.0 0.0753804437
C  C158  1  0.25000000  0.36370000  0.13630000  1.0 0.0753804437
C  C159  1  0.25000000  0.63630000  0.86370000  1.0 0.0753804437
C  C160  1  0.75000000  0.36370000  0.86370000  1.0 0.0753804437
C  C161  1  0.13630000  0.75000000  0.63630000  1.0 0.0753804437
C  C162  1  0.13630000  0.25000000  0.36370000  1.0 0.0753804437
C  C163  1  0.86370000  0.25000000  0.63630000  1.0 0.0753804437
C  C164  1  0.86370000  0.75000000  0.36370000  1.0 0.0753804437
C  C165  1  0.63630000  0.13630000  0.75000000  1.0 0.0753804437
C  C166  1  0.36370000  0.13630000  0.25000000  1.0 0.0753804437
C  C167  1  0.63630000  0.86370000  0.25000000  1.0 0.0753804437
C  C168  1  0.36370000  0.86370000  0.75000000  1.0 0.0753804437
C  C169  1  0.25000000  0.33380000  0.83380000  1.0 0.0545638816
C  C170  1  0.75000000  0.66620000  0.83380000  1.0 0.0545638816
C  C171  1  0.75000000  0.33380000  0.16620000  1.0 0.0545638816
C  C172  1  0.25000000  0.66620000  0.16620000  1.0 0.0545638816
C  C173  1  0.83380000  0.25000000  0.33380000  1.0 0.0545638816
C  C174  1  0.83380000  0.75000000  0.66620000  1.0 0.0545638816
C  C175  1  0.16620000  0.75000000  0.33380000  1.0 0.0545638816
C  C176  1  0.16620000  0.25000000  0.66620000  1.0 0.0545638816
C  C177  1  0.33380000  0.83380000  0.25000000  1.0 0.0545638816
C  C178  1  0.66620000  0.83380000  0.75000000  1.0 0.0545638816
C  C179  1  0.33380000  0.16620000  0.75000000  1.0 0.0545638816
C  C180  1  0.66620000  0.16620000  0.25000000  1.0 0.0545638816
C  C181  1  0.75000000  0.66620000  0.16620000  1.0 0.0545638816
C  C182  1  0.25000000  0.33380000  0.16620000  1.0 0.0545638816
C  C183  1  0.25000000  0.66620000  0.83380000  1.0 0.0545638816
C  C184  1  0.75000000  0.33380000  0.83380000  1.0 0.0545638816
C  C185  1  0.16620000  0.75000000  0.66620000  1.0 0.0545638816
C  C186  1  0.16620000  0.25000000  0.33380000  1.0 0.0545638816
C  C187  1  0.83380000  0.25000000  0.66620000  1.0 0.0545638816
C  C188  1  0.83380000  0.75000000  0.33380000  1.0 0.0545638816
C  C189  1  0.66620000  0.16620000  0.75000000  1.0 0.0545638816
C  C190  1  0.33380000  0.16620000  0.25000000  1.0 0.0545638816
C  C191  1  0.66620000  0.83380000  0.25000000  1.0 0.0545638816
C  C192  1  0.33380000  0.83380000  0.75000000  1.0 0.0545638816
C  C193  1  0.22250000  0.33280000  0.80650000  1.0 -0.1970600215
C  C194  1  0.77750000  0.66720000  0.80650000  1.0 -0.1970600215
C  C195  1  0.77750000  0.33280000  0.19350000  1.0 -0.1970600215
C  C196  1  0.22250000  0.66720000  0.19350000  1.0 -0.1970600215
C  C197  1  0.80650000  0.22250000  0.33280000  1.0 -0.1970600215
C  C198  1  0.80650000  0.77750000  0.66720000  1.0 -0.1970600215
C  C199  1  0.19350000  0.77750000  0.33280000  1.0 -0.1970600215
C  C200  1  0.19350000  0.22250000  0.66720000  1.0 -0.1970600215
C  C201  1  0.33280000  0.80650000  0.22250000  1.0 -0.1970600215
C  C202  1  0.66720000  0.80650000  0.77750000  1.0 -0.1970600215
C  C203  1  0.33280000  0.19350000  0.77750000  1.0 -0.1970600215
C  C204  1  0.66720000  0.19350000  0.22250000  1.0 -0.1970600215
C  C205  1  0.83280000  0.72250000  0.69350000  1.0 -0.1970600215
C  C206  1  0.16720000  0.27750000  0.69350000  1.0 -0.1970600215
C  C207  1  0.83280000  0.27750000  0.30650000  1.0 -0.1970600215
C  C208  1  0.16720000  0.72250000  0.30650000  1.0 -0.1970600215
C  C209  1  0.72250000  0.30650000  0.16720000  1.0 -0.1970600215
C  C210  1  0.27750000  0.30650000  0.83280000  1.0 -0.1970600215
C  C211  1  0.27750000  0.69350000  0.16720000  1.0 -0.1970600215
C  C212  1  0.72250000  0.69350000  0.83280000  1.0 -0.1970600215
C  C213  1  0.30650000  0.83280000  0.27750000  1.0 -0.1970600215
C  C214  1  0.30650000  0.16720000  0.72250000  1.0 -0.1970600215
C  C215  1  0.69350000  0.83280000  0.72250000  1.0 -0.1970600215
C  C216  1  0.69350000  0.16720000  0.27750000  1.0 -0.1970600215
C  C217  1  0.77750000  0.66720000  0.19350000  1.0 -0.1970600215
C  C218  1  0.22250000  0.33280000  0.19350000  1.0 -0.1970600215
C  C219  1  0.22250000  0.66720000  0.80650000  1.0 -0.1970600215
C  C220  1  0.77750000  0.33280000  0.80650000  1.0 -0.1970600215
C  C221  1  0.19350000  0.77750000  0.66720000  1.0 -0.1970600215
C  C222  1  0.19350000  0.22250000  0.33280000  1.0 -0.1970600215
C  C223  1  0.80650000  0.22250000  0.66720000  1.0 -0.1970600215
C  C224  1  0.80650000  0.77750000  0.33280000  1.0 -0.1970600215
C  C225  1  0.66720000  0.19350000  0.77750000  1.0 -0.1970600215
C  C226  1  0.33280000  0.19350000  0.22250000  1.0 -0.1970600215
C  C227  1  0.66720000  0.80650000  0.22250000  1.0 -0.1970600215
C  C228  1  0.33280000  0.80650000  0.77750000  1.0 -0.1970600215
C  C229  1  0.16720000  0.27750000  0.30650000  1.0 -0.1970600215
C  C230  1  0.83280000  0.72250000  0.30650000  1.0 -0.1970600215
C  C231  1  0.16720000  0.72250000  0.69350000  1.0 -0.1970600215
C  C232  1  0.83280000  0.27750000  0.69350000  1.0 -0.1970600215
C  C233  1  0.27750000  0.69350000  0.83280000  1.0 -0.1970600215
C  C234  1  0.72250000  0.69350000  0.16720000  1.0 -0.1970600215
C  C235  1  0.72250000  0.30650000  0.83280000  1.0 -0.1970600215
C  C236  1  0.27750000  0.30650000  0.16720000  1.0 -0.1970600215
C  C237  1  0.69350000  0.16720000  0.72250000  1.0 -0.1970600215
C  C238  1  0.69350000  0.83280000  0.27750000  1.0 -0.1970600215
C  C239  1  0.30650000  0.16720000  0.27750000  1.0 -0.1970600215
C  C240  1  0.30650000  0.83280000  0.72250000  1.0 -0.1970600215
C  C241  1  0.22110000  0.30360000  0.78040000  1.0 -0.0174791896
C  C242  1  0.77890000  0.69640000  0.78040000  1.0 -0.0174791896
C  C243  1  0.77890000  0.30360000  0.21960000  1.0 -0.0174791896
C  C244  1  0.22110000  0.69640000  0.21960000  1.0 -0.0174791896
C  C245  1  0.78040000  0.22110000  0.30360000  1.0 -0.0174791896
C  C246  1  0.78040000  0.77890000  0.69640000  1.0 -0.0174791896
C  C247  1  0.21960000  0.77890000  0.30360000  1.0 -0.0174791896
C  C248  1  0.21960000  0.22110000  0.69640000  1.0 -0.0174791896
C  C249  1  0.30360000  0.78040000  0.22110000  1.0 -0.0174791896
C  C250  1  0.69640000  0.78040000  0.77890000  1.0 -0.0174791896
C  C251  1  0.30360000  0.21960000  0.77890000  1.0 -0.0174791896
C  C252  1  0.69640000  0.21960000  0.22110000  1.0 -0.0174791896
C  C253  1  0.80360000  0.72110000  0.71960000  1.0 -0.0174791896
C  C254  1  0.19640000  0.27890000  0.71960000  1.0 -0.0174791896
C  C255  1  0.80360000  0.27890000  0.28040000  1.0 -0.0174791896
C  C256  1  0.19640000  0.72110000  0.28040000  1.0 -0.0174791896
C  C257  1  0.72110000  0.28040000  0.19640000  1.0 -0.0174791896
C  C258  1  0.27890000  0.28040000  0.80360000  1.0 -0.0174791896
C  C259  1  0.27890000  0.71960000  0.19640000  1.0 -0.0174791896
C  C260  1  0.72110000  0.71960000  0.80360000  1.0 -0.0174791896
C  C261  1  0.28040000  0.80360000  0.27890000  1.0 -0.0174791896
C  C262  1  0.28040000  0.19640000  0.72110000  1.0 -0.0174791896
C  C263  1  0.71960000  0.80360000  0.72110000  1.0 -0.0174791896
C  C264  1  0.71960000  0.19640000  0.27890000  1.0 -0.0174791896
C  C265  1  0.77890000  0.69640000  0.21960000  1.0 -0.0174791896
C  C266  1  0.22110000  0.30360000  0.21960000  1.0 -0.0174791896
C  C267  1  0.22110000  0.69640000  0.78040000  1.0 -0.0174791896
C  C268  1  0.77890000  0.30360000  0.78040000  1.0 -0.0174791896
C  C269  1  0.21960000  0.77890000  0.69640000  1.0 -0.0174791896
C  C270  1  0.21960000  0.22110000  0.30360000  1.0 -0.0174791896
C  C271  1  0.78040000  0.22110000  0.69640000  1.0 -0.0174791896
C  C272  1  0.78040000  0.77890000  0.30360000  1.0 -0.0174791896
C  C273  1  0.69640000  0.21960000  0.77890000  1.0 -0.0174791896
C  C274  1  0.30360000  0.21960000  0.22110000  1.0 -0.0174791896
C  C275  1  0.69640000  0.78040000  0.22110000  1.0 -0.0174791896
C  C276  1  0.30360000  0.78040000  0.77890000  1.0 -0.0174791896
C  C277  1  0.19640000  0.27890000  0.28040000  1.0 -0.0174791896
C  C278  1  0.80360000  0.72110000  0.28040000  1.0 -0.0174791896
C  C279  1  0.19640000  0.72110000  0.71960000  1.0 -0.0174791896
C  C280  1  0.80360000  0.27890000  0.71960000  1.0 -0.0174791896
C  C281  1  0.27890000  0.71960000  0.80360000  1.0 -0.0174791896
C  C282  1  0.72110000  0.71960000  0.19640000  1.0 -0.0174791896
C  C283  1  0.72110000  0.28040000  0.80360000  1.0 -0.0174791896
C  C284  1  0.27890000  0.28040000  0.19640000  1.0 -0.0174791896
C  C285  1  0.71960000  0.19640000  0.72110000  1.0 -0.0174791896
C  C286  1  0.71960000  0.80360000  0.27890000  1.0 -0.0174791896
C  C287  1  0.28040000  0.19640000  0.27890000  1.0 -0.0174791896
C  C288  1  0.28040000  0.80360000  0.72110000  1.0 -0.0174791896
C  C289  1  0.25000000  0.27830000  0.77830000  1.0 0.0418964214
C  C290  1  0.75000000  0.72170000  0.77830000  1.0 0.0418964214
C  C291  1  0.75000000  0.27830000  0.22170000  1.0 0.0418964214
C  C292  1  0.25000000  0.72170000  0.22170000  1.0 0.0418964214
C  C293  1  0.77830000  0.25000000  0.27830000  1.0 0.0418964214
C  C294  1  0.77830000  0.75000000  0.72170000  1.0 0.0418964214
C  C295  1  0.22170000  0.75000000  0.27830000  1.0 0.0418964214
C  C296  1  0.22170000  0.25000000  0.72170000  1.0 0.0418964214
C  C297  1  0.27830000  0.77830000  0.25000000  1.0 0.0418964214
C  C298  1  0.72170000  0.77830000  0.75000000  1.0 0.0418964214
C  C299  1  0.27830000  0.22170000  0.75000000  1.0 0.0418964214
C  C300  1  0.72170000  0.22170000  0.25000000  1.0 0.0418964214
C  C301  1  0.75000000  0.72170000  0.22170000  1.0 0.0418964214
C  C302  1  0.25000000  0.27830000  0.22170000  1.0 0.0418964214
C  C303  1  0.25000000  0.72170000  0.77830000  1.0 0.0418964214
C  C304  1  0.75000000  0.27830000  0.77830000  1.0 0.0418964214
C  C305  1  0.22170000  0.75000000  0.72170000  1.0 0.0418964214
C  C306  1  0.22170000  0.25000000  0.27830000  1.0 0.0418964214
C  C307  1  0.77830000  0.25000000  0.72170000  1.0 0.0418964214
C  C308  1  0.77830000  0.75000000  0.27830000  1.0 0.0418964214
C  C309  1  0.72170000  0.22170000  0.75000000  1.0 0.0418964214
C  C310  1  0.27830000  0.22170000  0.25000000  1.0 0.0418964214
C  C311  1  0.72170000  0.77830000  0.25000000  1.0 0.0418964214
C  C312  1  0.27830000  0.77830000  0.75000000  1.0 0.0418964214
C  C313  1  0.19230000  0.30770000  0.75000000  1.0 0.1898917603
C  C314  1  0.80770000  0.69230000  0.75000000  1.0 0.1898917603
C  C315  1  0.80770000  0.30770000  0.25000000  1.0 0.1898917603
C  C316  1  0.19230000  0.69230000  0.25000000  1.0 0.1898917603
C  C317  1  0.75000000  0.19230000  0.30770000  1.0 0.1898917603
C  C318  1  0.75000000  0.80770000  0.69230000  1.0 0.1898917603
C  C319  1  0.25000000  0.80770000  0.30770000  1.0 0.1898917603
C  C320  1  0.25000000  0.19230000  0.69230000  1.0 0.1898917603
C  C321  1  0.30770000  0.75000000  0.19230000  1.0 0.1898917603
C  C322  1  0.69230000  0.75000000  0.80770000  1.0 0.1898917603
C  C323  1  0.30770000  0.25000000  0.80770000  1.0 0.1898917603
C  C324  1  0.69230000  0.25000000  0.19230000  1.0 0.1898917603
C  C325  1  0.80770000  0.69230000  0.25000000  1.0 0.1898917603
C  C326  1  0.19230000  0.30770000  0.25000000  1.0 0.1898917603
C  C327  1  0.19230000  0.69230000  0.75000000  1.0 0.1898917603
C  C328  1  0.80770000  0.30770000  0.75000000  1.0 0.1898917603
C  C329  1  0.25000000  0.80770000  0.69230000  1.0 0.1898917603
C  C330  1  0.25000000  0.19230000  0.30770000  1.0 0.1898917603
C  C331  1  0.75000000  0.19230000  0.69230000  1.0 0.1898917603
C  C332  1  0.75000000  0.80770000  0.30770000  1.0 0.1898917603
C  C333  1  0.69230000  0.25000000  0.80770000  1.0 0.1898917603
C  C334  1  0.30770000  0.25000000  0.19230000  1.0 0.1898917603
C  C335  1  0.69230000  0.75000000  0.19230000  1.0 0.1898917603
C  C336  1  0.30770000  0.75000000  0.80770000  1.0 0.1898917603
C  C337  1  0.36640000  0.46820000  0.00000000  1.0 0.0091154343
C  C338  1  0.63360000  0.53180000  0.00000000  1.0 0.0091154343
C  C339  1  0.63360000  0.46820000  0.00000000  1.0 0.0091154343
C  C340  1  0.36640000  0.53180000  0.00000000  1.0 0.0091154343
C  C341  1  0.00000000  0.36640000  0.46820000  1.0 0.0091154343
C  C342  1  0.00000000  0.63360000  0.53180000  1.0 0.0091154343
C  C343  1  0.00000000  0.63360000  0.46820000  1.0 0.0091154343
C  C344  1  0.00000000  0.36640000  0.53180000  1.0 0.0091154343
C  C345  1  0.46820000  0.00000000  0.36640000  1.0 0.0091154343
C  C346  1  0.53180000  0.00000000  0.63360000  1.0 0.0091154343
C  C347  1  0.46820000  0.00000000  0.63360000  1.0 0.0091154343
C  C348  1  0.53180000  0.00000000  0.36640000  1.0 0.0091154343
C  C349  1  0.96820000  0.86640000  0.50000000  1.0 0.0091154343
C  C350  1  0.03180000  0.13360000  0.50000000  1.0 0.0091154343
C  C351  1  0.96820000  0.13360000  0.50000000  1.0 0.0091154343
C  C352  1  0.03180000  0.86640000  0.50000000  1.0 0.0091154343
C  C353  1  0.86640000  0.50000000  0.03180000  1.0 0.0091154343
C  C354  1  0.13360000  0.50000000  0.96820000  1.0 0.0091154343
C  C355  1  0.13360000  0.50000000  0.03180000  1.0 0.0091154343
C  C356  1  0.86640000  0.50000000  0.96820000  1.0 0.0091154343
C  C357  1  0.50000000  0.96820000  0.13360000  1.0 0.0091154343
C  C358  1  0.50000000  0.03180000  0.86640000  1.0 0.0091154343
C  C359  1  0.50000000  0.96820000  0.86640000  1.0 0.0091154343
C  C360  1  0.50000000  0.03180000  0.13360000  1.0 0.0091154343
C  C361  1  0.40460000  0.46800000  0.00000000  1.0 -0.0381476723
C  C362  1  0.59540000  0.53200000  0.00000000  1.0 -0.0381476723
C  C363  1  0.59540000  0.46800000  0.00000000  1.0 -0.0381476723
C  C364  1  0.40460000  0.53200000  0.00000000  1.0 -0.0381476723
C  C365  1  0.00000000  0.40460000  0.46800000  1.0 -0.0381476723
C  C366  1  0.00000000  0.59540000  0.53200000  1.0 -0.0381476723
C  C367  1  0.00000000  0.59540000  0.46800000  1.0 -0.0381476723
C  C368  1  0.00000000  0.40460000  0.53200000  1.0 -0.0381476723
C  C369  1  0.46800000  0.00000000  0.40460000  1.0 -0.0381476723
C  C370  1  0.53200000  0.00000000  0.59540000  1.0 -0.0381476723
C  C371  1  0.46800000  0.00000000  0.59540000  1.0 -0.0381476723
C  C372  1  0.53200000  0.00000000  0.40460000  1.0 -0.0381476723
C  C373  1  0.96800000  0.90460000  0.50000000  1.0 -0.0381476723
C  C374  1  0.03200000  0.09540000  0.50000000  1.0 -0.0381476723
C  C375  1  0.96800000  0.09540000  0.50000000  1.0 -0.0381476723
C  C376  1  0.03200000  0.90460000  0.50000000  1.0 -0.0381476723
C  C377  1  0.90460000  0.50000000  0.03200000  1.0 -0.0381476723
C  C378  1  0.09540000  0.50000000  0.96800000  1.0 -0.0381476723
C  C379  1  0.09540000  0.50000000  0.03200000  1.0 -0.0381476723
C  C380  1  0.90460000  0.50000000  0.96800000  1.0 -0.0381476723
C  C381  1  0.50000000  0.96800000  0.09540000  1.0 -0.0381476723
C  C382  1  0.50000000  0.03200000  0.90460000  1.0 -0.0381476723
C  C383  1  0.50000000  0.96800000  0.90460000  1.0 -0.0381476723
C  C384  1  0.50000000  0.03200000  0.09540000  1.0 -0.0381476723
C  C385  1  0.42430000  0.50000000  0.00000000  1.0 0.1328739053
C  C386  1  0.57570000  0.50000000  0.00000000  1.0 0.1328739053
C  C387  1  0.00000000  0.42430000  0.50000000  1.0 0.1328739053
C  C388  1  0.00000000  0.57570000  0.50000000  1.0 0.1328739053
C  C389  1  0.50000000  0.00000000  0.42430000  1.0 0.1328739053
C  C390  1  0.50000000  0.00000000  0.57570000  1.0 0.1328739053
C  C391  1  0.00000000  0.92430000  0.50000000  1.0 0.1328739053
C  C392  1  0.00000000  0.07570000  0.50000000  1.0 0.1328739053
C  C393  1  0.92430000  0.50000000  0.00000000  1.0 0.1328739053
C  C394  1  0.07570000  0.50000000  0.00000000  1.0 0.1328739053
C  C395  1  0.50000000  0.00000000  0.07570000  1.0 0.1328739053
C  C396  1  0.50000000  0.00000000  0.92430000  1.0 0.1328739053
C  C397  1  0.42220000  0.43330000  0.98220000  1.0 -0.0270982187
C  C398  1  0.57780000  0.56670000  0.98220000  1.0 -0.0270982187
C  C399  1  0.57780000  0.43330000  0.01780000  1.0 -0.0270982187
C  C400  1  0.42220000  0.56670000  0.01780000  1.0 -0.0270982187
C  C401  1  0.98220000  0.42220000  0.43330000  1.0 -0.0270982187
C  C402  1  0.98220000  0.57780000  0.56670000  1.0 -0.0270982187
C  C403  1  0.01780000  0.57780000  0.43330000  1.0 -0.0270982187
C  C404  1  0.01780000  0.42220000  0.56670000  1.0 -0.0270982187
C  C405  1  0.43330000  0.98220000  0.42220000  1.0 -0.0270982187
C  C406  1  0.56670000  0.98220000  0.57780000  1.0 -0.0270982187
C  C407  1  0.43330000  0.01780000  0.57780000  1.0 -0.0270982187
C  C408  1  0.56670000  0.01780000  0.42220000  1.0 -0.0270982187
C  C409  1  0.93330000  0.92220000  0.51780000  1.0 -0.0270982187
C  C410  1  0.06670000  0.07780000  0.51780000  1.0 -0.0270982187
C  C411  1  0.93330000  0.07780000  0.48220000  1.0 -0.0270982187
C  C412  1  0.06670000  0.92220000  0.48220000  1.0 -0.0270982187
C  C413  1  0.92220000  0.48220000  0.06670000  1.0 -0.0270982187
C  C414  1  0.07780000  0.48220000  0.93330000  1.0 -0.0270982187
C  C415  1  0.07780000  0.51780000  0.06670000  1.0 -0.0270982187
C  C416  1  0.92220000  0.51780000  0.93330000  1.0 -0.0270982187
C  C417  1  0.48220000  0.93330000  0.07780000  1.0 -0.0270982187
C  C418  1  0.48220000  0.06670000  0.92220000  1.0 -0.0270982187
C  C419  1  0.51780000  0.93330000  0.92220000  1.0 -0.0270982187
C  C420  1  0.51780000  0.06670000  0.07780000  1.0 -0.0270982187
C  C421  1  0.57780000  0.56670000  0.01780000  1.0 -0.0270982187
C  C422  1  0.42220000  0.43330000  0.01780000  1.0 -0.0270982187
C  C423  1  0.42220000  0.56670000  0.98220000  1.0 -0.0270982187
C  C424  1  0.57780000  0.43330000  0.98220000  1.0 -0.0270982187
C  C425  1  0.01780000  0.57780000  0.56670000  1.0 -0.0270982187
C  C426  1  0.01780000  0.42220000  0.43330000  1.0 -0.0270982187
C  C427  1  0.98220000  0.42220000  0.56670000  1.0 -0.0270982187
C  C428  1  0.98220000  0.57780000  0.43330000  1.0 -0.0270982187
C  C429  1  0.56670000  0.01780000  0.57780000  1.0 -0.0270982187
C  C430  1  0.43330000  0.01780000  0.42220000  1.0 -0.0270982187
C  C431  1  0.56670000  0.98220000  0.42220000  1.0 -0.0270982187
C  C432  1  0.43330000  0.98220000  0.57780000  1.0 -0.0270982187
C  C433  1  0.06670000  0.07780000  0.48220000  1.0 -0.0270982187
C  C434  1  0.93330000  0.92220000  0.48220000  1.0 -0.0270982187
C  C435  1  0.06670000  0.92220000  0.51780000  1.0 -0.0270982187
C  C436  1  0.93330000  0.07780000  0.51780000  1.0 -0.0270982187
C  C437  1  0.07780000  0.51780000  0.93330000  1.0 -0.0270982187
C  C438  1  0.92220000  0.51780000  0.06670000  1.0 -0.0270982187
C  C439  1  0.92220000  0.48220000  0.93330000  1.0 -0.0270982187
C  C440  1  0.07780000  0.48220000  0.06670000  1.0 -0.0270982187
C  C441  1  0.51780000  0.06670000  0.92220000  1.0 -0.0270982187
C  C442  1  0.51780000  0.93330000  0.07780000  1.0 -0.0270982187
C  C443  1  0.48220000  0.06670000  0.07780000  1.0 -0.0270982187
C  C444  1  0.48220000  0.93330000  0.92220000  1.0 -0.0270982187
C  C445  1  0.47940000  0.39550000  0.00000000  1.0 -0.123674016
C  C446  1  0.52060000  0.60450000  0.00000000  1.0 -0.123674016
C  C447  1  0.52060000  0.39550000  0.00000000  1.0 -0.123674016
C  C448  1  0.47940000  0.60450000  0.00000000  1.0 -0.123674016
C  C449  1  0.00000000  0.47940000  0.39550000  1.0 -0.123674016
C  C450  1  0.00000000  0.52060000  0.60450000  1.0 -0.123674016
C  C451  1  0.00000000  0.52060000  0.39550000  1.0 -0.123674016
C  C452  1  0.00000000  0.47940000  0.60450000  1.0 -0.123674016
C  C453  1  0.39550000  0.00000000  0.47940000  1.0 -0.123674016
C  C454  1  0.60450000  0.00000000  0.52060000  1.0 -0.123674016
C  C455  1  0.39550000  0.00000000  0.52060000  1.0 -0.123674016
C  C456  1  0.60450000  0.00000000  0.47940000  1.0 -0.123674016
C  C457  1  0.89550000  0.97940000  0.50000000  1.0 -0.123674016
C  C458  1  0.10450000  0.02060000  0.50000000  1.0 -0.123674016
C  C459  1  0.89550000  0.02060000  0.50000000  1.0 -0.123674016
C  C460  1  0.10450000  0.97940000  0.50000000  1.0 -0.123674016
C  C461  1  0.97940000  0.50000000  0.10450000  1.0 -0.123674016
C  C462  1  0.02060000  0.50000000  0.89550000  1.0 -0.123674016
C  C463  1  0.02060000  0.50000000  0.10450000  1.0 -0.123674016
C  C464  1  0.97940000  0.50000000  0.89550000  1.0 -0.123674016
C  C465  1  0.50000000  0.89550000  0.02060000  1.0 -0.123674016
C  C466  1  0.50000000  0.10450000  0.97940000  1.0 -0.123674016
C  C467  1  0.50000000  0.89550000  0.97940000  1.0 -0.123674016
C  C468  1  0.50000000  0.10450000  0.02060000  1.0 -0.123674016
C  C469  1  0.15250000  0.30650000  0.76900000  1.0 -0.4185782642
C  C470  1  0.84750000  0.69350000  0.76900000  1.0 -0.4185782642
C  C471  1  0.84750000  0.30650000  0.23100000  1.0 -0.4185782642
C  C472  1  0.15250000  0.69350000  0.23100000  1.0 -0.4185782642
C  C473  1  0.76900000  0.15250000  0.30650000  1.0 -0.4185782642
C  C474  1  0.76900000  0.84750000  0.69350000  1.0 -0.4185782642
C  C475  1  0.23100000  0.84750000  0.30650000  1.0 -0.4185782642
C  C476  1  0.23100000  0.15250000  0.69350000  1.0 -0.4185782642
C  C477  1  0.30650000  0.76900000  0.15250000  1.0 -0.4185782642
C  C478  1  0.69350000  0.76900000  0.84750000  1.0 -0.4185782642
C  C479  1  0.30650000  0.23100000  0.84750000  1.0 -0.4185782642
C  C480  1  0.69350000  0.23100000  0.15250000  1.0 -0.4185782642
C  C481  1  0.80650000  0.65250000  0.73100000  1.0 -0.4185782642
C  C482  1  0.19350000  0.34750000  0.73100000  1.0 -0.4185782642
C  C483  1  0.80650000  0.34750000  0.26900000  1.0 -0.4185782642
C  C484  1  0.19350000  0.65250000  0.26900000  1.0 -0.4185782642
C  C485  1  0.65250000  0.26900000  0.19350000  1.0 -0.4185782642
C  C486  1  0.34750000  0.26900000  0.80650000  1.0 -0.4185782642
C  C487  1  0.34750000  0.73100000  0.19350000  1.0 -0.4185782642
C  C488  1  0.65250000  0.73100000  0.80650000  1.0 -0.4185782642
C  C489  1  0.26900000  0.80650000  0.34750000  1.0 -0.4185782642
C  C490  1  0.26900000  0.19350000  0.65250000  1.0 -0.4185782642
C  C491  1  0.73100000  0.80650000  0.65250000  1.0 -0.4185782642
C  C492  1  0.73100000  0.19350000  0.34750000  1.0 -0.4185782642
C  C493  1  0.84750000  0.69350000  0.23100000  1.0 -0.4185782642
C  C494  1  0.15250000  0.30650000  0.23100000  1.0 -0.4185782642
C  C495  1  0.15250000  0.69350000  0.76900000  1.0 -0.4185782642
C  C496  1  0.84750000  0.30650000  0.76900000  1.0 -0.4185782642
C  C497  1  0.23100000  0.84750000  0.69350000  1.0 -0.4185782642
C  C498  1  0.23100000  0.15250000  0.30650000  1.0 -0.4185782642
C  C499  1  0.76900000  0.15250000  0.69350000  1.0 -0.4185782642
C  C500  1  0.76900000  0.84750000  0.30650000  1.0 -0.4185782642
C  C501  1  0.69350000  0.23100000  0.84750000  1.0 -0.4185782642
C  C502  1  0.30650000  0.23100000  0.15250000  1.0 -0.4185782642
C  C503  1  0.69350000  0.76900000  0.15250000  1.0 -0.4185782642
C  C504  1  0.30650000  0.76900000  0.84750000  1.0 -0.4185782642
C  C505  1  0.19350000  0.34750000  0.26900000  1.0 -0.4185782642
C  C506  1  0.80650000  0.65250000  0.26900000  1.0 -0.4185782642
C  C507  1  0.19350000  0.65250000  0.73100000  1.0 -0.4185782642
C  C508  1  0.80650000  0.34750000  0.73100000  1.0 -0.4185782642
C  C509  1  0.34750000  0.73100000  0.80650000  1.0 -0.4185782642
C  C510  1  0.65250000  0.73100000  0.19350000  1.0 -0.4185782642
C  C511  1  0.65250000  0.26900000  0.80650000  1.0 -0.4185782642
C  C512  1  0.34750000  0.26900000  0.19350000  1.0 -0.4185782642
C  C513  1  0.73100000  0.19350000  0.65250000  1.0 -0.4185782642
C  C514  1  0.73100000  0.80650000  0.34750000  1.0 -0.4185782642
C  C515  1  0.26900000  0.19350000  0.34750000  1.0 -0.4185782642
C  C516  1  0.26900000  0.80650000  0.65250000  1.0 -0.4185782642
N  N1  1  0.25000000  0.25000000  0.75000000  1.0 -0.210499565
N  N2  1  0.75000000  0.75000000  0.75000000  1.0 -0.210499565
N  N3  1  0.75000000  0.25000000  0.25000000  1.0 -0.210499565
N  N4  1  0.25000000  0.75000000  0.25000000  1.0 -0.210499565
N  N5  1  0.75000000  0.75000000  0.25000000  1.0 -0.210499565
N  N6  1  0.25000000  0.25000000  0.25000000  1.0 -0.210499565
N  N7  1  0.25000000  0.75000000  0.75000000  1.0 -0.210499565
N  N8  1  0.75000000  0.25000000  0.75000000  1.0 -0.210499565
N  N9  1  0.34840000  0.50000000  0.00000000  1.0 -0.2236423253
N  N10  1  0.65160000  0.50000000  0.00000000  1.0 -0.2236423253
N  N11  1  0.00000000  0.34840000  0.50000000  1.0 -0.2236423253
N  N12  1  0.00000000  0.65160000  0.50000000  1.0 -0.2236423253
N  N13  1  0.50000000  0.00000000  0.34840000  1.0 -0.2236423253
N  N14  1  0.50000000  0.00000000  0.65160000  1.0 -0.2236423253
N  N15  1  0.00000000  0.84840000  0.50000000  1.0 -0.2236423253
N  N16  1  0.00000000  0.15160000  0.50000000  1.0 -0.2236423253
N  N17  1  0.84840000  0.50000000  0.00000000  1.0 -0.2236423253
N  N18  1  0.15160000  0.50000000  0.00000000  1.0 -0.2236423253
N  N19  1  0.50000000  0.00000000  0.15160000  1.0 -0.2236423253
N  N20  1  0.50000000  0.00000000  0.84840000  1.0 -0.2236423253
N  N21  1  0.46310000  0.43700000  0.00000000  1.0 -0.0381476723
N  N22  1  0.53690000  0.56300000  0.00000000  1.0 -0.0381476723
N  N23  1  0.53690000  0.43700000  0.00000000  1.0 -0.0381476723
N  N24  1  0.46310000  0.56300000  0.00000000  1.0 -0.0381476723
N  N25  1  0.00000000  0.46310000  0.43700000  1.0 -0.0381476723
N  N26  1  0.00000000  0.53690000  0.56300000  1.0 -0.0381476723
N  N27  1  0.00000000  0.53690000  0.43700000  1.0 -0.0381476723
N  N28  1  0.00000000  0.46310000  0.56300000  1.0 -0.0381476723
N  N29  1  0.43700000  0.00000000  0.46310000  1.0 -0.0381476723
N  N30  1  0.56300000  0.00000000  0.53690000  1.0 -0.0381476723
N  N31  1  0.43700000  0.00000000  0.53690000  1.0 -0.0381476723
N  N32  1  0.56300000  0.00000000  0.46310000  1.0 -0.0381476723
N  N33  1  0.93700000  0.96310000  0.50000000  1.0 -0.0381476723
N  N34  1  0.06300000  0.03690000  0.50000000  1.0 -0.0381476723
N  N35  1  0.93700000  0.03690000  0.50000000  1.0 -0.0381476723
N  N36  1  0.06300000  0.96310000  0.50000000  1.0 -0.0381476723
N  N37  1  0.96310000  0.50000000  0.06300000  1.0 -0.0381476723
N  N38  1  0.03690000  0.50000000  0.93700000  1.0 -0.0381476723
N  N39  1  0.03690000  0.50000000  0.06300000  1.0 -0.0381476723
N  N40  1  0.96310000  0.50000000  0.93700000  1.0 -0.0381476723
N  N41  1  0.50000000  0.93700000  0.03690000  1.0 -0.0381476723
N  N42  1  0.50000000  0.06300000  0.96310000  1.0 -0.0381476723
N  N43  1  0.50000000  0.93700000  0.96310000  1.0 -0.0381476723
N  N44  1  0.50000000  0.06300000  0.03690000  1.0 -0.0381476723
O  O1  1  0.28152000  0.46077000  0.96102000  1.0 -0.4900203579
O  O2  1  0.71848000  0.53923000  0.96102000  1.0 -0.4900203579
O  O3  1  0.71848000  0.46077000  0.03898000  1.0 -0.4900203579
O  O4  1  0.28152000  0.53923000  0.03898000  1.0 -0.4900203579
O  O5  1  0.96102000  0.28152000  0.46077000  1.0 -0.4900203579
O  O6  1  0.96102000  0.71848000  0.53923000  1.0 -0.4900203579
O  O7  1  0.03898000  0.71848000  0.46077000  1.0 -0.4900203579
O  O8  1  0.03898000  0.28152000  0.53923000  1.0 -0.4900203579
O  O9  1  0.46077000  0.96102000  0.28152000  1.0 -0.4900203579
O  O10  1  0.53923000  0.96102000  0.71848000  1.0 -0.4900203579
O  O11  1  0.46077000  0.03898000  0.71848000  1.0 -0.4900203579
O  O12  1  0.53923000  0.03898000  0.28152000  1.0 -0.4900203579
O  O13  1  0.96077000  0.78152000  0.53898000  1.0 -0.4900203579
O  O14  1  0.03923000  0.21848000  0.53898000  1.0 -0.4900203579
O  O15  1  0.96077000  0.21848000  0.46102000  1.0 -0.4900203579
O  O16  1  0.03923000  0.78152000  0.46102000  1.0 -0.4900203579
O  O17  1  0.78152000  0.46102000  0.03923000  1.0 -0.4900203579
O  O18  1  0.21848000  0.46102000  0.96077000  1.0 -0.4900203579
O  O19  1  0.21848000  0.53898000  0.03923000  1.0 -0.4900203579
O  O20  1  0.78152000  0.53898000  0.96077000  1.0 -0.4900203579
O  O21  1  0.46102000  0.96077000  0.21848000  1.0 -0.4900203579
O  O22  1  0.46102000  0.03923000  0.78152000  1.0 -0.4900203579
O  O23  1  0.53898000  0.96077000  0.78152000  1.0 -0.4900203579
O  O24  1  0.53898000  0.03923000  0.21848000  1.0 -0.4900203579
O  O25  1  0.71848000  0.53923000  0.03898000  1.0 -0.4900203579
O  O26  1  0.28152000  0.46077000  0.03898000  1.0 -0.4900203579
O  O27  1  0.28152000  0.53923000  0.96102000  1.0 -0.4900203579
O  O28  1  0.71848000  0.46077000  0.96102000  1.0 -0.4900203579
O  O29  1  0.03898000  0.71848000  0.53923000  1.0 -0.4900203579
O  O30  1  0.03898000  0.28152000  0.46077000  1.0 -0.4900203579
O  O31  1  0.96102000  0.28152000  0.53923000  1.0 -0.4900203579
O  O32  1  0.96102000  0.71848000  0.46077000  1.0 -0.4900203579
O  O33  1  0.53923000  0.03898000  0.71848000  1.0 -0.4900203579
O  O34  1  0.46077000  0.03898000  0.28152000  1.0 -0.4900203579
O  O35  1  0.53923000  0.96102000  0.28152000  1.0 -0.4900203579
O  O36  1  0.46077000  0.96102000  0.71848000  1.0 -0.4900203579
O  O37  1  0.03923000  0.21848000  0.46102000  1.0 -0.4900203579
O  O38  1  0.96077000  0.78152000  0.46102000  1.0 -0.4900203579
O  O39  1  0.03923000  0.78152000  0.53898000  1.0 -0.4900203579
O  O40  1  0.96077000  0.21848000  0.53898000  1.0 -0.4900203579
O  O41  1  0.21848000  0.53898000  0.96077000  1.0 -0.4900203579
O  O42  1  0.78152000  0.53898000  0.03923000  1.0 -0.4900203579
O  O43  1  0.78152000  0.46102000  0.96077000  1.0 -0.4900203579
O  O44  1  0.21848000  0.46102000  0.03923000  1.0 -0.4900203579
O  O45  1  0.53898000  0.03923000  0.78152000  1.0 -0.4900203579
O  O46  1  0.53898000  0.96077000  0.21848000  1.0 -0.4900203579
O  O47  1  0.46102000  0.03923000  0.21848000  1.0 -0.4900203579
O  O48  1  0.46102000  0.96077000  0.78152000  1.0 -0.4900203579
O  O49  1  0.46170000  0.50000000  0.00000000  1.0 -0.0381476723
O  O50  1  0.53830000  0.50000000  0.00000000  1.0 -0.0381476723
O  O51  1  0.00000000  0.46170000  0.50000000  1.0 -0.0381476723
O  O52  1  0.00000000  0.53830000  0.50000000  1.0 -0.0381476723
O  O53  1  0.50000000  0.00000000  0.46170000  1.0 -0.0381476723
O  O54  1  0.50000000  0.00000000  0.53830000  1.0 -0.0381476723
O  O55  1  0.00000000  0.96170000  0.50000000  1.0 -0.0381476723
O  O56  1  0.00000000  0.03830000  0.50000000  1.0 -0.0381476723
O  O57  1  0.96170000  0.50000000  0.00000000  1.0 -0.0381476723
O  O58  1  0.03830000  0.50000000  0.00000000  1.0 -0.0381476723
O  O59  1  0.50000000  0.00000000  0.03830000  1.0 -0.0381476723
O  O60  1  0.50000000  0.00000000  0.96170000  1.0 -0.0381476723
