# DDEC6 charges by PACMAN v1.1 (https://github.com/mtap-research/PACMAN-charge/)
data_AVAKAL_ASR_pacman
_symmetry_space_group_name_H-M   'P 1'
_cell_length_a   35.49000000
_cell_length_b   35.49000000
_cell_length_c   35.49000000
_cell_angle_alpha   90.00000000
_cell_angle_beta   90.00000000
_cell_angle_gamma   90.00000000
_symmetry_Int_Tables_number   1
_chemical_formula_structural   Cu3H48C78(NO6)2
_chemical_formula_sum   'Cu12 H192 C312 N8 O48'
_cell_volume   44701.07814900
_cell_formula_units_Z   4
loop_
 _symmetry_equiv_pos_site_id
 _symmetry_equiv_pos_as_xyz
  1  'x, y, z'
loop_
 _atom_site_type_symbol
 _atom_site_label
 _atom_site_symmetry_multiplicity
 _atom_site_fract_x
 _atom_site_fract_y
 _atom_site_fract_z
 _atom_site_occupancy
 _atom_site_charge
Cu  Cu1  1  0.50000000  0.00000000  0.21279000  1.0 0.8955303575
Cu  Cu2  1  0.50000000  0.00000000  0.78721000  1.0 0.8955303575
Cu  Cu3  1  0.21279000  0.50000000  0.00000000  1.0 0.8955303575
Cu  Cu4  1  0.78721000  0.50000000  0.00000000  1.0 0.8955303575
Cu  Cu5  1  0.00000000  0.21279000  0.50000000  1.0 0.8955303575
Cu  Cu6  1  0.00000000  0.78721000  0.50000000  1.0 0.8955303575
Cu  Cu7  1  0.50000000  0.00000000  0.28721000  1.0 0.8955303575
Cu  Cu8  1  0.50000000  0.00000000  0.71279000  1.0 0.8955303575
Cu  Cu9  1  0.00000000  0.71279000  0.50000000  1.0 0.8955303575
Cu  Cu10  1  0.00000000  0.28721000  0.50000000  1.0 0.8955303575
Cu  Cu11  1  0.71279000  0.50000000  0.00000000  1.0 0.8955303575
Cu  Cu12  1  0.28721000  0.50000000  0.00000000  1.0 0.8955303575
H  H1  1  0.41570000  0.08720000  0.19480000  1.0 0.1228535715
H  H2  1  0.58430000  0.91280000  0.19480000  1.0 0.1228535715
H  H3  1  0.58430000  0.08720000  0.80520000  1.0 0.1228535715
H  H4  1  0.41570000  0.91280000  0.80520000  1.0 0.1228535715
H  H5  1  0.19480000  0.41570000  0.08720000  1.0 0.1228535715
H  H6  1  0.19480000  0.58430000  0.91280000  1.0 0.1228535715
H  H7  1  0.80520000  0.58430000  0.08720000  1.0 0.1228535715
H  H8  1  0.80520000  0.41570000  0.91280000  1.0 0.1228535715
H  H9  1  0.08720000  0.19480000  0.41570000  1.0 0.1228535715
H  H10  1  0.91280000  0.19480000  0.58430000  1.0 0.1228535715
H  H11  1  0.08720000  0.80520000  0.58430000  1.0 0.1228535715
H  H12  1  0.91280000  0.80520000  0.41570000  1.0 0.1228535715
H  H13  1  0.58720000  0.91570000  0.30520000  1.0 0.1228535715
H  H14  1  0.41280000  0.08430000  0.30520000  1.0 0.1228535715
H  H15  1  0.58720000  0.08430000  0.69480000  1.0 0.1228535715
H  H16  1  0.41280000  0.91570000  0.69480000  1.0 0.1228535715
H  H17  1  0.91570000  0.69480000  0.41280000  1.0 0.1228535715
H  H18  1  0.08430000  0.69480000  0.58720000  1.0 0.1228535715
H  H19  1  0.08430000  0.30520000  0.41280000  1.0 0.1228535715
H  H20  1  0.91570000  0.30520000  0.58720000  1.0 0.1228535715
H  H21  1  0.69480000  0.58720000  0.08430000  1.0 0.1228535715
H  H22  1  0.69480000  0.41280000  0.91570000  1.0 0.1228535715
H  H23  1  0.30520000  0.58720000  0.91570000  1.0 0.1228535715
H  H24  1  0.30520000  0.41280000  0.08430000  1.0 0.1228535715
H  H25  1  0.58430000  0.91280000  0.80520000  1.0 0.1228535715
H  H26  1  0.41570000  0.08720000  0.80520000  1.0 0.1228535715
H  H27  1  0.41570000  0.91280000  0.19480000  1.0 0.1228535715
H  H28  1  0.58430000  0.08720000  0.19480000  1.0 0.1228535715
H  H29  1  0.80520000  0.58430000  0.91280000  1.0 0.1228535715
H  H30  1  0.80520000  0.41570000  0.08720000  1.0 0.1228535715
H  H31  1  0.19480000  0.41570000  0.91280000  1.0 0.1228535715
H  H32  1  0.19480000  0.58430000  0.08720000  1.0 0.1228535715
H  H33  1  0.91280000  0.80520000  0.58430000  1.0 0.1228535715
H  H34  1  0.08720000  0.80520000  0.41570000  1.0 0.1228535715
H  H35  1  0.91280000  0.19480000  0.41570000  1.0 0.1228535715
H  H36  1  0.08720000  0.19480000  0.58430000  1.0 0.1228535715
H  H37  1  0.41280000  0.08430000  0.69480000  1.0 0.1228535715
H  H38  1  0.58720000  0.91570000  0.69480000  1.0 0.1228535715
H  H39  1  0.41280000  0.91570000  0.30520000  1.0 0.1228535715
H  H40  1  0.58720000  0.08430000  0.30520000  1.0 0.1228535715
H  H41  1  0.08430000  0.30520000  0.58720000  1.0 0.1228535715
H  H42  1  0.91570000  0.30520000  0.41280000  1.0 0.1228535715
H  H43  1  0.91570000  0.69480000  0.58720000  1.0 0.1228535715
H  H44  1  0.08430000  0.69480000  0.41280000  1.0 0.1228535715
H  H45  1  0.30520000  0.41280000  0.91570000  1.0 0.1228535715
H  H46  1  0.30520000  0.58720000  0.08430000  1.0 0.1228535715
H  H47  1  0.69480000  0.41280000  0.08430000  1.0 0.1228535715
H  H48  1  0.69480000  0.58720000  0.91570000  1.0 0.1228535715
H  H49  1  0.36940000  0.13450000  0.19590000  1.0 0.1148672621
H  H50  1  0.63060000  0.86550000  0.19590000  1.0 0.1148672621
H  H51  1  0.63060000  0.13450000  0.80410000  1.0 0.1148672621
H  H52  1  0.36940000  0.86550000  0.80410000  1.0 0.1148672621
H  H53  1  0.19590000  0.36940000  0.13450000  1.0 0.1148672621
H  H54  1  0.19590000  0.63060000  0.86550000  1.0 0.1148672621
H  H55  1  0.80410000  0.63060000  0.13450000  1.0 0.1148672621
H  H56  1  0.80410000  0.36940000  0.86550000  1.0 0.1228535715
H  H57  1  0.13450000  0.19590000  0.36940000  1.0 0.1148672621
H  H58  1  0.86550000  0.19590000  0.63060000  1.0 0.1148672621
H  H59  1  0.13450000  0.80410000  0.63060000  1.0 0.1148672621
H  H60  1  0.86550000  0.80410000  0.36940000  1.0 0.1148672621
H  H61  1  0.63450000  0.86940000  0.30410000  1.0 0.1148672621
H  H62  1  0.36550000  0.13060000  0.30410000  1.0 0.1148672621
H  H63  1  0.63450000  0.13060000  0.69590000  1.0 0.1148672621
H  H64  1  0.36550000  0.86940000  0.69590000  1.0 0.1148672621
H  H65  1  0.86940000  0.69590000  0.36550000  1.0 0.1148672621
H  H66  1  0.13060000  0.69590000  0.63450000  1.0 0.1148672621
H  H67  1  0.13060000  0.30410000  0.36550000  1.0 0.1148672621
H  H68  1  0.86940000  0.30410000  0.63450000  1.0 0.1148672621
H  H69  1  0.69590000  0.63450000  0.13060000  1.0 0.1148672621
H  H70  1  0.69590000  0.36550000  0.86940000  1.0 0.1148672621
H  H71  1  0.30410000  0.63450000  0.86940000  1.0 0.1148672621
H  H72  1  0.30410000  0.36550000  0.13060000  1.0 0.1148672621
H  H73  1  0.63060000  0.86550000  0.80410000  1.0 0.1148672621
H  H74  1  0.36940000  0.13450000  0.80410000  1.0 0.1148672621
H  H75  1  0.36940000  0.86550000  0.19590000  1.0 0.1148672621
H  H76  1  0.63060000  0.13450000  0.19590000  1.0 0.1148672621
H  H77  1  0.80410000  0.63060000  0.86550000  1.0 0.1148672621
H  H78  1  0.80410000  0.36940000  0.13450000  1.0 0.1148672621
H  H79  1  0.19590000  0.36940000  0.86550000  1.0 0.1148672621
H  H80  1  0.19590000  0.63060000  0.13450000  1.0 0.1148672621
H  H81  1  0.86550000  0.80410000  0.63060000  1.0 0.1148672621
H  H82  1  0.13450000  0.80410000  0.36940000  1.0 0.1148672621
H  H83  1  0.86550000  0.19590000  0.36940000  1.0 0.1148672621
H  H84  1  0.13450000  0.19590000  0.63060000  1.0 0.1148672621
H  H85  1  0.36550000  0.13060000  0.69590000  1.0 0.1148672621
H  H86  1  0.63450000  0.86940000  0.69590000  1.0 0.1148672621
H  H87  1  0.36550000  0.86940000  0.30410000  1.0 0.1148672621
H  H88  1  0.63450000  0.13060000  0.30410000  1.0 0.1148672621
H  H89  1  0.13060000  0.30410000  0.63450000  1.0 0.1148672621
H  H90  1  0.86940000  0.30410000  0.36550000  1.0 0.1148672621
H  H91  1  0.86940000  0.69590000  0.63450000  1.0 0.1148672621
H  H92  1  0.13060000  0.69590000  0.36550000  1.0 0.1148672621
H  H93  1  0.30410000  0.36550000  0.86940000  1.0 0.1148672621
H  H94  1  0.30410000  0.63450000  0.13060000  1.0 0.1148672621
H  H95  1  0.69590000  0.36550000  0.13060000  1.0 0.1148672621
H  H96  1  0.69590000  0.63450000  0.86940000  1.0 0.1148672621
H  H97  1  0.32930000  0.16850000  0.19190000  1.0 0.1228535715
H  H98  1  0.67070000  0.83150000  0.19190000  1.0 0.1228535715
H  H99  1  0.67070000  0.16850000  0.80810000  1.0 0.1228535715
H  H100  1  0.32930000  0.83150000  0.80810000  1.0 0.1228535715
H  H101  1  0.19190000  0.32930000  0.16850000  1.0 0.1228535715
H  H102  1  0.19190000  0.67070000  0.83150000  1.0 0.1228535715
H  H103  1  0.80810000  0.67070000  0.16850000  1.0 0.1228535715
H  H104  1  0.80810000  0.32930000  0.83150000  1.0 0.1228535715
H  H105  1  0.16850000  0.19190000  0.32930000  1.0 0.1228535715
H  H106  1  0.83150000  0.19190000  0.67070000  1.0 0.1228535715
H  H107  1  0.16850000  0.80810000  0.67070000  1.0 0.1228535715
H  H108  1  0.83150000  0.80810000  0.32930000  1.0 0.1228535715
H  H109  1  0.66850000  0.82930000  0.30810000  1.0 0.1228535715
H  H110  1  0.33150000  0.17070000  0.30810000  1.0 0.1228535715
H  H111  1  0.66850000  0.17070000  0.69190000  1.0 0.1228535715
H  H112  1  0.33150000  0.82930000  0.69190000  1.0 0.1228535715
H  H113  1  0.82930000  0.69190000  0.33150000  1.0 0.1228535715
H  H114  1  0.17070000  0.69190000  0.66850000  1.0 0.1228535715
H  H115  1  0.17070000  0.30810000  0.33150000  1.0 0.1228535715
H  H116  1  0.82930000  0.30810000  0.66850000  1.0 0.1228535715
H  H117  1  0.69190000  0.66850000  0.17070000  1.0 0.1228535715
H  H118  1  0.69190000  0.33150000  0.82930000  1.0 0.1228535715
H  H119  1  0.30810000  0.66850000  0.82930000  1.0 0.1228535715
H  H120  1  0.30810000  0.33150000  0.17070000  1.0 0.1228535715
H  H121  1  0.67070000  0.83150000  0.80810000  1.0 0.1228535715
H  H122  1  0.32930000  0.16850000  0.80810000  1.0 0.1228535715
H  H123  1  0.32930000  0.83150000  0.19190000  1.0 0.1228535715
H  H124  1  0.67070000  0.16850000  0.19190000  1.0 0.1228535715
H  H125  1  0.80810000  0.67070000  0.83150000  1.0 0.1228535715
H  H126  1  0.80810000  0.32930000  0.16850000  1.0 0.1228535715
H  H127  1  0.19190000  0.32930000  0.83150000  1.0 0.1228535715
H  H128  1  0.19190000  0.67070000  0.16850000  1.0 0.1228535715
H  H129  1  0.83150000  0.80810000  0.67070000  1.0 0.1228535715
H  H130  1  0.16850000  0.80810000  0.32930000  1.0 0.1228535715
H  H131  1  0.83150000  0.19190000  0.32930000  1.0 0.1228535715
H  H132  1  0.16850000  0.19190000  0.67070000  1.0 0.1228535715
H  H133  1  0.33150000  0.17070000  0.69190000  1.0 0.1228535715
H  H134  1  0.66850000  0.82930000  0.69190000  1.0 0.1228535715
H  H135  1  0.33150000  0.82930000  0.30810000  1.0 0.1228535715
H  H136  1  0.66850000  0.17070000  0.30810000  1.0 0.1228535715
H  H137  1  0.17070000  0.30810000  0.66850000  1.0 0.1228535715
H  H138  1  0.82930000  0.30810000  0.33150000  1.0 0.1228535715
H  H139  1  0.82930000  0.69190000  0.66850000  1.0 0.1228535715
H  H140  1  0.17070000  0.69190000  0.33150000  1.0 0.1228535715
H  H141  1  0.30810000  0.33150000  0.82930000  1.0 0.1228535715
H  H142  1  0.30810000  0.66850000  0.17070000  1.0 0.1228535715
H  H143  1  0.69190000  0.33150000  0.17070000  1.0 0.1228535715
H  H144  1  0.69190000  0.66850000  0.82930000  1.0 0.1228535715
H  H145  1  0.28260000  0.21280000  0.19400000  1.0 0.1379063345
H  H146  1  0.71740000  0.78720000  0.19400000  1.0 0.1379063345
H  H147  1  0.71740000  0.21280000  0.80600000  1.0 0.1379063345
H  H148  1  0.28260000  0.78720000  0.80600000  1.0 0.1379063345
H  H149  1  0.19400000  0.28260000  0.21280000  1.0 0.1379063345
H  H150  1  0.19400000  0.71740000  0.78720000  1.0 0.1379063345
H  H151  1  0.80600000  0.71740000  0.21280000  1.0 0.1379063345
H  H152  1  0.80600000  0.28260000  0.78720000  1.0 0.1379063345
H  H153  1  0.21280000  0.19400000  0.28260000  1.0 0.1379063345
H  H154  1  0.78720000  0.19400000  0.71740000  1.0 0.1379063345
H  H155  1  0.21280000  0.80600000  0.71740000  1.0 0.1379063345
H  H156  1  0.78720000  0.80600000  0.28260000  1.0 0.1379063345
H  H157  1  0.71280000  0.78260000  0.30600000  1.0 0.1379063345
H  H158  1  0.28720000  0.21740000  0.30600000  1.0 0.1379063345
H  H159  1  0.71280000  0.21740000  0.69400000  1.0 0.1379063345
H  H160  1  0.28720000  0.78260000  0.69400000  1.0 0.1379063345
H  H161  1  0.78260000  0.69400000  0.28720000  1.0 0.1379063345
H  H162  1  0.21740000  0.69400000  0.71280000  1.0 0.1379063345
H  H163  1  0.21740000  0.30600000  0.28720000  1.0 0.1379063345
H  H164  1  0.78260000  0.30600000  0.71280000  1.0 0.1379063345
H  H165  1  0.69400000  0.71280000  0.21740000  1.0 0.1379063345
H  H166  1  0.69400000  0.28720000  0.78260000  1.0 0.1379063345
H  H167  1  0.30600000  0.71280000  0.78260000  1.0 0.1379063345
H  H168  1  0.30600000  0.28720000  0.21740000  1.0 0.1379063345
H  H169  1  0.71740000  0.78720000  0.80600000  1.0 0.1379063345
H  H170  1  0.28260000  0.21280000  0.80600000  1.0 0.1379063345
H  H171  1  0.28260000  0.78720000  0.19400000  1.0 0.1379063345
H  H172  1  0.71740000  0.21280000  0.19400000  1.0 0.1379063345
H  H173  1  0.80600000  0.71740000  0.78720000  1.0 0.1379063345
H  H174  1  0.80600000  0.28260000  0.21280000  1.0 0.1379063345
H  H175  1  0.19400000  0.28260000  0.78720000  1.0 0.1379063345
H  H176  1  0.19400000  0.71740000  0.21280000  1.0 0.1379063345
H  H177  1  0.78720000  0.80600000  0.71740000  1.0 0.1379063345
H  H178  1  0.21280000  0.80600000  0.28260000  1.0 0.1379063345
H  H179  1  0.78720000  0.19400000  0.28260000  1.0 0.1379063345
H  H180  1  0.21280000  0.19400000  0.71740000  1.0 0.1379063345
H  H181  1  0.28720000  0.21740000  0.69400000  1.0 0.1379063345
H  H182  1  0.71280000  0.78260000  0.69400000  1.0 0.1379063345
H  H183  1  0.28720000  0.78260000  0.30600000  1.0 0.1379063345
H  H184  1  0.71280000  0.21740000  0.30600000  1.0 0.1379063345
H  H185  1  0.21740000  0.30600000  0.71280000  1.0 0.1379063345
H  H186  1  0.78260000  0.30600000  0.28720000  1.0 0.1379063345
H  H187  1  0.78260000  0.69400000  0.71280000  1.0 0.1379063345
H  H188  1  0.21740000  0.69400000  0.28720000  1.0 0.1379063345
H  H189  1  0.30600000  0.28720000  0.78260000  1.0 0.1379063345
H  H190  1  0.30600000  0.71280000  0.21740000  1.0 0.1379063345
H  H191  1  0.69400000  0.28720000  0.21740000  1.0 0.1379063345
H  H192  1  0.69400000  0.71280000  0.78260000  1.0 0.1379063345
C  C1  1  0.44920000  0.05080000  0.25000000  1.0 0.5719711999
C  C2  1  0.55080000  0.94920000  0.25000000  1.0 0.5719711999
C  C3  1  0.55080000  0.05080000  0.75000000  1.0 0.5719711999
C  C4  1  0.44920000  0.94920000  0.75000000  1.0 0.5719711999
C  C5  1  0.25000000  0.44920000  0.05080000  1.0 0.5719711999
C  C6  1  0.25000000  0.55080000  0.94920000  1.0 0.5719711999
C  C7  1  0.75000000  0.55080000  0.05080000  1.0 0.5719711999
C  C8  1  0.75000000  0.44920000  0.94920000  1.0 0.5719711999
C  C9  1  0.05080000  0.25000000  0.44920000  1.0 0.5719711999
C  C10  1  0.94920000  0.25000000  0.55080000  1.0 0.5719711999
C  C11  1  0.05080000  0.75000000  0.55080000  1.0 0.5719711999
C  C12  1  0.94920000  0.75000000  0.44920000  1.0 0.5719711999
C  C13  1  0.55080000  0.94920000  0.75000000  1.0 0.5719711999
C  C14  1  0.44920000  0.05080000  0.75000000  1.0 0.5719711999
C  C15  1  0.44920000  0.94920000  0.25000000  1.0 0.5719711999
C  C16  1  0.55080000  0.05080000  0.25000000  1.0 0.5719711999
C  C17  1  0.75000000  0.55080000  0.94920000  1.0 0.5719711999
C  C18  1  0.75000000  0.44920000  0.05080000  1.0 0.5719711999
C  C19  1  0.25000000  0.44920000  0.94920000  1.0 0.5719711999
C  C20  1  0.25000000  0.55080000  0.05080000  1.0 0.5719711999
C  C21  1  0.94920000  0.75000000  0.55080000  1.0 0.5719711999
C  C22  1  0.05080000  0.75000000  0.44920000  1.0 0.5719711999
C  C23  1  0.94920000  0.25000000  0.44920000  1.0 0.5719711999
C  C24  1  0.05080000  0.25000000  0.55080000  1.0 0.5719711999
C  C25  1  0.42100000  0.07900000  0.25000000  1.0 -0.1046969299
C  C26  1  0.57900000  0.92100000  0.25000000  1.0 -0.1051812847
C  C27  1  0.57900000  0.07900000  0.75000000  1.0 -0.1051812847
C  C28  1  0.42100000  0.92100000  0.75000000  1.0 -0.1051812847
C  C29  1  0.25000000  0.42100000  0.07900000  1.0 -0.1046969299
C  C30  1  0.25000000  0.57900000  0.92100000  1.0 -0.1051812847
C  C31  1  0.75000000  0.57900000  0.07900000  1.0 -0.1051812847
C  C32  1  0.75000000  0.42100000  0.92100000  1.0 -0.1051812847
C  C33  1  0.07900000  0.25000000  0.42100000  1.0 -0.1051812847
C  C34  1  0.92100000  0.25000000  0.57900000  1.0 -0.1051812847
C  C35  1  0.07900000  0.75000000  0.57900000  1.0 -0.1051812847
C  C36  1  0.92100000  0.75000000  0.42100000  1.0 -0.1051812847
C  C37  1  0.57900000  0.92100000  0.75000000  1.0 -0.1051812847
C  C38  1  0.42100000  0.07900000  0.75000000  1.0 -0.1051812847
C  C39  1  0.42100000  0.92100000  0.25000000  1.0 -0.1051812847
C  C40  1  0.57900000  0.07900000  0.25000000  1.0 -0.1046969299
C  C41  1  0.75000000  0.57900000  0.92100000  1.0 -0.1051812847
C  C42  1  0.75000000  0.42100000  0.07900000  1.0 -0.1051812847
C  C43  1  0.25000000  0.42100000  0.92100000  1.0 -0.1051812847
C  C44  1  0.25000000  0.57900000  0.07900000  1.0 -0.1051812847
C  C45  1  0.92100000  0.75000000  0.57900000  1.0 -0.1051812847
C  C46  1  0.07900000  0.75000000  0.42100000  1.0 -0.1051812847
C  C47  1  0.92100000  0.25000000  0.42100000  1.0 -0.1046969299
C  C48  1  0.07900000  0.25000000  0.57900000  1.0 -0.1051812847
C  C49  1  0.40670000  0.09510000  0.21810000  1.0 -0.0497905022
C  C50  1  0.59330000  0.90490000  0.21810000  1.0 -0.0497905022
C  C51  1  0.59330000  0.09510000  0.78190000  1.0 -0.0497905022
C  C52  1  0.40670000  0.90490000  0.78190000  1.0 -0.0497905022
C  C53  1  0.21810000  0.40670000  0.09510000  1.0 -0.0497905022
C  C54  1  0.21810000  0.59330000  0.90490000  1.0 -0.0497905022
C  C55  1  0.78190000  0.59330000  0.09510000  1.0 -0.0497905022
C  C56  1  0.78190000  0.40670000  0.90490000  1.0 -0.0497905022
C  C57  1  0.09510000  0.21810000  0.40670000  1.0 -0.0497905022
C  C58  1  0.90490000  0.21810000  0.59330000  1.0 -0.0497905022
C  C59  1  0.09510000  0.78190000  0.59330000  1.0 -0.0497905022
C  C60  1  0.90490000  0.78190000  0.40670000  1.0 -0.0497905022
C  C61  1  0.59510000  0.90670000  0.28190000  1.0 -0.0497905022
C  C62  1  0.40490000  0.09330000  0.28190000  1.0 -0.0497905022
C  C63  1  0.59510000  0.09330000  0.71810000  1.0 -0.0497905022
C  C64  1  0.40490000  0.90670000  0.71810000  1.0 -0.0497905022
C  C65  1  0.90670000  0.71810000  0.40490000  1.0 -0.0497905022
C  C66  1  0.09330000  0.71810000  0.59510000  1.0 -0.0497905022
C  C67  1  0.09330000  0.28190000  0.40490000  1.0 -0.0497905022
C  C68  1  0.90670000  0.28190000  0.59510000  1.0 -0.0497905022
C  C69  1  0.71810000  0.59510000  0.09330000  1.0 -0.0497905022
C  C70  1  0.71810000  0.40490000  0.90670000  1.0 -0.0497905022
C  C71  1  0.28190000  0.59510000  0.90670000  1.0 -0.0497905022
C  C72  1  0.28190000  0.40490000  0.09330000  1.0 -0.0497905022
C  C73  1  0.59330000  0.90490000  0.78190000  1.0 -0.0497905022
C  C74  1  0.40670000  0.09510000  0.78190000  1.0 -0.0497905022
C  C75  1  0.40670000  0.90490000  0.21810000  1.0 -0.0497905022
C  C76  1  0.59330000  0.09510000  0.21810000  1.0 -0.0497905022
C  C77  1  0.78190000  0.59330000  0.90490000  1.0 -0.0497905022
C  C78  1  0.78190000  0.40670000  0.09510000  1.0 -0.0497905022
C  C79  1  0.21810000  0.40670000  0.90490000  1.0 -0.0497905022
C  C80  1  0.21810000  0.59330000  0.09510000  1.0 -0.0497905022
C  C81  1  0.90490000  0.78190000  0.59330000  1.0 -0.0497905022
C  C82  1  0.09510000  0.78190000  0.40670000  1.0 -0.0497905022
C  C83  1  0.90490000  0.21810000  0.40670000  1.0 -0.0497905022
C  C84  1  0.09510000  0.21810000  0.59330000  1.0 -0.0497905022
C  C85  1  0.40490000  0.09330000  0.71810000  1.0 -0.0497905022
C  C86  1  0.59510000  0.90670000  0.71810000  1.0 -0.0497905022
C  C87  1  0.40490000  0.90670000  0.28190000  1.0 -0.0497905022
C  C88  1  0.59510000  0.09330000  0.28190000  1.0 -0.0497905022
C  C89  1  0.09330000  0.28190000  0.59510000  1.0 -0.0497905022
C  C90  1  0.90670000  0.28190000  0.40490000  1.0 -0.0497905022
C  C91  1  0.90670000  0.71810000  0.59510000  1.0 -0.0497905022
C  C92  1  0.09330000  0.71810000  0.40490000  1.0 -0.0497905022
C  C93  1  0.28190000  0.40490000  0.90670000  1.0 -0.0497905022
C  C94  1  0.28190000  0.59510000  0.09330000  1.0 -0.0497905022
C  C95  1  0.71810000  0.40490000  0.09330000  1.0 -0.0497905022
C  C96  1  0.71810000  0.59510000  0.90670000  1.0 -0.0497905022
C  C97  1  0.37700000  0.12510000  0.21910000  1.0 -0.1854322795
C  C98  1  0.62300000  0.87490000  0.21910000  1.0 -0.1854322795
C  C99  1  0.62300000  0.12510000  0.78090000  1.0 -0.1854322795
C  C100  1  0.37700000  0.87490000  0.78090000  1.0 -0.1854322795
C  C101  1  0.21910000  0.37700000  0.12510000  1.0 -0.1854322795
C  C102  1  0.21910000  0.62300000  0.87490000  1.0 -0.1854322795
C  C103  1  0.78090000  0.62300000  0.12510000  1.0 -0.1854322795
C  C104  1  0.78090000  0.37700000  0.87490000  1.0 -0.1854322795
C  C105  1  0.12510000  0.21910000  0.37700000  1.0 -0.1854322795
C  C106  1  0.87490000  0.21910000  0.62300000  1.0 -0.1854322795
C  C107  1  0.12510000  0.78090000  0.62300000  1.0 -0.1854322795
C  C108  1  0.87490000  0.78090000  0.37700000  1.0 -0.1854322795
C  C109  1  0.62510000  0.87700000  0.28090000  1.0 -0.1854322795
C  C110  1  0.37490000  0.12300000  0.28090000  1.0 -0.1854322795
C  C111  1  0.62510000  0.12300000  0.71910000  1.0 -0.1854322795
C  C112  1  0.37490000  0.87700000  0.71910000  1.0 -0.1854322795
C  C113  1  0.87700000  0.71910000  0.37490000  1.0 -0.1854322795
C  C114  1  0.12300000  0.71910000  0.62510000  1.0 -0.1854322795
C  C115  1  0.12300000  0.28090000  0.37490000  1.0 -0.1854322795
C  C116  1  0.87700000  0.28090000  0.62510000  1.0 -0.1854322795
C  C117  1  0.71910000  0.62510000  0.12300000  1.0 -0.1854322795
C  C118  1  0.71910000  0.37490000  0.87700000  1.0 -0.1854322795
C  C119  1  0.28090000  0.62510000  0.87700000  1.0 -0.1854322795
C  C120  1  0.28090000  0.37490000  0.12300000  1.0 -0.1854322795
C  C121  1  0.62300000  0.87490000  0.78090000  1.0 -0.1854322795
C  C122  1  0.37700000  0.12510000  0.78090000  1.0 -0.1854322795
C  C123  1  0.37700000  0.87490000  0.21910000  1.0 -0.1854322795
C  C124  1  0.62300000  0.12510000  0.21910000  1.0 -0.1854322795
C  C125  1  0.78090000  0.62300000  0.87490000  1.0 -0.1854322795
C  C126  1  0.78090000  0.37700000  0.12510000  1.0 -0.1854322795
C  C127  1  0.21910000  0.37700000  0.87490000  1.0 -0.1854322795
C  C128  1  0.21910000  0.62300000  0.12510000  1.0 -0.1854322795
C  C129  1  0.87490000  0.78090000  0.62300000  1.0 -0.1854322795
C  C130  1  0.12510000  0.78090000  0.37700000  1.0 -0.1854322795
C  C131  1  0.87490000  0.21910000  0.37700000  1.0 -0.1854322795
C  C132  1  0.12510000  0.21910000  0.62300000  1.0 -0.1847824906
C  C133  1  0.37490000  0.12300000  0.71910000  1.0 -0.1854322795
C  C134  1  0.62510000  0.87700000  0.71910000  1.0 -0.1854322795
C  C135  1  0.37490000  0.87700000  0.28090000  1.0 -0.1854322795
C  C136  1  0.62510000  0.12300000  0.28090000  1.0 -0.1854322795
C  C137  1  0.12300000  0.28090000  0.62510000  1.0 -0.1854322795
C  C138  1  0.87700000  0.28090000  0.37490000  1.0 -0.1854322795
C  C139  1  0.87700000  0.71910000  0.62510000  1.0 -0.1854322795
C  C140  1  0.12300000  0.71910000  0.37490000  1.0 -0.1854322795
C  C141  1  0.28090000  0.37490000  0.87700000  1.0 -0.1854322795
C  C142  1  0.28090000  0.62510000  0.12300000  1.0 -0.1854322795
C  C143  1  0.71910000  0.37490000  0.12300000  1.0 -0.1854322795
C  C144  1  0.71910000  0.62510000  0.87700000  1.0 -0.1854322795
C  C145  1  0.35960000  0.14040000  0.25000000  1.0 0.0903156063
C  C146  1  0.64040000  0.85960000  0.25000000  1.0 0.0903156063
C  C147  1  0.64040000  0.14040000  0.75000000  1.0 0.0903156063
C  C148  1  0.35960000  0.85960000  0.75000000  1.0 0.0903156063
C  C149  1  0.25000000  0.35960000  0.14040000  1.0 0.0903156063
C  C150  1  0.25000000  0.64040000  0.85960000  1.0 0.0903156063
C  C151  1  0.75000000  0.64040000  0.14040000  1.0 0.0903156063
C  C152  1  0.75000000  0.35960000  0.85960000  1.0 0.0903156063
C  C153  1  0.14040000  0.25000000  0.35960000  1.0 0.0903156063
C  C154  1  0.85960000  0.25000000  0.64040000  1.0 0.0903156063
C  C155  1  0.14040000  0.75000000  0.64040000  1.0 0.0903156063
C  C156  1  0.85960000  0.75000000  0.35960000  1.0 0.0903156063
C  C157  1  0.64040000  0.85960000  0.75000000  1.0 0.0903156063
C  C158  1  0.35960000  0.14040000  0.75000000  1.0 0.0903156063
C  C159  1  0.35960000  0.85960000  0.25000000  1.0 0.0903156063
C  C160  1  0.64040000  0.14040000  0.25000000  1.0 0.0903156063
C  C161  1  0.75000000  0.64040000  0.85960000  1.0 0.0903156063
C  C162  1  0.75000000  0.35960000  0.14040000  1.0 0.0903156063
C  C163  1  0.25000000  0.35960000  0.85960000  1.0 0.0903156063
C  C164  1  0.25000000  0.64040000  0.14040000  1.0 0.0903156063
C  C165  1  0.85960000  0.75000000  0.64040000  1.0 0.0903156063
C  C166  1  0.14040000  0.75000000  0.35960000  1.0 0.0903156063
C  C167  1  0.85960000  0.25000000  0.35960000  1.0 0.0903156063
C  C168  1  0.14040000  0.25000000  0.64040000  1.0 0.0903156063
C  C169  1  0.33130000  0.16870000  0.25000000  1.0 0.0187249498
C  C170  1  0.66870000  0.83130000  0.25000000  1.0 0.0187249498
C  C171  1  0.66870000  0.16870000  0.75000000  1.0 0.0187249498
C  C172  1  0.33130000  0.83130000  0.75000000  1.0 0.0187249498
C  C173  1  0.25000000  0.33130000  0.16870000  1.0 0.0187249498
C  C174  1  0.25000000  0.66870000  0.83130000  1.0 0.0187249498
C  C175  1  0.75000000  0.66870000  0.16870000  1.0 0.0187249498
C  C176  1  0.75000000  0.33130000  0.83130000  1.0 0.0187249498
C  C177  1  0.16870000  0.25000000  0.33130000  1.0 0.0187249498
C  C178  1  0.83130000  0.25000000  0.66870000  1.0 0.0187249498
C  C179  1  0.16870000  0.75000000  0.66870000  1.0 0.0187249498
C  C180  1  0.83130000  0.75000000  0.33130000  1.0 0.0187249498
C  C181  1  0.66870000  0.83130000  0.75000000  1.0 0.0187249498
C  C182  1  0.33130000  0.16870000  0.75000000  1.0 0.0187249498
C  C183  1  0.33130000  0.83130000  0.25000000  1.0 0.0187249498
C  C184  1  0.66870000  0.16870000  0.25000000  1.0 0.0187249498
C  C185  1  0.75000000  0.66870000  0.83130000  1.0 0.0187249498
C  C186  1  0.75000000  0.33130000  0.16870000  1.0 0.0187249498
C  C187  1  0.25000000  0.33130000  0.83130000  1.0 0.0187249498
C  C188  1  0.25000000  0.66870000  0.16870000  1.0 0.0187249498
C  C189  1  0.83130000  0.75000000  0.66870000  1.0 0.0187249498
C  C190  1  0.16870000  0.75000000  0.33130000  1.0 0.0187249498
C  C191  1  0.83130000  0.25000000  0.33130000  1.0 0.0187249498
C  C192  1  0.16870000  0.25000000  0.66870000  1.0 0.0187249498
C  C193  1  0.31980000  0.17850000  0.21410000  1.0 -0.1209917907
C  C194  1  0.68020000  0.82150000  0.21410000  1.0 -0.1209917907
C  C195  1  0.68020000  0.17850000  0.78590000  1.0 -0.1209917907
C  C196  1  0.31980000  0.82150000  0.78590000  1.0 -0.1209917907
C  C197  1  0.21410000  0.31980000  0.17850000  1.0 -0.1209917907
C  C198  1  0.21410000  0.68020000  0.82150000  1.0 -0.1209917907
C  C199  1  0.78590000  0.68020000  0.17850000  1.0 -0.1209917907
C  C200  1  0.78590000  0.31980000  0.82150000  1.0 -0.1209917907
C  C201  1  0.17850000  0.21410000  0.31980000  1.0 -0.1209917907
C  C202  1  0.82150000  0.21410000  0.68020000  1.0 -0.1209917907
C  C203  1  0.17850000  0.78590000  0.68020000  1.0 -0.1209917907
C  C204  1  0.82150000  0.78590000  0.31980000  1.0 -0.1209917907
C  C205  1  0.67850000  0.81980000  0.28590000  1.0 -0.1209917907
C  C206  1  0.32150000  0.18020000  0.28590000  1.0 -0.1209917907
C  C207  1  0.67850000  0.18020000  0.71410000  1.0 -0.1209917907
C  C208  1  0.32150000  0.81980000  0.71410000  1.0 -0.1209917907
C  C209  1  0.81980000  0.71410000  0.32150000  1.0 -0.1209917907
C  C210  1  0.18020000  0.71410000  0.67850000  1.0 -0.1209917907
C  C211  1  0.18020000  0.28590000  0.32150000  1.0 -0.1209917907
C  C212  1  0.81980000  0.28590000  0.67850000  1.0 -0.1209917907
C  C213  1  0.71410000  0.67850000  0.18020000  1.0 -0.1209917907
C  C214  1  0.71410000  0.32150000  0.81980000  1.0 -0.1209917907
C  C215  1  0.28590000  0.67850000  0.81980000  1.0 -0.1209917907
C  C216  1  0.28590000  0.32150000  0.18020000  1.0 -0.1209917907
C  C217  1  0.68020000  0.82150000  0.78590000  1.0 -0.1209917907
C  C218  1  0.31980000  0.17850000  0.78590000  1.0 -0.1209917907
C  C219  1  0.31980000  0.82150000  0.21410000  1.0 -0.1209917907
C  C220  1  0.68020000  0.17850000  0.21410000  1.0 -0.1209917907
C  C221  1  0.78590000  0.68020000  0.82150000  1.0 -0.1209917907
C  C222  1  0.78590000  0.31980000  0.17850000  1.0 -0.1209917907
C  C223  1  0.21410000  0.31980000  0.82150000  1.0 -0.1209917907
C  C224  1  0.21410000  0.68020000  0.17850000  1.0 -0.1209917907
C  C225  1  0.82150000  0.78590000  0.68020000  1.0 -0.1209917907
C  C226  1  0.17850000  0.78590000  0.31980000  1.0 -0.1209917907
C  C227  1  0.82150000  0.21410000  0.31980000  1.0 -0.1209917907
C  C228  1  0.17850000  0.21410000  0.68020000  1.0 -0.1209917907
C  C229  1  0.32150000  0.18020000  0.71410000  1.0 -0.1209917907
C  C230  1  0.67850000  0.81980000  0.71410000  1.0 -0.1209917907
C  C231  1  0.32150000  0.81980000  0.28590000  1.0 -0.1209917907
C  C232  1  0.67850000  0.18020000  0.28590000  1.0 -0.1209917907
C  C233  1  0.18020000  0.28590000  0.67850000  1.0 -0.1209917907
C  C234  1  0.81980000  0.28590000  0.32150000  1.0 -0.1209917907
C  C235  1  0.81980000  0.71410000  0.67850000  1.0 -0.1209917907
C  C236  1  0.18020000  0.71410000  0.32150000  1.0 -0.1209917907
C  C237  1  0.28590000  0.32150000  0.81980000  1.0 -0.1209917907
C  C238  1  0.28590000  0.67850000  0.18020000  1.0 -0.1209917907
C  C239  1  0.71410000  0.32150000  0.18020000  1.0 -0.1209917907
C  C240  1  0.71410000  0.67850000  0.81980000  1.0 -0.1209917907
C  C241  1  0.29320000  0.20440000  0.21640000  1.0 -0.1998795747
C  C242  1  0.70680000  0.79560000  0.21640000  1.0 -0.1998795747
C  C243  1  0.70680000  0.20440000  0.78360000  1.0 -0.1998795747
C  C244  1  0.29320000  0.79560000  0.78360000  1.0 -0.1998795747
C  C245  1  0.21640000  0.29320000  0.20440000  1.0 -0.1998795747
C  C246  1  0.21640000  0.70680000  0.79560000  1.0 -0.1998795747
C  C247  1  0.78360000  0.70680000  0.20440000  1.0 -0.1998795747
C  C248  1  0.78360000  0.29320000  0.79560000  1.0 -0.1998795747
C  C249  1  0.20440000  0.21640000  0.29320000  1.0 -0.1998795747
C  C250  1  0.79560000  0.21640000  0.70680000  1.0 -0.1998795747
C  C251  1  0.20440000  0.78360000  0.70680000  1.0 -0.1998795747
C  C252  1  0.79560000  0.78360000  0.29320000  1.0 -0.1998795747
C  C253  1  0.70440000  0.79320000  0.28360000  1.0 -0.1998795747
C  C254  1  0.29560000  0.20680000  0.28360000  1.0 -0.1998795747
C  C255  1  0.70440000  0.20680000  0.71640000  1.0 -0.1998795747
C  C256  1  0.29560000  0.79320000  0.71640000  1.0 -0.1998795747
C  C257  1  0.79320000  0.71640000  0.29560000  1.0 -0.1998795747
C  C258  1  0.20680000  0.71640000  0.70440000  1.0 -0.1998795747
C  C259  1  0.20680000  0.28360000  0.29560000  1.0 -0.1998795747
C  C260  1  0.79320000  0.28360000  0.70440000  1.0 -0.1998795747
C  C261  1  0.71640000  0.70440000  0.20680000  1.0 -0.1998795747
C  C262  1  0.71640000  0.29560000  0.79320000  1.0 -0.1998795747
C  C263  1  0.28360000  0.70440000  0.79320000  1.0 -0.1998795747
C  C264  1  0.28360000  0.29560000  0.20680000  1.0 -0.1998795747
C  C265  1  0.70680000  0.79560000  0.78360000  1.0 -0.1998795747
C  C266  1  0.29320000  0.20440000  0.78360000  1.0 -0.1998795747
C  C267  1  0.29320000  0.79560000  0.21640000  1.0 -0.1998795747
C  C268  1  0.70680000  0.20440000  0.21640000  1.0 -0.1998795747
C  C269  1  0.78360000  0.70680000  0.79560000  1.0 -0.1998795747
C  C270  1  0.78360000  0.29320000  0.20440000  1.0 -0.1998795747
C  C271  1  0.21640000  0.29320000  0.79560000  1.0 -0.1998795747
C  C272  1  0.21640000  0.70680000  0.20440000  1.0 -0.1998795747
C  C273  1  0.79560000  0.78360000  0.70680000  1.0 -0.1998795747
C  C274  1  0.20440000  0.78360000  0.29320000  1.0 -0.1998795747
C  C275  1  0.79560000  0.21640000  0.29320000  1.0 -0.1998795747
C  C276  1  0.20440000  0.21640000  0.70680000  1.0 -0.1998795747
C  C277  1  0.29560000  0.20680000  0.71640000  1.0 -0.1998795747
C  C278  1  0.70440000  0.79320000  0.71640000  1.0 -0.1998795747
C  C279  1  0.29560000  0.79320000  0.28360000  1.0 -0.1998795747
C  C280  1  0.70440000  0.20680000  0.28360000  1.0 -0.1998795747
C  C281  1  0.20680000  0.28360000  0.70440000  1.0 -0.1998795747
C  C282  1  0.79320000  0.28360000  0.29560000  1.0 -0.1998795747
C  C283  1  0.79320000  0.71640000  0.70440000  1.0 -0.1998795747
C  C284  1  0.20680000  0.71640000  0.29560000  1.0 -0.1998795747
C  C285  1  0.28360000  0.29560000  0.79320000  1.0 -0.1998795747
C  C286  1  0.28360000  0.70440000  0.20680000  1.0 -0.1998795747
C  C287  1  0.71640000  0.29560000  0.20680000  1.0 -0.1998795747
C  C288  1  0.71640000  0.70440000  0.79320000  1.0 -0.1998795747
C  C289  1  0.27945000  0.22055000  0.25000000  1.0 0.1586757664
C  C290  1  0.72055000  0.77945000  0.25000000  1.0 0.1586757664
C  C291  1  0.72055000  0.22055000  0.75000000  1.0 0.1586757664
C  C292  1  0.27945000  0.77945000  0.75000000  1.0 0.1586757664
C  C293  1  0.25000000  0.27945000  0.22055000  1.0 0.1586757664
C  C294  1  0.25000000  0.72055000  0.77945000  1.0 0.1586757664
C  C295  1  0.75000000  0.72055000  0.22055000  1.0 0.1586757664
C  C296  1  0.75000000  0.27945000  0.77945000  1.0 0.1586757664
C  C297  1  0.22055000  0.25000000  0.27945000  1.0 0.1586757664
C  C298  1  0.77945000  0.25000000  0.72055000  1.0 0.1586757664
C  C299  1  0.22055000  0.75000000  0.72055000  1.0 0.1586757664
C  C300  1  0.77945000  0.75000000  0.27945000  1.0 0.1586757664
C  C301  1  0.72055000  0.77945000  0.75000000  1.0 0.1586757664
C  C302  1  0.27945000  0.22055000  0.75000000  1.0 0.1586757664
C  C303  1  0.27945000  0.77945000  0.25000000  1.0 0.1586757664
C  C304  1  0.72055000  0.22055000  0.25000000  1.0 0.1586757664
C  C305  1  0.75000000  0.72055000  0.77945000  1.0 0.1586757664
C  C306  1  0.75000000  0.27945000  0.22055000  1.0 0.1586757664
C  C307  1  0.25000000  0.27945000  0.77945000  1.0 0.1586757664
C  C308  1  0.25000000  0.72055000  0.22055000  1.0 0.1586757664
C  C309  1  0.77945000  0.75000000  0.72055000  1.0 0.1586757664
C  C310  1  0.22055000  0.75000000  0.27945000  1.0 0.1586757664
C  C311  1  0.77945000  0.25000000  0.27945000  1.0 0.1586757664
C  C312  1  0.22055000  0.25000000  0.72055000  1.0 0.1586757664
N  N1  1  0.25000000  0.25000000  0.25000000  1.0 -0.1558808316
N  N2  1  0.75000000  0.75000000  0.25000000  1.0 -0.1558808316
N  N3  1  0.75000000  0.25000000  0.75000000  1.0 -0.1558808316
N  N4  1  0.25000000  0.75000000  0.75000000  1.0 -0.1558808316
N  N5  1  0.75000000  0.75000000  0.75000000  1.0 -0.1558808316
N  N6  1  0.25000000  0.25000000  0.75000000  1.0 -0.1558808316
N  N7  1  0.25000000  0.75000000  0.25000000  1.0 -0.1558808316
N  N8  1  0.75000000  0.25000000  0.25000000  1.0 -0.1558808316
O  O1  1  0.46254000  0.03746000  0.21922000  1.0 -0.5077624437
O  O2  1  0.53746000  0.96254000  0.21922000  1.0 -0.5077624437
O  O3  1  0.53746000  0.03746000  0.78078000  1.0 -0.5077624437
O  O4  1  0.46254000  0.96254000  0.78078000  1.0 -0.5077624437
O  O5  1  0.21922000  0.46254000  0.03746000  1.0 -0.5077624437
O  O6  1  0.21922000  0.53746000  0.96254000  1.0 -0.5077624437
O  O7  1  0.78078000  0.53746000  0.03746000  1.0 -0.5077624437
O  O8  1  0.78078000  0.46254000  0.96254000  1.0 -0.5077624437
O  O9  1  0.03746000  0.21922000  0.46254000  1.0 -0.5077624437
O  O10  1  0.96254000  0.21922000  0.53746000  1.0 -0.5077624437
O  O11  1  0.03746000  0.78078000  0.53746000  1.0 -0.5077624437
O  O12  1  0.96254000  0.78078000  0.46254000  1.0 -0.5077624437
O  O13  1  0.53746000  0.96254000  0.28078000  1.0 -0.5077624437
O  O14  1  0.46254000  0.03746000  0.28078000  1.0 -0.5077624437
O  O15  1  0.53746000  0.03746000  0.71922000  1.0 -0.5077624437
O  O16  1  0.46254000  0.96254000  0.71922000  1.0 -0.5077624437
O  O17  1  0.96254000  0.71922000  0.46254000  1.0 -0.5077624437
O  O18  1  0.03746000  0.71922000  0.53746000  1.0 -0.5077624437
O  O19  1  0.03746000  0.28078000  0.46254000  1.0 -0.5077624437
O  O20  1  0.96254000  0.28078000  0.53746000  1.0 -0.5077624437
O  O21  1  0.71922000  0.53746000  0.03746000  1.0 -0.5077624437
O  O22  1  0.71922000  0.46254000  0.96254000  1.0 -0.5077624437
O  O23  1  0.28078000  0.53746000  0.96254000  1.0 -0.5077624437
O  O24  1  0.28078000  0.46254000  0.03746000  1.0 -0.5077624437
O  O25  1  0.53746000  0.96254000  0.78078000  1.0 -0.5077624437
O  O26  1  0.46254000  0.03746000  0.78078000  1.0 -0.5077624437
O  O27  1  0.46254000  0.96254000  0.21922000  1.0 -0.5077624437
O  O28  1  0.53746000  0.03746000  0.21922000  1.0 -0.5077624437
O  O29  1  0.78078000  0.53746000  0.96254000  1.0 -0.5077624437
O  O30  1  0.78078000  0.46254000  0.03746000  1.0 -0.5077624437
O  O31  1  0.21922000  0.46254000  0.96254000  1.0 -0.5077624437
O  O32  1  0.21922000  0.53746000  0.03746000  1.0 -0.5077624437
O  O33  1  0.96254000  0.78078000  0.53746000  1.0 -0.5077624437
O  O34  1  0.03746000  0.78078000  0.46254000  1.0 -0.5077624437
O  O35  1  0.96254000  0.21922000  0.46254000  1.0 -0.5077624437
O  O36  1  0.03746000  0.21922000  0.53746000  1.0 -0.5077624437
O  O37  1  0.46254000  0.03746000  0.71922000  1.0 -0.5077624437
O  O38  1  0.53746000  0.96254000  0.71922000  1.0 -0.5077624437
O  O39  1  0.46254000  0.96254000  0.28078000  1.0 -0.5077624437
O  O40  1  0.53746000  0.03746000  0.28078000  1.0 -0.5077624437
O  O41  1  0.03746000  0.28078000  0.53746000  1.0 -0.5077624437
O  O42  1  0.96254000  0.28078000  0.46254000  1.0 -0.5077624437
O  O43  1  0.96254000  0.71922000  0.53746000  1.0 -0.5077624437
O  O44  1  0.03746000  0.71922000  0.46254000  1.0 -0.5077624437
O  O45  1  0.28078000  0.46254000  0.96254000  1.0 -0.5077624437
O  O46  1  0.28078000  0.53746000  0.03746000  1.0 -0.5077624437
O  O47  1  0.71922000  0.46254000  0.03746000  1.0 -0.5077624437
O  O48  1  0.71922000  0.53746000  0.96254000  1.0 -0.5077624437
