# DDEC6 charges by PACMAN v1.1 (https://github.com/mtap-research/PACMAN-charge/)
data_AVAKEP_ASR_pacman
_symmetry_space_group_name_H-M   'P 1'
_cell_length_a   35.40000000
_cell_length_b   35.40000000
_cell_length_c   35.40000000
_cell_angle_alpha   90.00000000
_cell_angle_beta   90.00000000
_cell_angle_gamma   90.00000000
_symmetry_Int_Tables_number   1
_chemical_formula_structural   Cu3H72C96(NO6)2
_chemical_formula_sum   'Cu12 H288 C384 N8 O48'
_cell_volume   44361.86400000
_cell_formula_units_Z   4
loop_
 _symmetry_equiv_pos_site_id
 _symmetry_equiv_pos_as_xyz
  1  'x, y, z'
loop_
 _atom_site_type_symbol
 _atom_site_label
 _atom_site_symmetry_multiplicity
 _atom_site_fract_x
 _atom_site_fract_y
 _atom_site_fract_z
 _atom_site_occupancy
 _atom_site_charge
Cu  Cu1  1  0.00000000  0.50000000  0.78772000  1.0 0.8525864814
Cu  Cu2  1  0.00000000  0.50000000  0.21228000  1.0 0.8525864814
Cu  Cu3  1  0.78772000  0.00000000  0.50000000  1.0 0.8525864814
Cu  Cu4  1  0.21228000  0.00000000  0.50000000  1.0 0.8525864814
Cu  Cu5  1  0.50000000  0.78772000  0.00000000  1.0 0.8525864814
Cu  Cu6  1  0.50000000  0.21228000  0.00000000  1.0 0.8525864814
Cu  Cu7  1  0.00000000  0.50000000  0.71228000  1.0 0.8525864814
Cu  Cu8  1  0.00000000  0.50000000  0.28772000  1.0 0.8525864814
Cu  Cu9  1  0.50000000  0.28772000  0.00000000  1.0 0.8525864814
Cu  Cu10  1  0.50000000  0.71228000  0.00000000  1.0 0.8525864814
Cu  Cu11  1  0.28772000  0.00000000  0.50000000  1.0 0.8525864814
Cu  Cu12  1  0.71228000  0.00000000  0.50000000  1.0 0.8525864814
H  H1  1  0.08760000  0.58210000  0.80660000  1.0 0.1302819805
H  H2  1  0.91240000  0.41790000  0.80660000  1.0 0.1302819805
H  H3  1  0.91240000  0.58210000  0.19340000  1.0 0.1302819805
H  H4  1  0.08760000  0.41790000  0.19340000  1.0 0.1302819805
H  H5  1  0.80660000  0.08760000  0.58210000  1.0 0.1302819805
H  H6  1  0.80660000  0.91240000  0.41790000  1.0 0.1302819805
H  H7  1  0.19340000  0.91240000  0.58210000  1.0 0.1302819805
H  H8  1  0.19340000  0.08760000  0.41790000  1.0 0.1302819805
H  H9  1  0.58210000  0.80660000  0.08760000  1.0 0.1302819805
H  H10  1  0.41790000  0.80660000  0.91240000  1.0 0.1302819805
H  H11  1  0.58210000  0.19340000  0.91240000  1.0 0.1302819805
H  H12  1  0.41790000  0.19340000  0.08760000  1.0 0.1302819805
H  H13  1  0.08210000  0.58760000  0.69340000  1.0 0.1302819805
H  H14  1  0.91790000  0.41240000  0.69340000  1.0 0.1302819805
H  H15  1  0.08210000  0.41240000  0.30660000  1.0 0.1302819805
H  H16  1  0.91790000  0.58760000  0.30660000  1.0 0.1302819805
H  H17  1  0.58760000  0.30660000  0.91790000  1.0 0.1302819805
H  H18  1  0.41240000  0.30660000  0.08210000  1.0 0.1302819805
H  H19  1  0.41240000  0.69340000  0.91790000  1.0 0.1302819805
H  H20  1  0.58760000  0.69340000  0.08210000  1.0 0.1302819805
H  H21  1  0.30660000  0.08210000  0.41240000  1.0 0.1302819805
H  H22  1  0.30660000  0.91790000  0.58760000  1.0 0.1302819805
H  H23  1  0.69340000  0.08210000  0.58760000  1.0 0.1302819805
H  H24  1  0.69340000  0.91790000  0.41240000  1.0 0.1302819805
H  H25  1  0.91240000  0.41790000  0.19340000  1.0 0.1302819805
H  H26  1  0.08760000  0.58210000  0.19340000  1.0 0.1302819805
H  H27  1  0.08760000  0.41790000  0.80660000  1.0 0.1302819805
H  H28  1  0.91240000  0.58210000  0.80660000  1.0 0.1302819805
H  H29  1  0.19340000  0.91240000  0.41790000  1.0 0.1302819805
H  H30  1  0.19340000  0.08760000  0.58210000  1.0 0.1302819805
H  H31  1  0.80660000  0.08760000  0.41790000  1.0 0.1302819805
H  H32  1  0.80660000  0.91240000  0.58210000  1.0 0.1302819805
H  H33  1  0.41790000  0.19340000  0.91240000  1.0 0.1302819805
H  H34  1  0.58210000  0.19340000  0.08760000  1.0 0.1302819805
H  H35  1  0.41790000  0.80660000  0.08760000  1.0 0.1302819805
H  H36  1  0.58210000  0.80660000  0.91240000  1.0 0.1302819805
H  H37  1  0.91790000  0.41240000  0.30660000  1.0 0.1302819805
H  H38  1  0.08210000  0.58760000  0.30660000  1.0 0.1302819805
H  H39  1  0.91790000  0.58760000  0.69340000  1.0 0.1302819805
H  H40  1  0.08210000  0.41240000  0.69340000  1.0 0.1302819805
H  H41  1  0.41240000  0.69340000  0.08210000  1.0 0.1302819805
H  H42  1  0.58760000  0.69340000  0.91790000  1.0 0.1302819805
H  H43  1  0.58760000  0.30660000  0.08210000  1.0 0.1302819805
H  H44  1  0.41240000  0.30660000  0.91790000  1.0 0.1302819805
H  H45  1  0.69340000  0.91790000  0.58760000  1.0 0.1302819805
H  H46  1  0.69340000  0.08210000  0.41240000  1.0 0.1302819805
H  H47  1  0.30660000  0.91790000  0.41240000  1.0 0.1302819805
H  H48  1  0.30660000  0.08210000  0.58760000  1.0 0.1302819805
H  H49  1  0.13510000  0.62660000  0.80580000  1.0 0.117878362
H  H50  1  0.86490000  0.37340000  0.80580000  1.0 0.117878362
H  H51  1  0.86490000  0.62660000  0.19420000  1.0 0.117878362
H  H52  1  0.13510000  0.37340000  0.19420000  1.0 0.117878362
H  H53  1  0.80580000  0.13510000  0.62660000  1.0 0.117878362
H  H54  1  0.80580000  0.86490000  0.37340000  1.0 0.117878362
H  H55  1  0.19420000  0.86490000  0.62660000  1.0 0.117878362
H  H56  1  0.19420000  0.13510000  0.37340000  1.0 0.117878362
H  H57  1  0.62660000  0.80580000  0.13510000  1.0 0.117878362
H  H58  1  0.37340000  0.80580000  0.86490000  1.0 0.117878362
H  H59  1  0.62660000  0.19420000  0.86490000  1.0 0.117878362
H  H60  1  0.37340000  0.19420000  0.13510000  1.0 0.117878362
H  H61  1  0.12660000  0.63510000  0.69420000  1.0 0.117878362
H  H62  1  0.87340000  0.36490000  0.69420000  1.0 0.117878362
H  H63  1  0.12660000  0.36490000  0.30580000  1.0 0.117878362
H  H64  1  0.87340000  0.63510000  0.30580000  1.0 0.117878362
H  H65  1  0.63510000  0.30580000  0.87340000  1.0 0.117878362
H  H66  1  0.36490000  0.30580000  0.12660000  1.0 0.117878362
H  H67  1  0.36490000  0.69420000  0.87340000  1.0 0.117878362
H  H68  1  0.63510000  0.69420000  0.12660000  1.0 0.117878362
H  H69  1  0.30580000  0.12660000  0.36490000  1.0 0.117878362
H  H70  1  0.30580000  0.87340000  0.63510000  1.0 0.117878362
H  H71  1  0.69420000  0.12660000  0.63510000  1.0 0.117878362
H  H72  1  0.69420000  0.87340000  0.36490000  1.0 0.117878362
H  H73  1  0.86490000  0.37340000  0.19420000  1.0 0.117878362
H  H74  1  0.13510000  0.62660000  0.19420000  1.0 0.117878362
H  H75  1  0.13510000  0.37340000  0.80580000  1.0 0.117878362
H  H76  1  0.86490000  0.62660000  0.80580000  1.0 0.117878362
H  H77  1  0.19420000  0.86490000  0.37340000  1.0 0.117878362
H  H78  1  0.19420000  0.13510000  0.62660000  1.0 0.117878362
H  H79  1  0.80580000  0.13510000  0.37340000  1.0 0.117878362
H  H80  1  0.80580000  0.86490000  0.62660000  1.0 0.117878362
H  H81  1  0.37340000  0.19420000  0.86490000  1.0 0.117878362
H  H82  1  0.62660000  0.19420000  0.13510000  1.0 0.117878362
H  H83  1  0.37340000  0.80580000  0.13510000  1.0 0.117878362
H  H84  1  0.62660000  0.80580000  0.86490000  1.0 0.117878362
H  H85  1  0.87340000  0.36490000  0.30580000  1.0 0.117878362
H  H86  1  0.12660000  0.63510000  0.30580000  1.0 0.117878362
H  H87  1  0.87340000  0.63510000  0.69420000  1.0 0.117878362
H  H88  1  0.12660000  0.36490000  0.69420000  1.0 0.117878362
H  H89  1  0.36490000  0.69420000  0.12660000  1.0 0.117878362
H  H90  1  0.63510000  0.69420000  0.87340000  1.0 0.117878362
H  H91  1  0.63510000  0.30580000  0.12660000  1.0 0.117878362
H  H92  1  0.36490000  0.30580000  0.87340000  1.0 0.117878362
H  H93  1  0.69420000  0.87340000  0.63510000  1.0 0.117878362
H  H94  1  0.69420000  0.12660000  0.36490000  1.0 0.117878362
H  H95  1  0.30580000  0.87340000  0.36490000  1.0 0.117878362
H  H96  1  0.30580000  0.12660000  0.63510000  1.0 0.117878362
H  H97  1  0.19290000  0.64930000  0.79720000  1.0 0.117878362
H  H98  1  0.80710000  0.35070000  0.79720000  1.0 0.117878362
H  H99  1  0.80710000  0.64930000  0.20280000  1.0 0.117878362
H  H100  1  0.19290000  0.35070000  0.20280000  1.0 0.117878362
H  H101  1  0.79720000  0.19290000  0.64930000  1.0 0.117878362
H  H102  1  0.79720000  0.80710000  0.35070000  1.0 0.117878362
H  H103  1  0.20280000  0.80710000  0.64930000  1.0 0.117878362
H  H104  1  0.20280000  0.19290000  0.35070000  1.0 0.117878362
H  H105  1  0.64930000  0.79720000  0.19290000  1.0 0.117878362
H  H106  1  0.35070000  0.79720000  0.80710000  1.0 0.117878362
H  H107  1  0.64930000  0.20280000  0.80710000  1.0 0.117878362
H  H108  1  0.35070000  0.20280000  0.19290000  1.0 0.117878362
H  H109  1  0.14930000  0.69290000  0.70280000  1.0 0.117878362
H  H110  1  0.85070000  0.30710000  0.70280000  1.0 0.117878362
H  H111  1  0.14930000  0.30710000  0.29720000  1.0 0.117878362
H  H112  1  0.85070000  0.69290000  0.29720000  1.0 0.117878362
H  H113  1  0.69290000  0.29720000  0.85070000  1.0 0.117878362
H  H114  1  0.30710000  0.29720000  0.14930000  1.0 0.117878362
H  H115  1  0.30710000  0.70280000  0.85070000  1.0 0.117878362
H  H116  1  0.69290000  0.70280000  0.14930000  1.0 0.117878362
H  H117  1  0.29720000  0.14930000  0.30710000  1.0 0.117878362
H  H118  1  0.29720000  0.85070000  0.69290000  1.0 0.117878362
H  H119  1  0.70280000  0.14930000  0.69290000  1.0 0.117878362
H  H120  1  0.70280000  0.85070000  0.30710000  1.0 0.117878362
H  H121  1  0.80710000  0.35070000  0.20280000  1.0 0.117878362
H  H122  1  0.19290000  0.64930000  0.20280000  1.0 0.117878362
H  H123  1  0.19290000  0.35070000  0.79720000  1.0 0.117878362
H  H124  1  0.80710000  0.64930000  0.79720000  1.0 0.117878362
H  H125  1  0.20280000  0.80710000  0.35070000  1.0 0.117878362
H  H126  1  0.20280000  0.19290000  0.64930000  1.0 0.117878362
H  H127  1  0.79720000  0.19290000  0.35070000  1.0 0.117878362
H  H128  1  0.79720000  0.80710000  0.64930000  1.0 0.117878362
H  H129  1  0.35070000  0.20280000  0.80710000  1.0 0.117878362
H  H130  1  0.64930000  0.20280000  0.19290000  1.0 0.117878362
H  H131  1  0.35070000  0.79720000  0.19290000  1.0 0.117878362
H  H132  1  0.64930000  0.79720000  0.80710000  1.0 0.117878362
H  H133  1  0.85070000  0.30710000  0.29720000  1.0 0.117878362
H  H134  1  0.14930000  0.69290000  0.29720000  1.0 0.117878362
H  H135  1  0.85070000  0.69290000  0.70280000  1.0 0.117878362
H  H136  1  0.14930000  0.30710000  0.70280000  1.0 0.117878362
H  H137  1  0.30710000  0.70280000  0.14930000  1.0 0.117878362
H  H138  1  0.69290000  0.70280000  0.85070000  1.0 0.117878362
H  H139  1  0.69290000  0.29720000  0.14930000  1.0 0.117878362
H  H140  1  0.30710000  0.29720000  0.85070000  1.0 0.117878362
H  H141  1  0.70280000  0.85070000  0.69290000  1.0 0.117878362
H  H142  1  0.70280000  0.14930000  0.30710000  1.0 0.117878362
H  H143  1  0.29720000  0.85070000  0.30710000  1.0 0.117878362
H  H144  1  0.29720000  0.14930000  0.69290000  1.0 0.117878362
H  H145  1  0.25030000  0.63320000  0.80770000  1.0 0.117878362
H  H146  1  0.74970000  0.36680000  0.80770000  1.0 0.117878362
H  H147  1  0.74970000  0.63320000  0.19230000  1.0 0.117878362
H  H148  1  0.25030000  0.36680000  0.19230000  1.0 0.117878362
H  H149  1  0.80770000  0.25030000  0.63320000  1.0 0.117878362
H  H150  1  0.80770000  0.74970000  0.36680000  1.0 0.117878362
H  H151  1  0.19230000  0.74970000  0.63320000  1.0 0.117878362
H  H152  1  0.19230000  0.25030000  0.36680000  1.0 0.117878362
H  H153  1  0.63320000  0.80770000  0.25030000  1.0 0.117878362
H  H154  1  0.36680000  0.80770000  0.74970000  1.0 0.117878362
H  H155  1  0.63320000  0.19230000  0.74970000  1.0 0.117878362
H  H156  1  0.36680000  0.19230000  0.25030000  1.0 0.117878362
H  H157  1  0.13320000  0.75030000  0.69230000  1.0 0.117878362
H  H158  1  0.86680000  0.24970000  0.69230000  1.0 0.117878362
H  H159  1  0.13320000  0.24970000  0.30770000  1.0 0.117878362
H  H160  1  0.86680000  0.75030000  0.30770000  1.0 0.117878362
H  H161  1  0.75030000  0.30770000  0.86680000  1.0 0.117878362
H  H162  1  0.24970000  0.30770000  0.13320000  1.0 0.117878362
H  H163  1  0.24970000  0.69230000  0.86680000  1.0 0.117878362
H  H164  1  0.75030000  0.69230000  0.13320000  1.0 0.117878362
H  H165  1  0.30770000  0.13320000  0.24970000  1.0 0.117878362
H  H166  1  0.30770000  0.86680000  0.75030000  1.0 0.117878362
H  H167  1  0.69230000  0.13320000  0.75030000  1.0 0.117878362
H  H168  1  0.69230000  0.86680000  0.24970000  1.0 0.117878362
H  H169  1  0.74970000  0.36680000  0.19230000  1.0 0.117878362
H  H170  1  0.25030000  0.63320000  0.19230000  1.0 0.117878362
H  H171  1  0.25030000  0.36680000  0.80770000  1.0 0.117878362
H  H172  1  0.74970000  0.63320000  0.80770000  1.0 0.117878362
H  H173  1  0.19230000  0.74970000  0.36680000  1.0 0.117878362
H  H174  1  0.19230000  0.25030000  0.63320000  1.0 0.117878362
H  H175  1  0.80770000  0.25030000  0.36680000  1.0 0.117878362
H  H176  1  0.80770000  0.74970000  0.63320000  1.0 0.117878362
H  H177  1  0.36680000  0.19230000  0.74970000  1.0 0.117878362
H  H178  1  0.63320000  0.19230000  0.25030000  1.0 0.117878362
H  H179  1  0.36680000  0.80770000  0.25030000  1.0 0.117878362
H  H180  1  0.63320000  0.80770000  0.74970000  1.0 0.117878362
H  H181  1  0.86680000  0.24970000  0.30770000  1.0 0.117878362
H  H182  1  0.13320000  0.75030000  0.30770000  1.0 0.117878362
H  H183  1  0.86680000  0.75030000  0.69230000  1.0 0.117878362
H  H184  1  0.13320000  0.24970000  0.69230000  1.0 0.117878362
H  H185  1  0.24970000  0.69230000  0.13320000  1.0 0.117878362
H  H186  1  0.75030000  0.69230000  0.86680000  1.0 0.117878362
H  H187  1  0.75030000  0.30770000  0.13320000  1.0 0.117878362
H  H188  1  0.24970000  0.30770000  0.86680000  1.0 0.117878362
H  H189  1  0.69230000  0.86680000  0.75030000  1.0 0.117878362
H  H190  1  0.69230000  0.13320000  0.24970000  1.0 0.117878362
H  H191  1  0.30770000  0.86680000  0.24970000  1.0 0.117878362
H  H192  1  0.30770000  0.13320000  0.75030000  1.0 0.117878362
H  H193  1  0.28360000  0.64900000  0.78330000  1.0 0.1302819805
H  H194  1  0.71640000  0.35100000  0.78330000  1.0 0.1302819805
H  H195  1  0.71640000  0.64900000  0.21670000  1.0 0.1302819805
H  H196  1  0.28360000  0.35100000  0.21670000  1.0 0.1302819805
H  H197  1  0.78330000  0.28360000  0.64900000  1.0 0.1302819805
H  H198  1  0.78330000  0.71640000  0.35100000  1.0 0.1302819805
H  H199  1  0.21670000  0.71640000  0.64900000  1.0 0.1302819805
H  H200  1  0.21670000  0.28360000  0.35100000  1.0 0.1302819805
H  H201  1  0.64900000  0.78330000  0.28360000  1.0 0.1302819805
H  H202  1  0.35100000  0.78330000  0.71640000  1.0 0.1302819805
H  H203  1  0.64900000  0.21670000  0.71640000  1.0 0.1302819805
H  H204  1  0.35100000  0.21670000  0.28360000  1.0 0.1302819805
H  H205  1  0.14900000  0.78360000  0.71670000  1.0 0.1302819805
H  H206  1  0.85100000  0.21640000  0.71670000  1.0 0.1302819805
H  H207  1  0.14900000  0.21640000  0.28330000  1.0 0.1302819805
H  H208  1  0.85100000  0.78360000  0.28330000  1.0 0.1302819805
H  H209  1  0.78360000  0.28330000  0.85100000  1.0 0.1302819805
H  H210  1  0.21640000  0.28330000  0.14900000  1.0 0.1302819805
H  H211  1  0.21640000  0.71670000  0.85100000  1.0 0.1302819805
H  H212  1  0.78360000  0.71670000  0.14900000  1.0 0.1302819805
H  H213  1  0.28330000  0.14900000  0.21640000  1.0 0.1302819805
H  H214  1  0.28330000  0.85100000  0.78360000  1.0 0.1302819805
H  H215  1  0.71670000  0.14900000  0.78360000  1.0 0.1302819805
H  H216  1  0.71670000  0.85100000  0.21640000  1.0 0.1302819805
H  H217  1  0.71640000  0.35100000  0.21670000  1.0 0.1302819805
H  H218  1  0.28360000  0.64900000  0.21670000  1.0 0.1302819805
H  H219  1  0.28360000  0.35100000  0.78330000  1.0 0.1302819805
H  H220  1  0.71640000  0.64900000  0.78330000  1.0 0.1302819805
H  H221  1  0.21670000  0.71640000  0.35100000  1.0 0.1302819805
H  H222  1  0.21670000  0.28360000  0.64900000  1.0 0.1302819805
H  H223  1  0.78330000  0.28360000  0.35100000  1.0 0.1302819805
H  H224  1  0.78330000  0.71640000  0.64900000  1.0 0.1302819805
H  H225  1  0.35100000  0.21670000  0.71640000  1.0 0.1302819805
H  H226  1  0.64900000  0.21670000  0.28360000  1.0 0.1302819805
H  H227  1  0.35100000  0.78330000  0.28360000  1.0 0.1302819805
H  H228  1  0.64900000  0.78330000  0.71640000  1.0 0.1302819805
H  H229  1  0.85100000  0.21640000  0.28330000  1.0 0.1302819805
H  H230  1  0.14900000  0.78360000  0.28330000  1.0 0.1302819805
H  H231  1  0.85100000  0.78360000  0.71670000  1.0 0.1302819805
H  H232  1  0.14900000  0.21640000  0.71670000  1.0 0.1302819805
H  H233  1  0.21640000  0.71670000  0.14900000  1.0 0.1302819805
H  H234  1  0.78360000  0.71670000  0.85100000  1.0 0.1302819805
H  H235  1  0.78360000  0.28330000  0.14900000  1.0 0.1302819805
H  H236  1  0.21640000  0.28330000  0.85100000  1.0 0.1302819805
H  H237  1  0.71670000  0.85100000  0.78360000  1.0 0.1302819805
H  H238  1  0.71670000  0.14900000  0.21640000  1.0 0.1302819805
H  H239  1  0.28330000  0.85100000  0.21640000  1.0 0.1302819805
H  H240  1  0.28330000  0.14900000  0.78360000  1.0 0.1302819805
H  H241  1  0.28620000  0.65000000  0.82750000  1.0 0.117878362
H  H242  1  0.71380000  0.35000000  0.82750000  1.0 0.117878362
H  H243  1  0.71380000  0.65000000  0.17250000  1.0 0.117878362
H  H244  1  0.28620000  0.35000000  0.17250000  1.0 0.117878362
H  H245  1  0.82750000  0.28620000  0.65000000  1.0 0.117878362
H  H246  1  0.82750000  0.71380000  0.35000000  1.0 0.117878362
H  H247  1  0.17250000  0.71380000  0.65000000  1.0 0.117878362
H  H248  1  0.17250000  0.28620000  0.35000000  1.0 0.117878362
H  H249  1  0.65000000  0.82750000  0.28620000  1.0 0.117878362
H  H250  1  0.35000000  0.82750000  0.71380000  1.0 0.117878362
H  H251  1  0.65000000  0.17250000  0.71380000  1.0 0.117878362
H  H252  1  0.35000000  0.17250000  0.28620000  1.0 0.117878362
H  H253  1  0.15000000  0.78620000  0.67250000  1.0 0.117878362
H  H254  1  0.85000000  0.21380000  0.67250000  1.0 0.117878362
H  H255  1  0.15000000  0.21380000  0.32750000  1.0 0.117878362
H  H256  1  0.85000000  0.78620000  0.32750000  1.0 0.117878362
H  H257  1  0.78620000  0.32750000  0.85000000  1.0 0.117878362
H  H258  1  0.21380000  0.32750000  0.15000000  1.0 0.117878362
H  H259  1  0.21380000  0.67250000  0.85000000  1.0 0.117878362
H  H260  1  0.78620000  0.67250000  0.15000000  1.0 0.117878362
H  H261  1  0.32750000  0.15000000  0.21380000  1.0 0.117878362
H  H262  1  0.32750000  0.85000000  0.78620000  1.0 0.117878362
H  H263  1  0.67250000  0.15000000  0.78620000  1.0 0.117878362
H  H264  1  0.67250000  0.85000000  0.21380000  1.0 0.117878362
H  H265  1  0.71380000  0.35000000  0.17250000  1.0 0.117878362
H  H266  1  0.28620000  0.65000000  0.17250000  1.0 0.117878362
H  H267  1  0.28620000  0.35000000  0.82750000  1.0 0.117878362
H  H268  1  0.71380000  0.65000000  0.82750000  1.0 0.117878362
H  H269  1  0.17250000  0.71380000  0.35000000  1.0 0.117878362
H  H270  1  0.17250000  0.28620000  0.65000000  1.0 0.117878362
H  H271  1  0.82750000  0.28620000  0.35000000  1.0 0.117878362
H  H272  1  0.82750000  0.71380000  0.65000000  1.0 0.117878362
H  H273  1  0.35000000  0.17250000  0.71380000  1.0 0.117878362
H  H274  1  0.65000000  0.17250000  0.28620000  1.0 0.117878362
H  H275  1  0.35000000  0.82750000  0.28620000  1.0 0.117878362
H  H276  1  0.65000000  0.82750000  0.71380000  1.0 0.117878362
H  H277  1  0.85000000  0.21380000  0.32750000  1.0 0.117878362
H  H278  1  0.15000000  0.78620000  0.32750000  1.0 0.117878362
H  H279  1  0.85000000  0.78620000  0.67250000  1.0 0.117878362
H  H280  1  0.15000000  0.21380000  0.67250000  1.0 0.117878362
H  H281  1  0.21380000  0.67250000  0.15000000  1.0 0.117878362
H  H282  1  0.78620000  0.67250000  0.85000000  1.0 0.117878362
H  H283  1  0.78620000  0.32750000  0.15000000  1.0 0.117878362
H  H284  1  0.21380000  0.32750000  0.85000000  1.0 0.117878362
H  H285  1  0.67250000  0.85000000  0.78620000  1.0 0.117878362
H  H286  1  0.67250000  0.15000000  0.21380000  1.0 0.117878362
H  H287  1  0.32750000  0.85000000  0.21380000  1.0 0.117878362
H  H288  1  0.32750000  0.15000000  0.78620000  1.0 0.117878362
C  C1  1  0.05050000  0.55050000  0.75000000  1.0 0.5778053686
C  C2  1  0.94950000  0.44950000  0.75000000  1.0 0.5778053686
C  C3  1  0.94950000  0.55050000  0.25000000  1.0 0.5778053686
C  C4  1  0.05050000  0.44950000  0.25000000  1.0 0.5778053686
C  C5  1  0.75000000  0.05050000  0.55050000  1.0 0.5778053686
C  C6  1  0.75000000  0.94950000  0.44950000  1.0 0.5778053686
C  C7  1  0.25000000  0.94950000  0.55050000  1.0 0.5778053686
C  C8  1  0.25000000  0.05050000  0.44950000  1.0 0.5778053686
C  C9  1  0.55050000  0.75000000  0.05050000  1.0 0.5778053686
C  C10  1  0.44950000  0.75000000  0.94950000  1.0 0.5778053686
C  C11  1  0.55050000  0.25000000  0.94950000  1.0 0.5778053686
C  C12  1  0.44950000  0.25000000  0.05050000  1.0 0.5778053686
C  C13  1  0.94950000  0.44950000  0.25000000  1.0 0.5778053686
C  C14  1  0.05050000  0.55050000  0.25000000  1.0 0.5778053686
C  C15  1  0.05050000  0.44950000  0.75000000  1.0 0.5778053686
C  C16  1  0.94950000  0.55050000  0.75000000  1.0 0.5778053686
C  C17  1  0.25000000  0.94950000  0.44950000  1.0 0.5778053686
C  C18  1  0.25000000  0.05050000  0.55050000  1.0 0.5778053686
C  C19  1  0.75000000  0.05050000  0.44950000  1.0 0.5778053686
C  C20  1  0.75000000  0.94950000  0.55050000  1.0 0.5778053686
C  C21  1  0.44950000  0.25000000  0.94950000  1.0 0.5778053686
C  C22  1  0.55050000  0.25000000  0.05050000  1.0 0.5778053686
C  C23  1  0.44950000  0.75000000  0.05050000  1.0 0.5778053686
C  C24  1  0.55050000  0.75000000  0.94950000  1.0 0.5778053686
C  C25  1  0.08020000  0.58020000  0.75000000  1.0 -0.0381619881
C  C26  1  0.91980000  0.41980000  0.75000000  1.0 -0.0381619881
C  C27  1  0.91980000  0.58020000  0.25000000  1.0 -0.0381619881
C  C28  1  0.08020000  0.41980000  0.25000000  1.0 -0.0381619881
C  C29  1  0.75000000  0.08020000  0.58020000  1.0 -0.0381619881
C  C30  1  0.75000000  0.91980000  0.41980000  1.0 -0.0381619881
C  C31  1  0.25000000  0.91980000  0.58020000  1.0 -0.0381619881
C  C32  1  0.25000000  0.08020000  0.41980000  1.0 -0.0381619881
C  C33  1  0.58020000  0.75000000  0.08020000  1.0 -0.0381619881
C  C34  1  0.41980000  0.75000000  0.91980000  1.0 -0.0381619881
C  C35  1  0.58020000  0.25000000  0.91980000  1.0 -0.0381619881
C  C36  1  0.41980000  0.25000000  0.08020000  1.0 -0.0381619881
C  C37  1  0.91980000  0.41980000  0.25000000  1.0 -0.0381619881
C  C38  1  0.08020000  0.58020000  0.25000000  1.0 -0.0381619881
C  C39  1  0.08020000  0.41980000  0.75000000  1.0 -0.0381619881
C  C40  1  0.91980000  0.58020000  0.75000000  1.0 -0.0381619881
C  C41  1  0.25000000  0.91980000  0.41980000  1.0 -0.0381619881
C  C42  1  0.25000000  0.08020000  0.58020000  1.0 -0.0381619881
C  C43  1  0.75000000  0.08020000  0.41980000  1.0 -0.0381619881
C  C44  1  0.75000000  0.91980000  0.58020000  1.0 -0.0381619881
C  C45  1  0.41980000  0.25000000  0.91980000  1.0 -0.0381619881
C  C46  1  0.58020000  0.25000000  0.08020000  1.0 -0.0381619881
C  C47  1  0.41980000  0.75000000  0.08020000  1.0 -0.0381619881
C  C48  1  0.58020000  0.75000000  0.91980000  1.0 -0.0381619881
C  C49  1  0.09580000  0.59220000  0.78380000  1.0 -0.0769519258
C  C50  1  0.90420000  0.40780000  0.78380000  1.0 -0.0769519258
C  C51  1  0.90420000  0.59220000  0.21620000  1.0 -0.0769519258
C  C52  1  0.09580000  0.40780000  0.21620000  1.0 -0.0769519258
C  C53  1  0.78380000  0.09580000  0.59220000  1.0 -0.0769519258
C  C54  1  0.78380000  0.90420000  0.40780000  1.0 -0.0769519258
C  C55  1  0.21620000  0.90420000  0.59220000  1.0 -0.0769519258
C  C56  1  0.21620000  0.09580000  0.40780000  1.0 -0.0769519258
C  C57  1  0.59220000  0.78380000  0.09580000  1.0 -0.0769519258
C  C58  1  0.40780000  0.78380000  0.90420000  1.0 -0.0769519258
C  C59  1  0.59220000  0.21620000  0.90420000  1.0 -0.0769519258
C  C60  1  0.40780000  0.21620000  0.09580000  1.0 -0.0769519258
C  C61  1  0.09220000  0.59580000  0.71620000  1.0 -0.0769519258
C  C62  1  0.90780000  0.40420000  0.71620000  1.0 -0.0769519258
C  C63  1  0.09220000  0.40420000  0.28380000  1.0 -0.0769519258
C  C64  1  0.90780000  0.59580000  0.28380000  1.0 -0.0769519258
C  C65  1  0.59580000  0.28380000  0.90780000  1.0 -0.0769519258
C  C66  1  0.40420000  0.28380000  0.09220000  1.0 -0.0769519258
C  C67  1  0.40420000  0.71620000  0.90780000  1.0 -0.0769519258
C  C68  1  0.59580000  0.71620000  0.09220000  1.0 -0.0769519258
C  C69  1  0.28380000  0.09220000  0.40420000  1.0 -0.0769519258
C  C70  1  0.28380000  0.90780000  0.59580000  1.0 -0.0769519258
C  C71  1  0.71620000  0.09220000  0.59580000  1.0 -0.0769519258
C  C72  1  0.71620000  0.90780000  0.40420000  1.0 -0.0769519258
C  C73  1  0.90420000  0.40780000  0.21620000  1.0 -0.0769519258
C  C74  1  0.09580000  0.59220000  0.21620000  1.0 -0.0769519258
C  C75  1  0.09580000  0.40780000  0.78380000  1.0 -0.0769519258
C  C76  1  0.90420000  0.59220000  0.78380000  1.0 -0.0769519258
C  C77  1  0.21620000  0.90420000  0.40780000  1.0 -0.0769519258
C  C78  1  0.21620000  0.09580000  0.59220000  1.0 -0.0769519258
C  C79  1  0.78380000  0.09580000  0.40780000  1.0 -0.0769519258
C  C80  1  0.78380000  0.90420000  0.59220000  1.0 -0.0769519258
C  C81  1  0.40780000  0.21620000  0.90420000  1.0 -0.0769519258
C  C82  1  0.59220000  0.21620000  0.09580000  1.0 -0.0769519258
C  C83  1  0.40780000  0.78380000  0.09580000  1.0 -0.0769519258
C  C84  1  0.59220000  0.78380000  0.90420000  1.0 -0.0769519258
C  C85  1  0.90780000  0.40420000  0.28380000  1.0 -0.0769519258
C  C86  1  0.09220000  0.59580000  0.28380000  1.0 -0.0769519258
C  C87  1  0.90780000  0.59580000  0.71620000  1.0 -0.0769519258
C  C88  1  0.09220000  0.40420000  0.71620000  1.0 -0.0769519258
C  C89  1  0.40420000  0.71620000  0.09220000  1.0 -0.0769519258
C  C90  1  0.59580000  0.71620000  0.90780000  1.0 -0.0769519258
C  C91  1  0.59580000  0.28380000  0.09220000  1.0 -0.0769519258
C  C92  1  0.40420000  0.28380000  0.90780000  1.0 -0.0769519258
C  C93  1  0.71620000  0.90780000  0.59580000  1.0 -0.0769519258
C  C94  1  0.71620000  0.09220000  0.40420000  1.0 -0.0769519258
C  C95  1  0.28380000  0.90780000  0.40420000  1.0 -0.0769519258
C  C96  1  0.28380000  0.09220000  0.59580000  1.0 -0.0769519258
C  C97  1  0.12400000  0.61930000  0.78310000  1.0 -0.1541631833
C  C98  1  0.87600000  0.38070000  0.78310000  1.0 -0.1541631833
C  C99  1  0.87600000  0.61930000  0.21690000  1.0 -0.1541631833
C  C100  1  0.12400000  0.38070000  0.21690000  1.0 -0.1541631833
C  C101  1  0.78310000  0.12400000  0.61930000  1.0 -0.1541631833
C  C102  1  0.78310000  0.87600000  0.38070000  1.0 -0.1541631833
C  C103  1  0.21690000  0.87600000  0.61930000  1.0 -0.1541631833
C  C104  1  0.21690000  0.12400000  0.38070000  1.0 -0.1541631833
C  C105  1  0.61930000  0.78310000  0.12400000  1.0 -0.1541631833
C  C106  1  0.38070000  0.78310000  0.87600000  1.0 -0.1541631833
C  C107  1  0.61930000  0.21690000  0.87600000  1.0 -0.1541631833
C  C108  1  0.38070000  0.21690000  0.12400000  1.0 -0.1541631833
C  C109  1  0.11930000  0.62400000  0.71690000  1.0 -0.1541631833
C  C110  1  0.88070000  0.37600000  0.71690000  1.0 -0.1541631833
C  C111  1  0.11930000  0.37600000  0.28310000  1.0 -0.1541631833
C  C112  1  0.88070000  0.62400000  0.28310000  1.0 -0.1541631833
C  C113  1  0.62400000  0.28310000  0.88070000  1.0 -0.1541631833
C  C114  1  0.37600000  0.28310000  0.11930000  1.0 -0.1541631833
C  C115  1  0.37600000  0.71690000  0.88070000  1.0 -0.1541631833
C  C116  1  0.62400000  0.71690000  0.11930000  1.0 -0.1541631833
C  C117  1  0.28310000  0.11930000  0.37600000  1.0 -0.1541631833
C  C118  1  0.28310000  0.88070000  0.62400000  1.0 -0.1541631833
C  C119  1  0.71690000  0.11930000  0.62400000  1.0 -0.1541631833
C  C120  1  0.71690000  0.88070000  0.37600000  1.0 -0.1541631833
C  C121  1  0.87600000  0.38070000  0.21690000  1.0 -0.1541631833
C  C122  1  0.12400000  0.61930000  0.21690000  1.0 -0.1541631833
C  C123  1  0.12400000  0.38070000  0.78310000  1.0 -0.1541631833
C  C124  1  0.87600000  0.61930000  0.78310000  1.0 -0.1541631833
C  C125  1  0.21690000  0.87600000  0.38070000  1.0 -0.1541631833
C  C126  1  0.21690000  0.12400000  0.61930000  1.0 -0.1541631833
C  C127  1  0.78310000  0.12400000  0.38070000  1.0 -0.1541631833
C  C128  1  0.78310000  0.87600000  0.61930000  1.0 -0.1541631833
C  C129  1  0.38070000  0.21690000  0.87600000  1.0 -0.1541631833
C  C130  1  0.61930000  0.21690000  0.12400000  1.0 -0.1541631833
C  C131  1  0.38070000  0.78310000  0.12400000  1.0 -0.1541631833
C  C132  1  0.61930000  0.78310000  0.87600000  1.0 -0.1541631833
C  C133  1  0.88070000  0.37600000  0.28310000  1.0 -0.1541631833
C  C134  1  0.11930000  0.62400000  0.28310000  1.0 -0.1541631833
C  C135  1  0.88070000  0.62400000  0.71690000  1.0 -0.1541631833
C  C136  1  0.11930000  0.37600000  0.71690000  1.0 -0.1541631833
C  C137  1  0.37600000  0.71690000  0.11930000  1.0 -0.1541631833
C  C138  1  0.62400000  0.71690000  0.88070000  1.0 -0.1541631833
C  C139  1  0.62400000  0.28310000  0.11930000  1.0 -0.1541631833
C  C140  1  0.37600000  0.28310000  0.88070000  1.0 -0.1541631833
C  C141  1  0.71690000  0.88070000  0.62400000  1.0 -0.1541631833
C  C142  1  0.71690000  0.11930000  0.37600000  1.0 -0.1541631833
C  C143  1  0.28310000  0.88070000  0.37600000  1.0 -0.1541631833
C  C144  1  0.28310000  0.11930000  0.62400000  1.0 -0.1541631833
C  C145  1  0.13600000  0.63600000  0.75000000  1.0 0.0704989311
C  C146  1  0.86400000  0.36400000  0.75000000  1.0 0.0704989311
C  C147  1  0.86400000  0.63600000  0.25000000  1.0 0.0704989311
C  C148  1  0.13600000  0.36400000  0.25000000  1.0 0.0704989311
C  C149  1  0.75000000  0.13600000  0.63600000  1.0 0.0704989311
C  C150  1  0.75000000  0.86400000  0.36400000  1.0 0.0704989311
C  C151  1  0.25000000  0.86400000  0.63600000  1.0 0.0704989311
C  C152  1  0.25000000  0.13600000  0.36400000  1.0 0.0704989311
C  C153  1  0.63600000  0.75000000  0.13600000  1.0 0.0704989311
C  C154  1  0.36400000  0.75000000  0.86400000  1.0 0.0704989311
C  C155  1  0.63600000  0.25000000  0.86400000  1.0 0.0704989311
C  C156  1  0.36400000  0.25000000  0.13600000  1.0 0.0704989311
C  C157  1  0.86400000  0.36400000  0.25000000  1.0 0.0704989311
C  C158  1  0.13600000  0.63600000  0.25000000  1.0 0.0704989311
C  C159  1  0.13600000  0.36400000  0.75000000  1.0 0.0704989311
C  C160  1  0.86400000  0.63600000  0.75000000  1.0 0.0704989311
C  C161  1  0.25000000  0.86400000  0.36400000  1.0 0.0704989311
C  C162  1  0.25000000  0.13600000  0.63600000  1.0 0.0704989311
C  C163  1  0.75000000  0.13600000  0.36400000  1.0 0.0704989311
C  C164  1  0.75000000  0.86400000  0.63600000  1.0 0.0704989311
C  C165  1  0.36400000  0.25000000  0.86400000  1.0 0.0704989311
C  C166  1  0.63600000  0.25000000  0.13600000  1.0 0.0704989311
C  C167  1  0.36400000  0.75000000  0.13600000  1.0 0.0704989311
C  C168  1  0.63600000  0.75000000  0.86400000  1.0 0.0704989311
C  C169  1  0.16550000  0.66550000  0.75000000  1.0 0.0704989311
C  C170  1  0.83450000  0.33450000  0.75000000  1.0 0.0704989311
C  C171  1  0.83450000  0.66550000  0.25000000  1.0 0.0704989311
C  C172  1  0.16550000  0.33450000  0.25000000  1.0 0.0646015167
C  C173  1  0.75000000  0.16550000  0.66550000  1.0 0.0704989311
C  C174  1  0.75000000  0.83450000  0.33450000  1.0 0.0704989311
C  C175  1  0.25000000  0.83450000  0.66550000  1.0 0.0704989311
C  C176  1  0.25000000  0.16550000  0.33450000  1.0 0.0646015167
C  C177  1  0.66550000  0.75000000  0.16550000  1.0 0.0704989311
C  C178  1  0.33450000  0.75000000  0.83450000  1.0 0.0704989311
C  C179  1  0.66550000  0.25000000  0.83450000  1.0 0.0646015167
C  C180  1  0.33450000  0.25000000  0.16550000  1.0 0.0646015167
C  C181  1  0.83450000  0.33450000  0.25000000  1.0 0.0704989311
C  C182  1  0.16550000  0.66550000  0.25000000  1.0 0.0704989311
C  C183  1  0.16550000  0.33450000  0.75000000  1.0 0.0704989311
C  C184  1  0.83450000  0.66550000  0.75000000  1.0 0.0704989311
C  C185  1  0.25000000  0.83450000  0.33450000  1.0 0.0704989311
C  C186  1  0.25000000  0.16550000  0.66550000  1.0 0.0646015167
C  C187  1  0.75000000  0.16550000  0.33450000  1.0 0.0704989311
C  C188  1  0.75000000  0.83450000  0.66550000  1.0 0.0704989311
C  C189  1  0.33450000  0.25000000  0.83450000  1.0 0.0646015167
C  C190  1  0.66550000  0.25000000  0.16550000  1.0 0.0646015167
C  C191  1  0.33450000  0.75000000  0.16550000  1.0 0.0704989311
C  C192  1  0.66550000  0.75000000  0.83450000  1.0 0.0704989311
C  C193  1  0.19260000  0.66710000  0.77790000  1.0 -0.1819167354
C  C194  1  0.80740000  0.33290000  0.77790000  1.0 -0.1819167354
C  C195  1  0.80740000  0.66710000  0.22210000  1.0 -0.1819167354
C  C196  1  0.19260000  0.33290000  0.22210000  1.0 -0.1819167354
C  C197  1  0.77790000  0.19260000  0.66710000  1.0 -0.1819167354
C  C198  1  0.77790000  0.80740000  0.33290000  1.0 -0.1819167354
C  C199  1  0.22210000  0.80740000  0.66710000  1.0 -0.1819167354
C  C200  1  0.22210000  0.19260000  0.33290000  1.0 -0.1819167354
C  C201  1  0.66710000  0.77790000  0.19260000  1.0 -0.1819167354
C  C202  1  0.33290000  0.77790000  0.80740000  1.0 -0.1819167354
C  C203  1  0.66710000  0.22210000  0.80740000  1.0 -0.1819167354
C  C204  1  0.33290000  0.22210000  0.19260000  1.0 -0.1819167354
C  C205  1  0.16710000  0.69260000  0.72210000  1.0 -0.1819167354
C  C206  1  0.83290000  0.30740000  0.72210000  1.0 -0.1819167354
C  C207  1  0.16710000  0.30740000  0.27790000  1.0 -0.1819167354
C  C208  1  0.83290000  0.69260000  0.27790000  1.0 -0.1819167354
C  C209  1  0.69260000  0.27790000  0.83290000  1.0 -0.1819167354
C  C210  1  0.30740000  0.27790000  0.16710000  1.0 -0.1819167354
C  C211  1  0.30740000  0.72210000  0.83290000  1.0 -0.1819167354
C  C212  1  0.69260000  0.72210000  0.16710000  1.0 -0.1819167354
C  C213  1  0.27790000  0.16710000  0.30740000  1.0 -0.1819167354
C  C214  1  0.27790000  0.83290000  0.69260000  1.0 -0.1819167354
C  C215  1  0.72210000  0.16710000  0.69260000  1.0 -0.1819167354
C  C216  1  0.72210000  0.83290000  0.30740000  1.0 -0.1819167354
C  C217  1  0.80740000  0.33290000  0.22210000  1.0 -0.1819167354
C  C218  1  0.19260000  0.66710000  0.22210000  1.0 -0.1819167354
C  C219  1  0.19260000  0.33290000  0.77790000  1.0 -0.1819167354
C  C220  1  0.80740000  0.66710000  0.77790000  1.0 -0.1819167354
C  C221  1  0.22210000  0.80740000  0.33290000  1.0 -0.1819167354
C  C222  1  0.22210000  0.19260000  0.66710000  1.0 -0.1819167354
C  C223  1  0.77790000  0.19260000  0.33290000  1.0 -0.1819167354
C  C224  1  0.77790000  0.80740000  0.66710000  1.0 -0.1819167354
C  C225  1  0.33290000  0.22210000  0.80740000  1.0 -0.1819167354
C  C226  1  0.66710000  0.22210000  0.19260000  1.0 -0.1819167354
C  C227  1  0.33290000  0.77790000  0.19260000  1.0 -0.1819167354
C  C228  1  0.66710000  0.77790000  0.80740000  1.0 -0.1819167354
C  C229  1  0.83290000  0.30740000  0.27790000  1.0 -0.1819167354
C  C230  1  0.16710000  0.69260000  0.27790000  1.0 -0.1819167354
C  C231  1  0.83290000  0.69260000  0.72210000  1.0 -0.1819167354
C  C232  1  0.16710000  0.30740000  0.72210000  1.0 -0.1819167354
C  C233  1  0.30740000  0.72210000  0.16710000  1.0 -0.1819167354
C  C234  1  0.69260000  0.72210000  0.83290000  1.0 -0.1819167354
C  C235  1  0.69260000  0.27790000  0.16710000  1.0 -0.1819167354
C  C236  1  0.30740000  0.27790000  0.83290000  1.0 -0.1819167354
C  C237  1  0.72210000  0.83290000  0.69260000  1.0 -0.1819167354
C  C238  1  0.72210000  0.16710000  0.30740000  1.0 -0.1819167354
C  C239  1  0.27790000  0.83290000  0.30740000  1.0 -0.1819167354
C  C240  1  0.27790000  0.16710000  0.69260000  1.0 -0.1819167354
C  C241  1  0.21980000  0.69600000  0.77680000  1.0 -0.0381619881
C  C242  1  0.78020000  0.30400000  0.77680000  1.0 -0.0381619881
C  C243  1  0.78020000  0.69600000  0.22320000  1.0 -0.0381619881
C  C244  1  0.21980000  0.30400000  0.22320000  1.0 -0.0381619881
C  C245  1  0.77680000  0.21980000  0.69600000  1.0 -0.0381619881
C  C246  1  0.77680000  0.78020000  0.30400000  1.0 -0.0381619881
C  C247  1  0.22320000  0.78020000  0.69600000  1.0 -0.0381619881
C  C248  1  0.22320000  0.21980000  0.30400000  1.0 -0.0381619881
C  C249  1  0.69600000  0.77680000  0.21980000  1.0 -0.0381619881
C  C250  1  0.30400000  0.77680000  0.78020000  1.0 -0.0381619881
C  C251  1  0.69600000  0.22320000  0.78020000  1.0 -0.0381619881
C  C252  1  0.30400000  0.22320000  0.21980000  1.0 -0.0381619881
C  C253  1  0.19600000  0.71980000  0.72320000  1.0 -0.0381619881
C  C254  1  0.80400000  0.28020000  0.72320000  1.0 -0.0381619881
C  C255  1  0.19600000  0.28020000  0.27680000  1.0 -0.0381619881
C  C256  1  0.80400000  0.71980000  0.27680000  1.0 -0.0381619881
C  C257  1  0.71980000  0.27680000  0.80400000  1.0 -0.0381619881
C  C258  1  0.28020000  0.27680000  0.19600000  1.0 -0.0381619881
C  C259  1  0.28020000  0.72320000  0.80400000  1.0 -0.0381619881
C  C260  1  0.71980000  0.72320000  0.19600000  1.0 -0.0381619881
C  C261  1  0.27680000  0.19600000  0.28020000  1.0 -0.0381619881
C  C262  1  0.27680000  0.80400000  0.71980000  1.0 -0.0381619881
C  C263  1  0.72320000  0.19600000  0.71980000  1.0 -0.0381619881
C  C264  1  0.72320000  0.80400000  0.28020000  1.0 -0.0381619881
C  C265  1  0.78020000  0.30400000  0.22320000  1.0 -0.0381619881
C  C266  1  0.21980000  0.69600000  0.22320000  1.0 -0.0381619881
C  C267  1  0.21980000  0.30400000  0.77680000  1.0 -0.0381619881
C  C268  1  0.78020000  0.69600000  0.77680000  1.0 -0.0381619881
C  C269  1  0.22320000  0.78020000  0.30400000  1.0 -0.0381619881
C  C270  1  0.22320000  0.21980000  0.69600000  1.0 -0.0381619881
C  C271  1  0.77680000  0.21980000  0.30400000  1.0 -0.0381619881
C  C272  1  0.77680000  0.78020000  0.69600000  1.0 -0.0381619881
C  C273  1  0.30400000  0.22320000  0.78020000  1.0 -0.0381619881
C  C274  1  0.69600000  0.22320000  0.21980000  1.0 -0.0381619881
C  C275  1  0.30400000  0.77680000  0.21980000  1.0 -0.0381619881
C  C276  1  0.69600000  0.77680000  0.78020000  1.0 -0.0381619881
C  C277  1  0.80400000  0.28020000  0.27680000  1.0 -0.0381619881
C  C278  1  0.19600000  0.71980000  0.27680000  1.0 -0.0381619881
C  C279  1  0.80400000  0.71980000  0.72320000  1.0 -0.0381619881
C  C280  1  0.19600000  0.28020000  0.72320000  1.0 -0.0381619881
C  C281  1  0.28020000  0.72320000  0.19600000  1.0 -0.0381619881
C  C282  1  0.71980000  0.72320000  0.80400000  1.0 -0.0381619881
C  C283  1  0.71980000  0.27680000  0.19600000  1.0 -0.0381619881
C  C284  1  0.28020000  0.27680000  0.80400000  1.0 -0.0381619881
C  C285  1  0.72320000  0.80400000  0.71980000  1.0 -0.0381619881
C  C286  1  0.72320000  0.19600000  0.28020000  1.0 -0.0381619881
C  C287  1  0.27680000  0.80400000  0.28020000  1.0 -0.0381619881
C  C288  1  0.27680000  0.19600000  0.71980000  1.0 -0.0381619881
C  C289  1  0.22350000  0.72350000  0.75000000  1.0 0.0504975876
C  C290  1  0.77650000  0.27650000  0.75000000  1.0 0.0504975876
C  C291  1  0.77650000  0.72350000  0.25000000  1.0 0.0504975876
C  C292  1  0.22350000  0.27650000  0.25000000  1.0 0.0504975876
C  C293  1  0.75000000  0.22350000  0.72350000  1.0 0.0504975876
C  C294  1  0.75000000  0.77650000  0.27650000  1.0 0.0504975876
C  C295  1  0.25000000  0.77650000  0.72350000  1.0 0.0504975876
C  C296  1  0.25000000  0.22350000  0.27650000  1.0 0.0504975876
C  C297  1  0.72350000  0.75000000  0.22350000  1.0 0.0504975876
C  C298  1  0.27650000  0.75000000  0.77650000  1.0 0.0504975876
C  C299  1  0.72350000  0.25000000  0.77650000  1.0 0.0504975876
C  C300  1  0.27650000  0.25000000  0.22350000  1.0 0.0504975876
C  C301  1  0.77650000  0.27650000  0.25000000  1.0 0.0504975876
C  C302  1  0.22350000  0.72350000  0.25000000  1.0 0.0504975876
C  C303  1  0.22350000  0.27650000  0.75000000  1.0 0.0504975876
C  C304  1  0.77650000  0.72350000  0.75000000  1.0 0.0504975876
C  C305  1  0.25000000  0.77650000  0.27650000  1.0 0.0504975876
C  C306  1  0.25000000  0.22350000  0.72350000  1.0 0.0504975876
C  C307  1  0.75000000  0.22350000  0.27650000  1.0 0.0504975876
C  C308  1  0.75000000  0.77650000  0.72350000  1.0 0.0504975876
C  C309  1  0.27650000  0.25000000  0.77650000  1.0 0.0504975876
C  C310  1  0.72350000  0.25000000  0.22350000  1.0 0.0504975876
C  C311  1  0.27650000  0.75000000  0.22350000  1.0 0.0504975876
C  C312  1  0.72350000  0.75000000  0.77650000  1.0 0.0504975876
C  C313  1  0.25000000  0.69360000  0.80640000  1.0 0.2070966615
C  C314  1  0.75000000  0.30640000  0.80640000  1.0 0.2070966615
C  C315  1  0.75000000  0.69360000  0.19360000  1.0 0.2070966615
C  C316  1  0.25000000  0.30640000  0.19360000  1.0 0.2070966615
C  C317  1  0.80640000  0.25000000  0.69360000  1.0 0.2070966615
C  C318  1  0.80640000  0.75000000  0.30640000  1.0 0.2070966615
C  C319  1  0.19360000  0.75000000  0.69360000  1.0 0.2070966615
C  C320  1  0.19360000  0.25000000  0.30640000  1.0 0.2070966615
C  C321  1  0.69360000  0.80640000  0.25000000  1.0 0.2070966615
C  C322  1  0.30640000  0.80640000  0.75000000  1.0 0.2070966615
C  C323  1  0.69360000  0.19360000  0.75000000  1.0 0.2070966615
C  C324  1  0.30640000  0.19360000  0.25000000  1.0 0.2070966615
C  C325  1  0.75000000  0.30640000  0.19360000  1.0 0.2070966615
C  C326  1  0.25000000  0.69360000  0.19360000  1.0 0.2070966615
C  C327  1  0.25000000  0.30640000  0.80640000  1.0 0.2070966615
C  C328  1  0.75000000  0.69360000  0.80640000  1.0 0.2070966615
C  C329  1  0.19360000  0.75000000  0.30640000  1.0 0.2070966615
C  C330  1  0.19360000  0.25000000  0.69360000  1.0 0.2070966615
C  C331  1  0.80640000  0.25000000  0.30640000  1.0 0.2070966615
C  C332  1  0.80640000  0.75000000  0.69360000  1.0 0.2070966615
C  C333  1  0.30640000  0.19360000  0.75000000  1.0 0.2070966615
C  C334  1  0.69360000  0.19360000  0.25000000  1.0 0.2070966615
C  C335  1  0.30640000  0.80640000  0.25000000  1.0 0.2070966615
C  C336  1  0.69360000  0.80640000  0.75000000  1.0 0.2070966615
C  C337  1  0.26950000  0.65220000  0.80620000  1.0 -0.4389823566
C  C338  1  0.73050000  0.34780000  0.80620000  1.0 -0.4389823566
C  C339  1  0.73050000  0.65220000  0.19380000  1.0 -0.4389823566
C  C340  1  0.26950000  0.34780000  0.19380000  1.0 -0.4389823566
C  C341  1  0.80620000  0.26950000  0.65220000  1.0 -0.4389823566
C  C342  1  0.80620000  0.73050000  0.34780000  1.0 -0.4389823566
C  C343  1  0.19380000  0.73050000  0.65220000  1.0 -0.4389823566
C  C344  1  0.19380000  0.26950000  0.34780000  1.0 -0.4389823566
C  C345  1  0.65220000  0.80620000  0.26950000  1.0 -0.4389823566
C  C346  1  0.34780000  0.80620000  0.73050000  1.0 -0.4389823566
C  C347  1  0.65220000  0.19380000  0.73050000  1.0 -0.4389823566
C  C348  1  0.34780000  0.19380000  0.26950000  1.0 -0.4389823566
C  C349  1  0.15220000  0.76950000  0.69380000  1.0 -0.4389823566
C  C350  1  0.84780000  0.23050000  0.69380000  1.0 -0.4389823566
C  C351  1  0.15220000  0.23050000  0.30620000  1.0 -0.4389823566
C  C352  1  0.84780000  0.76950000  0.30620000  1.0 -0.4389823566
C  C353  1  0.76950000  0.30620000  0.84780000  1.0 -0.4389823566
C  C354  1  0.23050000  0.30620000  0.15220000  1.0 -0.4389823566
C  C355  1  0.23050000  0.69380000  0.84780000  1.0 -0.4389823566
C  C356  1  0.76950000  0.69380000  0.15220000  1.0 -0.4389823566
C  C357  1  0.30620000  0.15220000  0.23050000  1.0 -0.4389823566
C  C358  1  0.30620000  0.84780000  0.76950000  1.0 -0.4389823566
C  C359  1  0.69380000  0.15220000  0.76950000  1.0 -0.4389823566
C  C360  1  0.69380000  0.84780000  0.23050000  1.0 -0.4389823566
C  C361  1  0.73050000  0.34780000  0.19380000  1.0 -0.4389823566
C  C362  1  0.26950000  0.65220000  0.19380000  1.0 -0.4389823566
C  C363  1  0.26950000  0.34780000  0.80620000  1.0 -0.4389823566
C  C364  1  0.73050000  0.65220000  0.80620000  1.0 -0.4389823566
C  C365  1  0.19380000  0.73050000  0.34780000  1.0 -0.4389823566
C  C366  1  0.19380000  0.26950000  0.65220000  1.0 -0.4389823566
C  C367  1  0.80620000  0.26950000  0.34780000  1.0 -0.4389823566
C  C368  1  0.80620000  0.73050000  0.65220000  1.0 -0.4389823566
C  C369  1  0.34780000  0.19380000  0.73050000  1.0 -0.4389823566
C  C370  1  0.65220000  0.19380000  0.26950000  1.0 -0.4389823566
C  C371  1  0.34780000  0.80620000  0.26950000  1.0 -0.4389823566
C  C372  1  0.65220000  0.80620000  0.73050000  1.0 -0.4389823566
C  C373  1  0.84780000  0.23050000  0.30620000  1.0 -0.4389823566
C  C374  1  0.15220000  0.76950000  0.30620000  1.0 -0.4389823566
C  C375  1  0.84780000  0.76950000  0.69380000  1.0 -0.4389823566
C  C376  1  0.15220000  0.23050000  0.69380000  1.0 -0.4389823566
C  C377  1  0.23050000  0.69380000  0.15220000  1.0 -0.4389823566
C  C378  1  0.76950000  0.69380000  0.84780000  1.0 -0.4389823566
C  C379  1  0.76950000  0.30620000  0.15220000  1.0 -0.4389823566
C  C380  1  0.23050000  0.30620000  0.84780000  1.0 -0.4389823566
C  C381  1  0.69380000  0.84780000  0.76950000  1.0 -0.4389823566
C  C382  1  0.69380000  0.15220000  0.23050000  1.0 -0.4389823566
C  C383  1  0.30620000  0.84780000  0.23050000  1.0 -0.4389823566
C  C384  1  0.30620000  0.15220000  0.76950000  1.0 -0.4389823566
N  N1  1  0.25000000  0.75000000  0.75000000  1.0 -0.057246653
N  N2  1  0.75000000  0.25000000  0.75000000  1.0 -0.057246653
N  N3  1  0.75000000  0.75000000  0.25000000  1.0 -0.057246653
N  N4  1  0.25000000  0.25000000  0.25000000  1.0 -0.057246653
N  N5  1  0.75000000  0.25000000  0.25000000  1.0 -0.057246653
N  N6  1  0.25000000  0.75000000  0.25000000  1.0 -0.057246653
N  N7  1  0.25000000  0.25000000  0.75000000  1.0 -0.057246653
N  N8  1  0.75000000  0.75000000  0.75000000  1.0 -0.057246653
O  O1  1  0.03940000  0.53921000  0.78158000  1.0 -0.5137644375
O  O2  1  0.96060000  0.46079000  0.78158000  1.0 -0.5137644375
O  O3  1  0.96060000  0.53921000  0.21842000  1.0 -0.5137644375
O  O4  1  0.03940000  0.46079000  0.21842000  1.0 -0.5137644375
O  O5  1  0.78158000  0.03940000  0.53921000  1.0 -0.5137644375
O  O6  1  0.78158000  0.96060000  0.46079000  1.0 -0.5137644375
O  O7  1  0.21842000  0.96060000  0.53921000  1.0 -0.5137644375
O  O8  1  0.21842000  0.03940000  0.46079000  1.0 -0.5137644375
O  O9  1  0.53921000  0.78158000  0.03940000  1.0 -0.5137644375
O  O10  1  0.46079000  0.78158000  0.96060000  1.0 -0.5137644375
O  O11  1  0.53921000  0.21842000  0.96060000  1.0 -0.5137644375
O  O12  1  0.46079000  0.21842000  0.03940000  1.0 -0.5137644375
O  O13  1  0.03921000  0.53940000  0.71842000  1.0 -0.5137644375
O  O14  1  0.96079000  0.46060000  0.71842000  1.0 -0.5137644375
O  O15  1  0.03921000  0.46060000  0.28158000  1.0 -0.5137644375
O  O16  1  0.96079000  0.53940000  0.28158000  1.0 -0.5137644375
O  O17  1  0.53940000  0.28158000  0.96079000  1.0 -0.5137644375
O  O18  1  0.46060000  0.28158000  0.03921000  1.0 -0.5137644375
O  O19  1  0.46060000  0.71842000  0.96079000  1.0 -0.5137644375
O  O20  1  0.53940000  0.71842000  0.03921000  1.0 -0.5137644375
O  O21  1  0.28158000  0.03921000  0.46060000  1.0 -0.5137644375
O  O22  1  0.28158000  0.96079000  0.53940000  1.0 -0.5137644375
O  O23  1  0.71842000  0.03921000  0.53940000  1.0 -0.5137644375
O  O24  1  0.71842000  0.96079000  0.46060000  1.0 -0.5137644375
O  O25  1  0.96060000  0.46079000  0.21842000  1.0 -0.5137644375
O  O26  1  0.03940000  0.53921000  0.21842000  1.0 -0.5137644375
O  O27  1  0.03940000  0.46079000  0.78158000  1.0 -0.5137644375
O  O28  1  0.96060000  0.53921000  0.78158000  1.0 -0.5137644375
O  O29  1  0.21842000  0.96060000  0.46079000  1.0 -0.5137644375
O  O30  1  0.21842000  0.03940000  0.53921000  1.0 -0.5137644375
O  O31  1  0.78158000  0.03940000  0.46079000  1.0 -0.5137644375
O  O32  1  0.78158000  0.96060000  0.53921000  1.0 -0.5137644375
O  O33  1  0.46079000  0.21842000  0.96060000  1.0 -0.5137644375
O  O34  1  0.53921000  0.21842000  0.03940000  1.0 -0.5137644375
O  O35  1  0.46079000  0.78158000  0.03940000  1.0 -0.5137644375
O  O36  1  0.53921000  0.78158000  0.96060000  1.0 -0.5137644375
O  O37  1  0.96079000  0.46060000  0.28158000  1.0 -0.5137644375
O  O38  1  0.03921000  0.53940000  0.28158000  1.0 -0.5137644375
O  O39  1  0.96079000  0.53940000  0.71842000  1.0 -0.5137644375
O  O40  1  0.03921000  0.46060000  0.71842000  1.0 -0.5137644375
O  O41  1  0.46060000  0.71842000  0.03921000  1.0 -0.5137644375
O  O42  1  0.53940000  0.71842000  0.96079000  1.0 -0.5137644375
O  O43  1  0.53940000  0.28158000  0.03921000  1.0 -0.5137644375
O  O44  1  0.46060000  0.28158000  0.96079000  1.0 -0.5137644375
O  O45  1  0.71842000  0.96079000  0.53940000  1.0 -0.5137644375
O  O46  1  0.71842000  0.03921000  0.46060000  1.0 -0.5137644375
O  O47  1  0.28158000  0.96079000  0.46060000  1.0 -0.5137644375
O  O48  1  0.28158000  0.03921000  0.53940000  1.0 -0.5137644375
