# DDEC6 charges by PACMAN v1.1 (https://github.com/mtap-research/PACMAN-charge/)
data_AVAKIT_ASR_pacman
_symmetry_space_group_name_H-M   'P 1'
_cell_length_a   35.51000000
_cell_length_b   35.51000000
_cell_length_c   35.51000000
_cell_angle_alpha   90.00000000
_cell_angle_beta   90.00000000
_cell_angle_gamma   90.00000000
_symmetry_Int_Tables_number   1
_chemical_formula_structural   Cu9H72C105N11O15
_chemical_formula_sum   'Cu36 H288 C420 N44 O60'
_cell_volume   44776.69315100
_cell_formula_units_Z   4
loop_
 _symmetry_equiv_pos_site_id
 _symmetry_equiv_pos_as_xyz
  1  'x, y, z'
loop_
 _atom_site_type_symbol
 _atom_site_label
 _atom_site_symmetry_multiplicity
 _atom_site_fract_x
 _atom_site_fract_y
 _atom_site_fract_z
 _atom_site_occupancy
 _atom_site_charge
Cu  Cu1  1  0.00000000  0.50000000  0.71224000  1.0 0.7700295201
Cu  Cu2  1  0.00000000  0.50000000  0.28776000  1.0 0.7700295201
Cu  Cu3  1  0.71224000  0.00000000  0.50000000  1.0 0.7700295201
Cu  Cu4  1  0.28776000  0.00000000  0.50000000  1.0 0.7700295201
Cu  Cu5  1  0.50000000  0.71224000  0.00000000  1.0 0.7700295201
Cu  Cu6  1  0.50000000  0.28776000  0.00000000  1.0 0.7700295201
Cu  Cu7  1  0.00000000  0.50000000  0.78776000  1.0 0.7700295201
Cu  Cu8  1  0.00000000  0.50000000  0.21224000  1.0 0.7700295201
Cu  Cu9  1  0.50000000  0.21224000  0.00000000  1.0 0.7700295201
Cu  Cu10  1  0.50000000  0.78776000  0.00000000  1.0 0.7700295201
Cu  Cu11  1  0.21224000  0.00000000  0.50000000  1.0 0.7700295201
Cu  Cu12  1  0.78776000  0.00000000  0.50000000  1.0 0.7700295201
Cu  Cu13  1  0.02462000  0.50000000  0.50000000  1.0 0.0298580339
Cu  Cu14  1  0.97538000  0.50000000  0.50000000  1.0 0.0298580339
Cu  Cu15  1  0.50000000  0.02462000  0.50000000  1.0 0.0298580339
Cu  Cu16  1  0.50000000  0.97538000  0.50000000  1.0 0.0298580339
Cu  Cu17  1  0.50000000  0.50000000  0.02462000  1.0 0.0298580339
Cu  Cu18  1  0.50000000  0.50000000  0.97538000  1.0 0.0298580339
Cu  Cu19  1  0.00000000  0.52462000  0.00000000  1.0 0.0298580339
Cu  Cu20  1  0.00000000  0.47538000  0.00000000  1.0 0.0298580339
Cu  Cu21  1  0.52462000  0.00000000  0.00000000  1.0 0.0298580339
Cu  Cu22  1  0.47538000  0.00000000  0.00000000  1.0 0.0298580339
Cu  Cu23  1  0.00000000  0.00000000  0.47538000  1.0 0.0298580339
Cu  Cu24  1  0.00000000  0.00000000  0.52462000  1.0 0.0298580339
Cu  Cu25  1  0.00000000  0.52650000  0.50000000  1.0 -0.0970041293
Cu  Cu26  1  0.00000000  0.47350000  0.50000000  1.0 -0.0970041293
Cu  Cu27  1  0.50000000  0.00000000  0.52650000  1.0 -0.0970041293
Cu  Cu28  1  0.50000000  0.00000000  0.47350000  1.0 -0.0970041293
Cu  Cu29  1  0.52650000  0.50000000  0.00000000  1.0 -0.0970041293
Cu  Cu30  1  0.47350000  0.50000000  0.00000000  1.0 -0.0970041293
Cu  Cu31  1  0.02650000  0.50000000  0.00000000  1.0 -0.0970041293
Cu  Cu32  1  0.97350000  0.50000000  0.00000000  1.0 -0.0970041293
Cu  Cu33  1  0.50000000  0.00000000  0.97350000  1.0 -0.0970041293
Cu  Cu34  1  0.50000000  0.00000000  0.02650000  1.0 -0.0970041293
Cu  Cu35  1  0.00000000  0.02650000  0.50000000  1.0 -0.0970041293
Cu  Cu36  1  0.00000000  0.97350000  0.50000000  1.0 -0.0970041293
H  H1  1  0.05320000  0.50000000  0.64610000  1.0 0.1017645437
H  H2  1  0.94680000  0.50000000  0.64610000  1.0 0.1017645437
H  H3  1  0.94680000  0.50000000  0.35390000  1.0 0.1017645437
H  H4  1  0.05320000  0.50000000  0.35390000  1.0 0.1017645437
H  H5  1  0.64610000  0.05320000  0.50000000  1.0 0.1017645437
H  H6  1  0.64610000  0.94680000  0.50000000  1.0 0.1017645437
H  H7  1  0.35390000  0.94680000  0.50000000  1.0 0.1017645437
H  H8  1  0.35390000  0.05320000  0.50000000  1.0 0.1017645437
H  H9  1  0.50000000  0.64610000  0.05320000  1.0 0.1017645437
H  H10  1  0.50000000  0.64610000  0.94680000  1.0 0.1017645437
H  H11  1  0.50000000  0.35390000  0.94680000  1.0 0.1017645437
H  H12  1  0.50000000  0.35390000  0.05320000  1.0 0.1017645437
H  H13  1  0.00000000  0.55320000  0.85390000  1.0 0.1017645437
H  H14  1  0.00000000  0.44680000  0.85390000  1.0 0.1017645437
H  H15  1  0.00000000  0.44680000  0.14610000  1.0 0.1017645437
H  H16  1  0.00000000  0.55320000  0.14610000  1.0 0.1017645437
H  H17  1  0.55320000  0.14610000  0.00000000  1.0 0.1017645437
H  H18  1  0.44680000  0.14610000  0.00000000  1.0 0.1017645437
H  H19  1  0.44680000  0.85390000  0.00000000  1.0 0.1017645437
H  H20  1  0.55320000  0.85390000  0.00000000  1.0 0.1017645437
H  H21  1  0.14610000  0.00000000  0.44680000  1.0 0.1017645437
H  H22  1  0.14610000  0.00000000  0.55320000  1.0 0.1017645437
H  H23  1  0.85390000  0.00000000  0.55320000  1.0 0.1017645437
H  H24  1  0.85390000  0.00000000  0.44680000  1.0 0.1017645437
H  H25  1  0.08800000  0.58280000  0.80560000  1.0 0.1314974901
H  H26  1  0.91200000  0.41720000  0.80560000  1.0 0.1314974901
H  H27  1  0.91200000  0.58280000  0.19440000  1.0 0.1314974901
H  H28  1  0.08800000  0.41720000  0.19440000  1.0 0.1314974901
H  H29  1  0.80560000  0.08800000  0.58280000  1.0 0.1314974901
H  H30  1  0.80560000  0.91200000  0.41720000  1.0 0.1314974901
H  H31  1  0.19440000  0.91200000  0.58280000  1.0 0.1314974901
H  H32  1  0.19440000  0.08800000  0.41720000  1.0 0.1314974901
H  H33  1  0.58280000  0.80560000  0.08800000  1.0 0.1314974901
H  H34  1  0.41720000  0.80560000  0.91200000  1.0 0.1314974901
H  H35  1  0.58280000  0.19440000  0.91200000  1.0 0.1314974901
H  H36  1  0.41720000  0.19440000  0.08800000  1.0 0.1314974901
H  H37  1  0.08280000  0.58800000  0.69440000  1.0 0.1314974901
H  H38  1  0.91720000  0.41200000  0.69440000  1.0 0.1314974901
H  H39  1  0.08280000  0.41200000  0.30560000  1.0 0.1314974901
H  H40  1  0.91720000  0.58800000  0.30560000  1.0 0.1314974901
H  H41  1  0.58800000  0.30560000  0.91720000  1.0 0.1314974901
H  H42  1  0.41200000  0.30560000  0.08280000  1.0 0.1314974901
H  H43  1  0.41200000  0.69440000  0.91720000  1.0 0.1314974901
H  H44  1  0.58800000  0.69440000  0.08280000  1.0 0.1314974901
H  H45  1  0.30560000  0.08280000  0.41200000  1.0 0.1314974901
H  H46  1  0.30560000  0.91720000  0.58800000  1.0 0.1314974901
H  H47  1  0.69440000  0.08280000  0.58800000  1.0 0.1314974901
H  H48  1  0.69440000  0.91720000  0.41200000  1.0 0.1314974901
H  H49  1  0.91200000  0.41720000  0.19440000  1.0 0.1314974901
H  H50  1  0.08800000  0.58280000  0.19440000  1.0 0.1314974901
H  H51  1  0.08800000  0.41720000  0.80560000  1.0 0.1314974901
H  H52  1  0.91200000  0.58280000  0.80560000  1.0 0.1314974901
H  H53  1  0.19440000  0.91200000  0.41720000  1.0 0.1314974901
H  H54  1  0.19440000  0.08800000  0.58280000  1.0 0.1314974901
H  H55  1  0.80560000  0.08800000  0.41720000  1.0 0.1314974901
H  H56  1  0.80560000  0.91200000  0.58280000  1.0 0.1314974901
H  H57  1  0.41720000  0.19440000  0.91200000  1.0 0.1314974901
H  H58  1  0.58280000  0.19440000  0.08800000  1.0 0.1314974901
H  H59  1  0.41720000  0.80560000  0.08800000  1.0 0.1314974901
H  H60  1  0.58280000  0.80560000  0.91200000  1.0 0.1314974901
H  H61  1  0.91720000  0.41200000  0.30560000  1.0 0.1314974901
H  H62  1  0.08280000  0.58800000  0.30560000  1.0 0.1314974901
H  H63  1  0.91720000  0.58800000  0.69440000  1.0 0.1314974901
H  H64  1  0.08280000  0.41200000  0.69440000  1.0 0.1314974901
H  H65  1  0.41200000  0.69440000  0.08280000  1.0 0.1314974901
H  H66  1  0.58800000  0.69440000  0.91720000  1.0 0.1314974901
H  H67  1  0.58800000  0.30560000  0.08280000  1.0 0.1314974901
H  H68  1  0.41200000  0.30560000  0.91720000  1.0 0.1314974901
H  H69  1  0.69440000  0.91720000  0.58800000  1.0 0.1314974901
H  H70  1  0.69440000  0.08280000  0.41200000  1.0 0.1314974901
H  H71  1  0.30560000  0.91720000  0.41200000  1.0 0.1314974901
H  H72  1  0.30560000  0.08280000  0.58800000  1.0 0.1314974901
H  H73  1  0.09190000  0.50000000  0.58810000  1.0 0.0876501275
H  H74  1  0.90810000  0.50000000  0.58810000  1.0 0.0876501275
H  H75  1  0.90810000  0.50000000  0.41190000  1.0 0.0876501275
H  H76  1  0.09190000  0.50000000  0.41190000  1.0 0.0876501275
H  H77  1  0.58810000  0.09190000  0.50000000  1.0 0.0876501275
H  H78  1  0.58810000  0.90810000  0.50000000  1.0 0.0876501275
H  H79  1  0.41190000  0.90810000  0.50000000  1.0 0.0876501275
H  H80  1  0.41190000  0.09190000  0.50000000  1.0 0.0876501275
H  H81  1  0.50000000  0.58810000  0.09190000  1.0 0.0876501275
H  H82  1  0.50000000  0.58810000  0.90810000  1.0 0.0876501275
H  H83  1  0.50000000  0.41190000  0.90810000  1.0 0.0876501275
H  H84  1  0.50000000  0.41190000  0.09190000  1.0 0.0876501275
H  H85  1  0.00000000  0.59190000  0.91190000  1.0 0.0876501275
H  H86  1  0.00000000  0.40810000  0.91190000  1.0 0.0876501275
H  H87  1  0.00000000  0.40810000  0.08810000  1.0 0.0876501275
H  H88  1  0.00000000  0.59190000  0.08810000  1.0 0.0876501275
H  H89  1  0.59190000  0.08810000  0.00000000  1.0 0.0876501275
H  H90  1  0.40810000  0.08810000  0.00000000  1.0 0.0876501275
H  H91  1  0.40810000  0.91190000  0.00000000  1.0 0.0876501275
H  H92  1  0.59190000  0.91190000  0.00000000  1.0 0.0876501275
H  H93  1  0.08810000  0.00000000  0.40810000  1.0 0.0876501275
H  H94  1  0.08810000  0.00000000  0.59190000  1.0 0.0876501275
H  H95  1  0.91190000  0.00000000  0.59190000  1.0 0.0876501275
H  H96  1  0.91190000  0.00000000  0.40810000  1.0 0.0876501275
H  H97  1  0.13270000  0.62970000  0.80530000  1.0 0.1108456115
H  H98  1  0.86730000  0.37030000  0.80530000  1.0 0.1108456115
H  H99  1  0.86730000  0.62970000  0.19470000  1.0 0.1108456115
H  H100  1  0.13270000  0.37030000  0.19470000  1.0 0.1108456115
H  H101  1  0.80530000  0.13270000  0.62970000  1.0 0.1108456115
H  H102  1  0.80530000  0.86730000  0.37030000  1.0 0.1108456115
H  H103  1  0.19470000  0.86730000  0.62970000  1.0 0.1108456115
H  H104  1  0.19470000  0.13270000  0.37030000  1.0 0.1108456115
H  H105  1  0.62970000  0.80530000  0.13270000  1.0 0.1108456115
H  H106  1  0.37030000  0.80530000  0.86730000  1.0 0.1108456115
H  H107  1  0.62970000  0.19470000  0.86730000  1.0 0.1108456115
H  H108  1  0.37030000  0.19470000  0.13270000  1.0 0.1108456115
H  H109  1  0.12970000  0.63270000  0.69470000  1.0 0.1108456115
H  H110  1  0.87030000  0.36730000  0.69470000  1.0 0.1108456115
H  H111  1  0.12970000  0.36730000  0.30530000  1.0 0.1108456115
H  H112  1  0.87030000  0.63270000  0.30530000  1.0 0.1108456115
H  H113  1  0.63270000  0.30530000  0.87030000  1.0 0.1108456115
H  H114  1  0.36730000  0.30530000  0.12970000  1.0 0.1108456115
H  H115  1  0.36730000  0.69470000  0.87030000  1.0 0.1108456115
H  H116  1  0.63270000  0.69470000  0.12970000  1.0 0.1108456115
H  H117  1  0.30530000  0.12970000  0.36730000  1.0 0.1108456115
H  H118  1  0.30530000  0.87030000  0.63270000  1.0 0.1108456115
H  H119  1  0.69470000  0.12970000  0.63270000  1.0 0.1108456115
H  H120  1  0.69470000  0.87030000  0.36730000  1.0 0.1108456115
H  H121  1  0.86730000  0.37030000  0.19470000  1.0 0.1108456115
H  H122  1  0.13270000  0.62970000  0.19470000  1.0 0.1108456115
H  H123  1  0.13270000  0.37030000  0.80530000  1.0 0.1108456115
H  H124  1  0.86730000  0.62970000  0.80530000  1.0 0.1108456115
H  H125  1  0.19470000  0.86730000  0.37030000  1.0 0.1108456115
H  H126  1  0.19470000  0.13270000  0.62970000  1.0 0.1108456115
H  H127  1  0.80530000  0.13270000  0.37030000  1.0 0.1108456115
H  H128  1  0.80530000  0.86730000  0.62970000  1.0 0.1108456115
H  H129  1  0.37030000  0.19470000  0.86730000  1.0 0.1108456115
H  H130  1  0.62970000  0.19470000  0.13270000  1.0 0.1108456115
H  H131  1  0.37030000  0.80530000  0.13270000  1.0 0.1108456115
H  H132  1  0.62970000  0.80530000  0.86730000  1.0 0.1108456115
H  H133  1  0.87030000  0.36730000  0.30530000  1.0 0.1108456115
H  H134  1  0.12970000  0.63270000  0.30530000  1.0 0.1108456115
H  H135  1  0.87030000  0.63270000  0.69470000  1.0 0.1108456115
H  H136  1  0.12970000  0.36730000  0.69470000  1.0 0.1108456115
H  H137  1  0.36730000  0.69470000  0.12970000  1.0 0.1108456115
H  H138  1  0.63270000  0.69470000  0.87030000  1.0 0.1108456115
H  H139  1  0.63270000  0.30530000  0.12970000  1.0 0.1108456115
H  H140  1  0.36730000  0.30530000  0.87030000  1.0 0.1108456115
H  H141  1  0.69470000  0.87030000  0.63270000  1.0 0.1108456115
H  H142  1  0.69470000  0.12970000  0.36730000  1.0 0.1108456115
H  H143  1  0.30530000  0.87030000  0.36730000  1.0 0.1108456115
H  H144  1  0.30530000  0.12970000  0.63270000  1.0 0.1108456115
H  H145  1  0.11630000  0.52210000  0.52880000  1.0 0.0721762961
H  H146  1  0.88370000  0.47790000  0.52880000  1.0 0.0721762961
H  H147  1  0.88370000  0.52210000  0.47120000  1.0 0.0721762961
H  H148  1  0.11630000  0.47790000  0.47120000  1.0 0.0721762961
H  H149  1  0.52880000  0.11630000  0.52210000  1.0 0.0721762961
H  H150  1  0.52880000  0.88370000  0.47790000  1.0 0.0721762961
H  H151  1  0.47120000  0.88370000  0.52210000  1.0 0.0721762961
H  H152  1  0.47120000  0.11630000  0.47790000  1.0 0.0721762961
H  H153  1  0.52210000  0.52880000  0.11630000  1.0 0.0721762961
H  H154  1  0.47790000  0.52880000  0.88370000  1.0 0.0721762961
H  H155  1  0.52210000  0.47120000  0.88370000  1.0 0.0721762961
H  H156  1  0.47790000  0.47120000  0.11630000  1.0 0.0721762961
H  H157  1  0.02210000  0.61630000  0.97120000  1.0 0.0721762961
H  H158  1  0.97790000  0.38370000  0.97120000  1.0 0.0721762961
H  H159  1  0.02210000  0.38370000  0.02880000  1.0 0.0721762961
H  H160  1  0.97790000  0.61630000  0.02880000  1.0 0.0721762961
H  H161  1  0.61630000  0.02880000  0.97790000  1.0 0.0721762961
H  H162  1  0.38370000  0.02880000  0.02210000  1.0 0.0721762961
H  H163  1  0.38370000  0.97120000  0.97790000  1.0 0.0721762961
H  H164  1  0.61630000  0.97120000  0.02210000  1.0 0.0721762961
H  H165  1  0.02880000  0.02210000  0.38370000  1.0 0.0721762961
H  H166  1  0.02880000  0.97790000  0.61630000  1.0 0.0721762961
H  H167  1  0.97120000  0.02210000  0.61630000  1.0 0.0721762961
H  H168  1  0.97120000  0.97790000  0.38370000  1.0 0.0721762961
H  H169  1  0.88370000  0.47790000  0.47120000  1.0 0.0721762961
H  H170  1  0.11630000  0.52210000  0.47120000  1.0 0.0721762961
H  H171  1  0.11630000  0.47790000  0.52880000  1.0 0.0721762961
H  H172  1  0.88370000  0.52210000  0.52880000  1.0 0.0721762961
H  H173  1  0.47120000  0.88370000  0.47790000  1.0 0.0721762961
H  H174  1  0.47120000  0.11630000  0.52210000  1.0 0.0721762961
H  H175  1  0.52880000  0.11630000  0.47790000  1.0 0.0721762961
H  H176  1  0.52880000  0.88370000  0.52210000  1.0 0.0721762961
H  H177  1  0.47790000  0.47120000  0.88370000  1.0 0.0721762961
H  H178  1  0.52210000  0.47120000  0.11630000  1.0 0.0721762961
H  H179  1  0.47790000  0.52880000  0.11630000  1.0 0.0721762961
H  H180  1  0.52210000  0.52880000  0.88370000  1.0 0.0721762961
H  H181  1  0.97790000  0.38370000  0.02880000  1.0 0.0721762961
H  H182  1  0.02210000  0.61630000  0.02880000  1.0 0.0721762961
H  H183  1  0.97790000  0.61630000  0.97120000  1.0 0.0721762961
H  H184  1  0.02210000  0.38370000  0.97120000  1.0 0.0721762961
H  H185  1  0.38370000  0.97120000  0.02210000  1.0 0.0721762961
H  H186  1  0.61630000  0.97120000  0.97790000  1.0 0.0721762961
H  H187  1  0.61630000  0.02880000  0.02210000  1.0 0.0721762961
H  H188  1  0.38370000  0.02880000  0.97790000  1.0 0.0721762961
H  H189  1  0.97120000  0.97790000  0.61630000  1.0 0.0721762961
H  H190  1  0.97120000  0.02210000  0.38370000  1.0 0.0721762961
H  H191  1  0.02880000  0.97790000  0.38370000  1.0 0.0721762961
H  H192  1  0.02880000  0.02210000  0.61630000  1.0 0.0721762961
H  H193  1  0.16780000  0.67460000  0.80540000  1.0 0.1108456115
H  H194  1  0.83220000  0.32540000  0.80540000  1.0 0.1108456115
H  H195  1  0.83220000  0.67460000  0.19460000  1.0 0.1108456115
H  H196  1  0.16780000  0.32540000  0.19460000  1.0 0.1108456115
H  H197  1  0.80540000  0.16780000  0.67460000  1.0 0.1108456115
H  H198  1  0.80540000  0.83220000  0.32540000  1.0 0.1108456115
H  H199  1  0.19460000  0.83220000  0.67460000  1.0 0.1108456115
H  H200  1  0.19460000  0.16780000  0.32540000  1.0 0.1108456115
H  H201  1  0.67460000  0.80540000  0.16780000  1.0 0.1108456115
H  H202  1  0.32540000  0.80540000  0.83220000  1.0 0.1108456115
H  H203  1  0.67460000  0.19460000  0.83220000  1.0 0.1108456115
H  H204  1  0.32540000  0.19460000  0.16780000  1.0 0.1108456115
H  H205  1  0.17460000  0.66780000  0.69460000  1.0 0.1108456115
H  H206  1  0.82540000  0.33220000  0.69460000  1.0 0.1108456115
H  H207  1  0.17460000  0.33220000  0.30540000  1.0 0.1108456115
H  H208  1  0.82540000  0.66780000  0.30540000  1.0 0.1108456115
H  H209  1  0.66780000  0.30540000  0.82540000  1.0 0.1108456115
H  H210  1  0.33220000  0.30540000  0.17460000  1.0 0.1108456115
H  H211  1  0.33220000  0.69460000  0.82540000  1.0 0.1108456115
H  H212  1  0.66780000  0.69460000  0.17460000  1.0 0.1108456115
H  H213  1  0.30540000  0.17460000  0.33220000  1.0 0.1108456115
H  H214  1  0.30540000  0.82540000  0.66780000  1.0 0.1108456115
H  H215  1  0.69460000  0.17460000  0.66780000  1.0 0.1108456115
H  H216  1  0.69460000  0.82540000  0.33220000  1.0 0.1108456115
H  H217  1  0.83220000  0.32540000  0.19460000  1.0 0.1108456115
H  H218  1  0.16780000  0.67460000  0.19460000  1.0 0.1108456115
H  H219  1  0.16780000  0.32540000  0.80540000  1.0 0.1108456115
H  H220  1  0.83220000  0.67460000  0.80540000  1.0 0.1108456115
H  H221  1  0.19460000  0.83220000  0.32540000  1.0 0.1108456115
H  H222  1  0.19460000  0.16780000  0.67460000  1.0 0.1108456115
H  H223  1  0.80540000  0.16780000  0.32540000  1.0 0.1108456115
H  H224  1  0.80540000  0.83220000  0.67460000  1.0 0.1108456115
H  H225  1  0.32540000  0.19460000  0.83220000  1.0 0.1108456115
H  H226  1  0.67460000  0.19460000  0.16780000  1.0 0.1108456115
H  H227  1  0.32540000  0.80540000  0.16780000  1.0 0.1108456115
H  H228  1  0.67460000  0.80540000  0.83220000  1.0 0.1108456115
H  H229  1  0.82540000  0.33220000  0.30540000  1.0 0.1108456115
H  H230  1  0.17460000  0.66780000  0.30540000  1.0 0.1108456115
H  H231  1  0.82540000  0.66780000  0.69460000  1.0 0.1108456115
H  H232  1  0.17460000  0.33220000  0.69460000  1.0 0.1108456115
H  H233  1  0.33220000  0.69460000  0.17460000  1.0 0.1108456115
H  H234  1  0.66780000  0.69460000  0.82540000  1.0 0.1108456115
H  H235  1  0.66780000  0.30540000  0.17460000  1.0 0.1108456115
H  H236  1  0.33220000  0.30540000  0.82540000  1.0 0.1108456115
H  H237  1  0.69460000  0.82540000  0.66780000  1.0 0.1108456115
H  H238  1  0.69460000  0.17460000  0.33220000  1.0 0.1108456115
H  H239  1  0.30540000  0.82540000  0.33220000  1.0 0.1108456115
H  H240  1  0.30540000  0.17460000  0.66780000  1.0 0.1108456115
H  H241  1  0.21280000  0.72110000  0.80470000  1.0 0.1314974901
H  H242  1  0.78720000  0.27890000  0.80470000  1.0 0.1314974901
H  H243  1  0.78720000  0.72110000  0.19530000  1.0 0.1314974901
H  H244  1  0.21280000  0.27890000  0.19530000  1.0 0.1314974901
H  H245  1  0.80470000  0.21280000  0.72110000  1.0 0.1314974901
H  H246  1  0.80470000  0.78720000  0.27890000  1.0 0.1314974901
H  H247  1  0.19530000  0.78720000  0.72110000  1.0 0.1314974901
H  H248  1  0.19530000  0.21280000  0.27890000  1.0 0.1314974901
H  H249  1  0.72110000  0.80470000  0.21280000  1.0 0.1314974901
H  H250  1  0.27890000  0.80470000  0.78720000  1.0 0.1314974901
H  H251  1  0.72110000  0.19530000  0.78720000  1.0 0.1314974901
H  H252  1  0.27890000  0.19530000  0.21280000  1.0 0.1314974901
H  H253  1  0.22110000  0.71280000  0.69530000  1.0 0.1314974901
H  H254  1  0.77890000  0.28720000  0.69530000  1.0 0.1314974901
H  H255  1  0.22110000  0.28720000  0.30470000  1.0 0.1314974901
H  H256  1  0.77890000  0.71280000  0.30470000  1.0 0.1314974901
H  H257  1  0.71280000  0.30470000  0.77890000  1.0 0.1314974901
H  H258  1  0.28720000  0.30470000  0.22110000  1.0 0.1314974901
H  H259  1  0.28720000  0.69530000  0.77890000  1.0 0.1314974901
H  H260  1  0.71280000  0.69530000  0.22110000  1.0 0.1314974901
H  H261  1  0.30470000  0.22110000  0.28720000  1.0 0.1314974901
H  H262  1  0.30470000  0.77890000  0.71280000  1.0 0.1314974901
H  H263  1  0.69530000  0.22110000  0.71280000  1.0 0.1314974901
H  H264  1  0.69530000  0.77890000  0.28720000  1.0 0.1314974901
H  H265  1  0.78720000  0.27890000  0.19530000  1.0 0.1314974901
H  H266  1  0.21280000  0.72110000  0.19530000  1.0 0.1314974901
H  H267  1  0.21280000  0.27890000  0.80470000  1.0 0.1314974901
H  H268  1  0.78720000  0.72110000  0.80470000  1.0 0.1314974901
H  H269  1  0.19530000  0.78720000  0.27890000  1.0 0.1314974901
H  H270  1  0.19530000  0.21280000  0.72110000  1.0 0.1314974901
H  H271  1  0.80470000  0.21280000  0.27890000  1.0 0.1314974901
H  H272  1  0.80470000  0.78720000  0.72110000  1.0 0.1314974901
H  H273  1  0.27890000  0.19530000  0.78720000  1.0 0.1314974901
H  H274  1  0.72110000  0.19530000  0.21280000  1.0 0.1314974901
H  H275  1  0.27890000  0.80470000  0.21280000  1.0 0.1314974901
H  H276  1  0.72110000  0.80470000  0.78720000  1.0 0.1314974901
H  H277  1  0.77890000  0.28720000  0.30470000  1.0 0.1314974901
H  H278  1  0.22110000  0.71280000  0.30470000  1.0 0.1314974901
H  H279  1  0.77890000  0.71280000  0.69530000  1.0 0.1314974901
H  H280  1  0.22110000  0.28720000  0.69530000  1.0 0.1314974901
H  H281  1  0.28720000  0.69530000  0.22110000  1.0 0.1314974901
H  H282  1  0.71280000  0.69530000  0.77890000  1.0 0.1314974901
H  H283  1  0.71280000  0.30470000  0.22110000  1.0 0.1314974901
H  H284  1  0.28720000  0.30470000  0.77890000  1.0 0.1314974901
H  H285  1  0.69530000  0.77890000  0.71280000  1.0 0.1314974901
H  H286  1  0.69530000  0.22110000  0.28720000  1.0 0.1314974901
H  H287  1  0.30470000  0.77890000  0.28720000  1.0 0.1314974901
H  H288  1  0.30470000  0.22110000  0.71280000  1.0 0.1314974901
C  C1  1  0.05043000  0.55043000  0.75000000  1.0 0.5779224437
C  C2  1  0.94957000  0.44957000  0.75000000  1.0 0.5779224437
C  C3  1  0.94957000  0.55043000  0.25000000  1.0 0.5779224437
C  C4  1  0.05043000  0.44957000  0.25000000  1.0 0.5779224437
C  C5  1  0.75000000  0.05043000  0.55043000  1.0 0.5779224437
C  C6  1  0.75000000  0.94957000  0.44957000  1.0 0.5779224437
C  C7  1  0.25000000  0.94957000  0.55043000  1.0 0.5779224437
C  C8  1  0.25000000  0.05043000  0.44957000  1.0 0.5779224437
C  C9  1  0.55043000  0.75000000  0.05043000  1.0 0.5779224437
C  C10  1  0.44957000  0.75000000  0.94957000  1.0 0.5779224437
C  C11  1  0.55043000  0.25000000  0.94957000  1.0 0.5779224437
C  C12  1  0.44957000  0.25000000  0.05043000  1.0 0.5779224437
C  C13  1  0.94957000  0.44957000  0.25000000  1.0 0.5779224437
C  C14  1  0.05043000  0.55043000  0.25000000  1.0 0.5779224437
C  C15  1  0.05043000  0.44957000  0.75000000  1.0 0.5779224437
C  C16  1  0.94957000  0.55043000  0.75000000  1.0 0.5779224437
C  C17  1  0.25000000  0.94957000  0.44957000  1.0 0.5779224437
C  C18  1  0.25000000  0.05043000  0.55043000  1.0 0.5779224437
C  C19  1  0.75000000  0.05043000  0.44957000  1.0 0.5779224437
C  C20  1  0.75000000  0.94957000  0.55043000  1.0 0.5779224437
C  C21  1  0.44957000  0.25000000  0.94957000  1.0 0.5779224437
C  C22  1  0.55043000  0.25000000  0.05043000  1.0 0.5779224437
C  C23  1  0.44957000  0.75000000  0.05043000  1.0 0.5779224437
C  C24  1  0.55043000  0.75000000  0.94957000  1.0 0.5779224437
C  C25  1  0.03030000  0.50000000  0.63334000  1.0 0.0876501275
C  C26  1  0.96970000  0.50000000  0.63334000  1.0 0.0876501275
C  C27  1  0.96970000  0.50000000  0.36666000  1.0 0.0876501275
C  C28  1  0.03030000  0.50000000  0.36666000  1.0 0.0876501275
C  C29  1  0.63334000  0.03030000  0.50000000  1.0 0.0876501275
C  C30  1  0.63334000  0.96970000  0.50000000  1.0 0.0876501275
C  C31  1  0.36666000  0.96970000  0.50000000  1.0 0.0876501275
C  C32  1  0.36666000  0.03030000  0.50000000  1.0 0.0876501275
C  C33  1  0.50000000  0.63334000  0.03030000  1.0 0.0876501275
C  C34  1  0.50000000  0.63334000  0.96970000  1.0 0.0876501275
C  C35  1  0.50000000  0.36666000  0.96970000  1.0 0.0876501275
C  C36  1  0.50000000  0.36666000  0.03030000  1.0 0.0876501275
C  C37  1  0.00000000  0.53030000  0.86666000  1.0 0.0876501275
C  C38  1  0.00000000  0.46970000  0.86666000  1.0 0.0876501275
C  C39  1  0.00000000  0.46970000  0.13334000  1.0 0.0876501275
C  C40  1  0.00000000  0.53030000  0.13334000  1.0 0.0876501275
C  C41  1  0.53030000  0.13334000  0.00000000  1.0 0.0876501275
C  C42  1  0.46970000  0.13334000  0.00000000  1.0 0.0876501275
C  C43  1  0.46970000  0.86666000  0.00000000  1.0 0.0876501275
C  C44  1  0.53030000  0.86666000  0.00000000  1.0 0.0876501275
C  C45  1  0.13334000  0.00000000  0.46970000  1.0 0.0876501275
C  C46  1  0.13334000  0.00000000  0.53030000  1.0 0.0876501275
C  C47  1  0.86666000  0.00000000  0.53030000  1.0 0.0876501275
C  C48  1  0.86666000  0.00000000  0.46970000  1.0 0.0876501275
C  C49  1  0.08019000  0.58019000  0.75000000  1.0 -0.031061757
C  C50  1  0.91981000  0.41981000  0.75000000  1.0 -0.031061757
C  C51  1  0.91981000  0.58019000  0.25000000  1.0 -0.031061757
C  C52  1  0.08019000  0.41981000  0.25000000  1.0 -0.031061757
C  C53  1  0.75000000  0.08019000  0.58019000  1.0 -0.031061757
C  C54  1  0.75000000  0.91981000  0.41981000  1.0 -0.031061757
C  C55  1  0.25000000  0.91981000  0.58019000  1.0 -0.031061757
C  C56  1  0.25000000  0.08019000  0.41981000  1.0 -0.031061757
C  C57  1  0.58019000  0.75000000  0.08019000  1.0 -0.031061757
C  C58  1  0.41981000  0.75000000  0.91981000  1.0 -0.031061757
C  C59  1  0.58019000  0.25000000  0.91981000  1.0 -0.031061757
C  C60  1  0.41981000  0.25000000  0.08019000  1.0 -0.031061757
C  C61  1  0.91981000  0.41981000  0.25000000  1.0 -0.031061757
C  C62  1  0.08019000  0.58019000  0.25000000  1.0 -0.031061757
C  C63  1  0.08019000  0.41981000  0.75000000  1.0 -0.031061757
C  C64  1  0.91981000  0.58019000  0.75000000  1.0 -0.031061757
C  C65  1  0.25000000  0.91981000  0.41981000  1.0 -0.031061757
C  C66  1  0.25000000  0.08019000  0.58019000  1.0 -0.031061757
C  C67  1  0.75000000  0.08019000  0.41981000  1.0 -0.031061757
C  C68  1  0.75000000  0.91981000  0.58019000  1.0 -0.031061757
C  C69  1  0.41981000  0.25000000  0.91981000  1.0 -0.031061757
C  C70  1  0.58019000  0.25000000  0.08019000  1.0 -0.031061757
C  C71  1  0.41981000  0.75000000  0.08019000  1.0 -0.031061757
C  C72  1  0.58019000  0.75000000  0.91981000  1.0 -0.031061757
C  C73  1  0.03110000  0.50000000  0.59320000  1.0 -0.1092851201
C  C74  1  0.96890000  0.50000000  0.59320000  1.0 -0.1092851201
C  C75  1  0.96890000  0.50000000  0.40680000  1.0 -0.1092851201
C  C76  1  0.03110000  0.50000000  0.40680000  1.0 -0.1092851201
C  C77  1  0.59320000  0.03110000  0.50000000  1.0 -0.1092851201
C  C78  1  0.59320000  0.96890000  0.50000000  1.0 -0.1092851201
C  C79  1  0.40680000  0.96890000  0.50000000  1.0 -0.1092851201
C  C80  1  0.40680000  0.03110000  0.50000000  1.0 -0.1092851201
C  C81  1  0.50000000  0.59320000  0.03110000  1.0 -0.1092851201
C  C82  1  0.50000000  0.59320000  0.96890000  1.0 -0.1092851201
C  C83  1  0.50000000  0.40680000  0.96890000  1.0 -0.1092851201
C  C84  1  0.50000000  0.40680000  0.03110000  1.0 -0.1092851201
C  C85  1  0.00000000  0.53110000  0.90680000  1.0 -0.1092851201
C  C86  1  0.00000000  0.46890000  0.90680000  1.0 -0.1092851201
C  C87  1  0.00000000  0.46890000  0.09320000  1.0 -0.1092851201
C  C88  1  0.00000000  0.53110000  0.09320000  1.0 -0.1092851201
C  C89  1  0.53110000  0.09320000  0.00000000  1.0 -0.1092851201
C  C90  1  0.46890000  0.09320000  0.00000000  1.0 -0.1092851201
C  C91  1  0.46890000  0.90680000  0.00000000  1.0 -0.1092851201
C  C92  1  0.53110000  0.90680000  0.00000000  1.0 -0.1092851201
C  C93  1  0.09320000  0.00000000  0.46890000  1.0 -0.1092851201
C  C94  1  0.09320000  0.00000000  0.53110000  1.0 -0.1092851201
C  C95  1  0.90680000  0.00000000  0.53110000  1.0 -0.1092851201
C  C96  1  0.90680000  0.00000000  0.46890000  1.0 -0.1092851201
C  C97  1  0.09576000  0.59303000  0.78274000  1.0 -0.0970041293
C  C98  1  0.90424000  0.40697000  0.78274000  1.0 -0.0949317936
C  C99  1  0.90424000  0.59303000  0.21726000  1.0 -0.0970041293
C  C100  1  0.09576000  0.40697000  0.21726000  1.0 -0.0970041293
C  C101  1  0.78274000  0.09576000  0.59303000  1.0 -0.0970041293
C  C102  1  0.78274000  0.90424000  0.40697000  1.0 -0.0970041293
C  C103  1  0.21726000  0.90424000  0.59303000  1.0 -0.0970041293
C  C104  1  0.21726000  0.09576000  0.40697000  1.0 -0.0970041293
C  C105  1  0.59303000  0.78274000  0.09576000  1.0 -0.0970041293
C  C106  1  0.40697000  0.78274000  0.90424000  1.0 -0.0970041293
C  C107  1  0.59303000  0.21726000  0.90424000  1.0 -0.0949317936
C  C108  1  0.40697000  0.21726000  0.09576000  1.0 -0.0970041293
C  C109  1  0.09303000  0.59576000  0.71726000  1.0 -0.0970041293
C  C110  1  0.90697000  0.40424000  0.71726000  1.0 -0.0970041293
C  C111  1  0.09303000  0.40424000  0.28274000  1.0 -0.0970041293
C  C112  1  0.90697000  0.59576000  0.28274000  1.0 -0.0970041293
C  C113  1  0.59576000  0.28274000  0.90697000  1.0 -0.0970041293
C  C114  1  0.40424000  0.28274000  0.09303000  1.0 -0.0970041293
C  C115  1  0.40424000  0.71726000  0.90697000  1.0 -0.0970041293
C  C116  1  0.59576000  0.71726000  0.09303000  1.0 -0.0970041293
C  C117  1  0.28274000  0.09303000  0.40424000  1.0 -0.0970041293
C  C118  1  0.28274000  0.90697000  0.59576000  1.0 -0.0970041293
C  C119  1  0.71726000  0.09303000  0.59576000  1.0 -0.0970041293
C  C120  1  0.71726000  0.90697000  0.40424000  1.0 -0.0970041293
C  C121  1  0.90424000  0.40697000  0.21726000  1.0 -0.0970041293
C  C122  1  0.09576000  0.59303000  0.21726000  1.0 -0.0970041293
C  C123  1  0.09576000  0.40697000  0.78274000  1.0 -0.0970041293
C  C124  1  0.90424000  0.59303000  0.78274000  1.0 -0.0970041293
C  C125  1  0.21726000  0.90424000  0.40697000  1.0 -0.0970041293
C  C126  1  0.21726000  0.09576000  0.59303000  1.0 -0.0970041293
C  C127  1  0.78274000  0.09576000  0.40697000  1.0 -0.0970041293
C  C128  1  0.78274000  0.90424000  0.59303000  1.0 -0.0970041293
C  C129  1  0.40697000  0.21726000  0.90424000  1.0 -0.0949317936
C  C130  1  0.59303000  0.21726000  0.09576000  1.0 -0.0970041293
C  C131  1  0.40697000  0.78274000  0.09576000  1.0 -0.0970041293
C  C132  1  0.59303000  0.78274000  0.90424000  1.0 -0.0970041293
C  C133  1  0.90697000  0.40424000  0.28274000  1.0 -0.0970041293
C  C134  1  0.09303000  0.59576000  0.28274000  1.0 -0.0970041293
C  C135  1  0.90697000  0.59576000  0.71726000  1.0 -0.0970041293
C  C136  1  0.09303000  0.40424000  0.71726000  1.0 -0.0970041293
C  C137  1  0.40424000  0.71726000  0.09303000  1.0 -0.0970041293
C  C138  1  0.59576000  0.71726000  0.90697000  1.0 -0.0970041293
C  C139  1  0.59576000  0.28274000  0.09303000  1.0 -0.0970041293
C  C140  1  0.40424000  0.28274000  0.90697000  1.0 -0.0970041293
C  C141  1  0.71726000  0.90697000  0.59576000  1.0 -0.0970041293
C  C142  1  0.71726000  0.09303000  0.40424000  1.0 -0.0970041293
C  C143  1  0.28274000  0.90697000  0.40424000  1.0 -0.0970041293
C  C144  1  0.28274000  0.09303000  0.59576000  1.0 -0.0970041293
C  C145  1  0.00000000  0.50000000  0.57440000  1.0 0.1612303718
C  C146  1  0.00000000  0.50000000  0.42560000  1.0 0.1612303718
C  C147  1  0.57440000  0.00000000  0.50000000  1.0 0.1612303718
C  C148  1  0.42560000  0.00000000  0.50000000  1.0 0.1612303718
C  C149  1  0.50000000  0.57440000  0.00000000  1.0 0.1612303718
C  C150  1  0.50000000  0.42560000  0.00000000  1.0 0.1612303718
C  C151  1  0.00000000  0.50000000  0.92560000  1.0 0.1612303718
C  C152  1  0.00000000  0.50000000  0.07440000  1.0 0.1612303718
C  C153  1  0.50000000  0.07440000  0.00000000  1.0 0.1612303718
C  C154  1  0.50000000  0.92560000  0.00000000  1.0 0.1612303718
C  C155  1  0.07440000  0.00000000  0.50000000  1.0 0.1612303718
C  C156  1  0.92560000  0.00000000  0.50000000  1.0 0.1612303718
C  C157  1  0.06900000  0.50000000  0.57540000  1.0 0.0172893445
C  C158  1  0.93100000  0.50000000  0.57540000  1.0 0.0172893445
C  C159  1  0.93100000  0.50000000  0.42460000  1.0 0.0172893445
C  C160  1  0.06900000  0.50000000  0.42460000  1.0 0.0172893445
C  C161  1  0.57540000  0.06900000  0.50000000  1.0 0.0172893445
C  C162  1  0.57540000  0.93100000  0.50000000  1.0 0.0172893445
C  C163  1  0.42460000  0.93100000  0.50000000  1.0 0.0172893445
C  C164  1  0.42460000  0.06900000  0.50000000  1.0 0.0172893445
C  C165  1  0.50000000  0.57540000  0.06900000  1.0 0.0172893445
C  C166  1  0.50000000  0.57540000  0.93100000  1.0 0.0172893445
C  C167  1  0.50000000  0.42460000  0.93100000  1.0 0.0172893445
C  C168  1  0.50000000  0.42460000  0.06900000  1.0 0.0172893445
C  C169  1  0.00000000  0.56900000  0.92460000  1.0 0.0172893445
C  C170  1  0.00000000  0.43100000  0.92460000  1.0 0.0172893445
C  C171  1  0.00000000  0.43100000  0.07540000  1.0 0.0172893445
C  C172  1  0.00000000  0.56900000  0.07540000  1.0 0.0172893445
C  C173  1  0.56900000  0.07540000  0.00000000  1.0 0.0172893445
C  C174  1  0.43100000  0.07540000  0.00000000  1.0 0.0172893445
C  C175  1  0.43100000  0.92460000  0.00000000  1.0 0.0172893445
C  C176  1  0.56900000  0.92460000  0.00000000  1.0 0.0172893445
C  C177  1  0.07540000  0.00000000  0.43100000  1.0 0.0172893445
C  C178  1  0.07540000  0.00000000  0.56900000  1.0 0.0172893445
C  C179  1  0.92460000  0.00000000  0.56900000  1.0 0.0172893445
C  C180  1  0.92460000  0.00000000  0.43100000  1.0 0.0172893445
C  C181  1  0.12315000  0.62115000  0.78250000  1.0 -0.1639630635
C  C182  1  0.87685000  0.37885000  0.78250000  1.0 -0.1639630635
C  C183  1  0.87685000  0.62115000  0.21750000  1.0 -0.1639630635
C  C184  1  0.12315000  0.37885000  0.21750000  1.0 -0.1639630635
C  C185  1  0.78250000  0.12315000  0.62115000  1.0 -0.1639630635
C  C186  1  0.78250000  0.87685000  0.37885000  1.0 -0.1639630635
C  C187  1  0.21750000  0.87685000  0.62115000  1.0 -0.1639630635
C  C188  1  0.21750000  0.12315000  0.37885000  1.0 -0.1639630635
C  C189  1  0.62115000  0.78250000  0.12315000  1.0 -0.1639630635
C  C190  1  0.37885000  0.78250000  0.87685000  1.0 -0.1639630635
C  C191  1  0.62115000  0.21750000  0.87685000  1.0 -0.1639630635
C  C192  1  0.37885000  0.21750000  0.12315000  1.0 -0.1639630635
C  C193  1  0.12115000  0.62315000  0.71750000  1.0 -0.1639630635
C  C194  1  0.87885000  0.37685000  0.71750000  1.0 -0.1639630635
C  C195  1  0.12115000  0.37685000  0.28250000  1.0 -0.1639630635
C  C196  1  0.87885000  0.62315000  0.28250000  1.0 -0.1639630635
C  C197  1  0.62315000  0.28250000  0.87885000  1.0 -0.1639630635
C  C198  1  0.37685000  0.28250000  0.12115000  1.0 -0.1639630635
C  C199  1  0.37685000  0.71750000  0.87885000  1.0 -0.1639630635
C  C200  1  0.62315000  0.71750000  0.12115000  1.0 -0.1639630635
C  C201  1  0.28250000  0.12115000  0.37685000  1.0 -0.1639630635
C  C202  1  0.28250000  0.87885000  0.62315000  1.0 -0.1639630635
C  C203  1  0.71750000  0.12115000  0.62315000  1.0 -0.1639630635
C  C204  1  0.71750000  0.87885000  0.37685000  1.0 -0.1639630635
C  C205  1  0.87685000  0.37885000  0.21750000  1.0 -0.1639630635
C  C206  1  0.12315000  0.62115000  0.21750000  1.0 -0.1639630635
C  C207  1  0.12315000  0.37885000  0.78250000  1.0 -0.1639630635
C  C208  1  0.87685000  0.62115000  0.78250000  1.0 -0.1639630635
C  C209  1  0.21750000  0.87685000  0.37885000  1.0 -0.1639630635
C  C210  1  0.21750000  0.12315000  0.62115000  1.0 -0.1639630635
C  C211  1  0.78250000  0.12315000  0.37885000  1.0 -0.1639630635
C  C212  1  0.78250000  0.87685000  0.62115000  1.0 -0.1639630635
C  C213  1  0.37885000  0.21750000  0.87685000  1.0 -0.1639630635
C  C214  1  0.62115000  0.21750000  0.12315000  1.0 -0.1639630635
C  C215  1  0.37885000  0.78250000  0.12315000  1.0 -0.1639630635
C  C216  1  0.62115000  0.78250000  0.87685000  1.0 -0.1639630635
C  C217  1  0.87885000  0.37685000  0.28250000  1.0 -0.1639630635
C  C218  1  0.12115000  0.62315000  0.28250000  1.0 -0.1639630635
C  C219  1  0.87885000  0.62315000  0.71750000  1.0 -0.1639630635
C  C220  1  0.12115000  0.37685000  0.71750000  1.0 -0.1639630635
C  C221  1  0.37685000  0.71750000  0.12115000  1.0 -0.1639630635
C  C222  1  0.62315000  0.71750000  0.87885000  1.0 -0.1639630635
C  C223  1  0.62315000  0.28250000  0.12115000  1.0 -0.1639630635
C  C224  1  0.37685000  0.28250000  0.87885000  1.0 -0.1639630635
C  C225  1  0.71750000  0.87885000  0.62315000  1.0 -0.1639630635
C  C226  1  0.71750000  0.12115000  0.37685000  1.0 -0.1639630635
C  C227  1  0.28250000  0.87885000  0.37685000  1.0 -0.1639630635
C  C228  1  0.28250000  0.12115000  0.62315000  1.0 -0.1639630635
C  C229  1  0.13643000  0.63643000  0.75000000  1.0 0.0767384024
C  C230  1  0.86357000  0.36357000  0.75000000  1.0 0.0767384024
C  C231  1  0.86357000  0.63643000  0.25000000  1.0 0.0767384024
C  C232  1  0.13643000  0.36357000  0.25000000  1.0 0.0767384024
C  C233  1  0.75000000  0.13643000  0.63643000  1.0 0.0767384024
C  C234  1  0.75000000  0.86357000  0.36357000  1.0 0.0767384024
C  C235  1  0.25000000  0.86357000  0.63643000  1.0 0.0767384024
C  C236  1  0.25000000  0.13643000  0.36357000  1.0 0.0767384024
C  C237  1  0.63643000  0.75000000  0.13643000  1.0 0.0767384024
C  C238  1  0.36357000  0.75000000  0.86357000  1.0 0.0767384024
C  C239  1  0.63643000  0.25000000  0.86357000  1.0 0.0767384024
C  C240  1  0.36357000  0.25000000  0.13643000  1.0 0.0767384024
C  C241  1  0.86357000  0.36357000  0.25000000  1.0 0.0767384024
C  C242  1  0.13643000  0.63643000  0.25000000  1.0 0.0767384024
C  C243  1  0.13643000  0.36357000  0.75000000  1.0 0.0767384024
C  C244  1  0.86357000  0.63643000  0.75000000  1.0 0.0767384024
C  C245  1  0.25000000  0.86357000  0.36357000  1.0 0.0767384024
C  C246  1  0.25000000  0.13643000  0.63643000  1.0 0.0767384024
C  C247  1  0.75000000  0.13643000  0.36357000  1.0 0.0767384024
C  C248  1  0.75000000  0.86357000  0.63643000  1.0 0.0767384024
C  C249  1  0.36357000  0.25000000  0.86357000  1.0 0.0767384024
C  C250  1  0.63643000  0.25000000  0.13643000  1.0 0.0767384024
C  C251  1  0.36357000  0.75000000  0.13643000  1.0 0.0767384024
C  C252  1  0.63643000  0.75000000  0.86357000  1.0 0.0767384024
C  C253  1  0.10290000  0.50000000  0.51990000  1.0 -0.1092851201
C  C254  1  0.89710000  0.50000000  0.51990000  1.0 -0.1092851201
C  C255  1  0.89710000  0.50000000  0.48010000  1.0 -0.1092851201
C  C256  1  0.10290000  0.50000000  0.48010000  1.0 -0.1092851201
C  C257  1  0.51990000  0.10290000  0.50000000  1.0 -0.1092851201
C  C258  1  0.51990000  0.89710000  0.50000000  1.0 -0.1092851201
C  C259  1  0.48010000  0.89710000  0.50000000  1.0 -0.1092851201
C  C260  1  0.48010000  0.10290000  0.50000000  1.0 -0.1092851201
C  C261  1  0.50000000  0.51990000  0.10290000  1.0 -0.1092851201
C  C262  1  0.50000000  0.51990000  0.89710000  1.0 -0.1092851201
C  C263  1  0.50000000  0.48010000  0.89710000  1.0 -0.1092851201
C  C264  1  0.50000000  0.48010000  0.10290000  1.0 -0.1092851201
C  C265  1  0.00000000  0.60290000  0.98010000  1.0 -0.1092851201
C  C266  1  0.00000000  0.39710000  0.98010000  1.0 -0.1092851201
C  C267  1  0.00000000  0.39710000  0.01990000  1.0 -0.1092851201
C  C268  1  0.00000000  0.60290000  0.01990000  1.0 -0.1092851201
C  C269  1  0.60290000  0.01990000  0.00000000  1.0 -0.1092851201
C  C270  1  0.39710000  0.01990000  0.00000000  1.0 -0.1092851201
C  C271  1  0.39710000  0.98010000  0.00000000  1.0 -0.1092851201
C  C272  1  0.60290000  0.98010000  0.00000000  1.0 -0.1092851201
C  C273  1  0.01990000  0.00000000  0.39710000  1.0 -0.1092851201
C  C274  1  0.01990000  0.00000000  0.60290000  1.0 -0.1092851201
C  C275  1  0.98010000  0.00000000  0.60290000  1.0 -0.1092851201
C  C276  1  0.98010000  0.00000000  0.39710000  1.0 -0.1092851201
C  C277  1  0.16615000  0.66615000  0.75000000  1.0 0.0556428765
C  C278  1  0.83385000  0.33385000  0.75000000  1.0 0.0556428765
C  C279  1  0.83385000  0.66615000  0.25000000  1.0 0.0546196241
C  C280  1  0.16615000  0.33385000  0.25000000  1.0 0.0546196241
C  C281  1  0.75000000  0.16615000  0.66615000  1.0 0.0556428765
C  C282  1  0.75000000  0.83385000  0.33385000  1.0 0.0556428765
C  C283  1  0.25000000  0.83385000  0.66615000  1.0 0.0546196241
C  C284  1  0.25000000  0.16615000  0.33385000  1.0 0.0546196241
C  C285  1  0.66615000  0.75000000  0.16615000  1.0 0.0556428765
C  C286  1  0.33385000  0.75000000  0.83385000  1.0 0.0556428765
C  C287  1  0.66615000  0.25000000  0.83385000  1.0 0.0546196241
C  C288  1  0.33385000  0.25000000  0.16615000  1.0 0.0546196241
C  C289  1  0.83385000  0.33385000  0.25000000  1.0 0.0546196241
C  C290  1  0.16615000  0.66615000  0.25000000  1.0 0.0546196241
C  C291  1  0.16615000  0.33385000  0.75000000  1.0 0.0546196241
C  C292  1  0.83385000  0.66615000  0.75000000  1.0 0.0556428765
C  C293  1  0.25000000  0.83385000  0.33385000  1.0 0.0546196241
C  C294  1  0.25000000  0.16615000  0.66615000  1.0 0.0546196241
C  C295  1  0.75000000  0.16615000  0.33385000  1.0 0.0546196241
C  C296  1  0.75000000  0.83385000  0.66615000  1.0 0.0556428765
C  C297  1  0.33385000  0.25000000  0.83385000  1.0 0.0546196241
C  C298  1  0.66615000  0.25000000  0.16615000  1.0 0.0546196241
C  C299  1  0.33385000  0.75000000  0.16615000  1.0 0.0546196241
C  C300  1  0.66615000  0.75000000  0.83385000  1.0 0.0556428765
C  C301  1  0.17812000  0.68228000  0.78259000  1.0 -0.1404014384
C  C302  1  0.82188000  0.31772000  0.78259000  1.0 -0.1404014384
C  C303  1  0.82188000  0.68228000  0.21741000  1.0 -0.1404014384
C  C304  1  0.17812000  0.31772000  0.21741000  1.0 -0.1404014384
C  C305  1  0.78259000  0.17812000  0.68228000  1.0 -0.1404014384
C  C306  1  0.78259000  0.82188000  0.31772000  1.0 -0.1404014384
C  C307  1  0.21741000  0.82188000  0.68228000  1.0 -0.1404014384
C  C308  1  0.21741000  0.17812000  0.31772000  1.0 -0.1404014384
C  C309  1  0.68228000  0.78259000  0.17812000  1.0 -0.1404014384
C  C310  1  0.31772000  0.78259000  0.82188000  1.0 -0.1404014384
C  C311  1  0.68228000  0.21741000  0.82188000  1.0 -0.1404014384
C  C312  1  0.31772000  0.21741000  0.17812000  1.0 -0.1404014384
C  C313  1  0.18228000  0.67812000  0.71741000  1.0 -0.1404014384
C  C314  1  0.81772000  0.32188000  0.71741000  1.0 -0.1404014384
C  C315  1  0.18228000  0.32188000  0.28259000  1.0 -0.1404014384
C  C316  1  0.81772000  0.67812000  0.28259000  1.0 -0.1404014384
C  C317  1  0.67812000  0.28259000  0.81772000  1.0 -0.1404014384
C  C318  1  0.32188000  0.28259000  0.18228000  1.0 -0.1404014384
C  C319  1  0.32188000  0.71741000  0.81772000  1.0 -0.1404014384
C  C320  1  0.67812000  0.71741000  0.18228000  1.0 -0.1404014384
C  C321  1  0.28259000  0.18228000  0.32188000  1.0 -0.1404014384
C  C322  1  0.28259000  0.81772000  0.67812000  1.0 -0.1404014384
C  C323  1  0.71741000  0.18228000  0.67812000  1.0 -0.1404014384
C  C324  1  0.71741000  0.81772000  0.32188000  1.0 -0.1404014384
C  C325  1  0.82188000  0.31772000  0.21741000  1.0 -0.1404014384
C  C326  1  0.17812000  0.68228000  0.21741000  1.0 -0.1404014384
C  C327  1  0.17812000  0.31772000  0.78259000  1.0 -0.1404014384
C  C328  1  0.82188000  0.68228000  0.78259000  1.0 -0.1404014384
C  C329  1  0.21741000  0.82188000  0.31772000  1.0 -0.1404014384
C  C330  1  0.21741000  0.17812000  0.68228000  1.0 -0.1404014384
C  C331  1  0.78259000  0.17812000  0.31772000  1.0 -0.1404014384
C  C332  1  0.78259000  0.82188000  0.68228000  1.0 -0.1404014384
C  C333  1  0.31772000  0.21741000  0.82188000  1.0 -0.1404014384
C  C334  1  0.68228000  0.21741000  0.17812000  1.0 -0.1404014384
C  C335  1  0.31772000  0.78259000  0.17812000  1.0 -0.1404014384
C  C336  1  0.68228000  0.78259000  0.82188000  1.0 -0.1404014384
C  C337  1  0.81772000  0.32188000  0.28259000  1.0 -0.1404014384
C  C338  1  0.18228000  0.67812000  0.28259000  1.0 -0.1404014384
C  C339  1  0.81772000  0.67812000  0.71741000  1.0 -0.1404014384
C  C340  1  0.18228000  0.32188000  0.71741000  1.0 -0.1404014384
C  C341  1  0.32188000  0.71741000  0.18228000  1.0 -0.1404014384
C  C342  1  0.67812000  0.71741000  0.81772000  1.0 -0.1404014384
C  C343  1  0.67812000  0.28259000  0.18228000  1.0 -0.1404014384
C  C344  1  0.32188000  0.28259000  0.81772000  1.0 -0.1404014384
C  C345  1  0.71741000  0.81772000  0.67812000  1.0 -0.1404014384
C  C346  1  0.71741000  0.18228000  0.32188000  1.0 -0.1404014384
C  C347  1  0.28259000  0.81772000  0.32188000  1.0 -0.1404014384
C  C348  1  0.28259000  0.18228000  0.67812000  1.0 -0.1404014384
C  C349  1  0.20539000  0.71002000  0.78218000  1.0 -0.1829723558
C  C350  1  0.79461000  0.28998000  0.78218000  1.0 -0.1829723558
C  C351  1  0.79461000  0.71002000  0.21782000  1.0 -0.1829723558
C  C352  1  0.20539000  0.28998000  0.21782000  1.0 -0.1829723558
C  C353  1  0.78218000  0.20539000  0.71002000  1.0 -0.1829723558
C  C354  1  0.78218000  0.79461000  0.28998000  1.0 -0.1829723558
C  C355  1  0.21782000  0.79461000  0.71002000  1.0 -0.1829723558
C  C356  1  0.21782000  0.20539000  0.28998000  1.0 -0.1829723558
C  C357  1  0.71002000  0.78218000  0.20539000  1.0 -0.1829723558
C  C358  1  0.28998000  0.78218000  0.79461000  1.0 -0.1829723558
C  C359  1  0.71002000  0.21782000  0.79461000  1.0 -0.1829723558
C  C360  1  0.28998000  0.21782000  0.20539000  1.0 -0.1829723558
C  C361  1  0.21002000  0.70539000  0.71782000  1.0 -0.1829723558
C  C362  1  0.78998000  0.29461000  0.71782000  1.0 -0.1829723558
C  C363  1  0.21002000  0.29461000  0.28218000  1.0 -0.1829723558
C  C364  1  0.78998000  0.70539000  0.28218000  1.0 -0.1829723558
C  C365  1  0.70539000  0.28218000  0.78998000  1.0 -0.1829723558
C  C366  1  0.29461000  0.28218000  0.21002000  1.0 -0.1829723558
C  C367  1  0.29461000  0.71782000  0.78998000  1.0 -0.1829723558
C  C368  1  0.70539000  0.71782000  0.21002000  1.0 -0.1829723558
C  C369  1  0.28218000  0.21002000  0.29461000  1.0 -0.1829723558
C  C370  1  0.28218000  0.78998000  0.70539000  1.0 -0.1829723558
C  C371  1  0.71782000  0.21002000  0.70539000  1.0 -0.1829723558
C  C372  1  0.71782000  0.78998000  0.29461000  1.0 -0.1829723558
C  C373  1  0.79461000  0.28998000  0.21782000  1.0 -0.1829723558
C  C374  1  0.20539000  0.71002000  0.21782000  1.0 -0.1829723558
C  C375  1  0.20539000  0.28998000  0.78218000  1.0 -0.1829723558
C  C376  1  0.79461000  0.71002000  0.78218000  1.0 -0.1829723558
C  C377  1  0.21782000  0.79461000  0.28998000  1.0 -0.1829723558
C  C378  1  0.21782000  0.20539000  0.71002000  1.0 -0.1829723558
C  C379  1  0.78218000  0.20539000  0.28998000  1.0 -0.1829723558
C  C380  1  0.78218000  0.79461000  0.71002000  1.0 -0.1829723558
C  C381  1  0.28998000  0.21782000  0.79461000  1.0 -0.1829723558
C  C382  1  0.71002000  0.21782000  0.20539000  1.0 -0.1829723558
C  C383  1  0.28998000  0.78218000  0.20539000  1.0 -0.1829723558
C  C384  1  0.71002000  0.78218000  0.79461000  1.0 -0.1829723558
C  C385  1  0.78998000  0.29461000  0.28218000  1.0 -0.1829723558
C  C386  1  0.21002000  0.70539000  0.28218000  1.0 -0.1829723558
C  C387  1  0.78998000  0.70539000  0.71782000  1.0 -0.1829723558
C  C388  1  0.21002000  0.29461000  0.71782000  1.0 -0.1829723558
C  C389  1  0.29461000  0.71782000  0.21002000  1.0 -0.1829723558
C  C390  1  0.70539000  0.71782000  0.78998000  1.0 -0.1829723558
C  C391  1  0.70539000  0.28218000  0.21002000  1.0 -0.1829723558
C  C392  1  0.29461000  0.28218000  0.78998000  1.0 -0.1829723558
C  C393  1  0.71782000  0.78998000  0.70539000  1.0 -0.1829723558
C  C394  1  0.71782000  0.21002000  0.29461000  1.0 -0.1829723558
C  C395  1  0.28218000  0.78998000  0.29461000  1.0 -0.1829723558
C  C396  1  0.28218000  0.21002000  0.70539000  1.0 -0.1829723558
C  C397  1  0.22125000  0.72125000  0.75000000  1.0 0.1413271143
C  C398  1  0.77875000  0.27875000  0.75000000  1.0 0.1413271143
C  C399  1  0.77875000  0.72125000  0.25000000  1.0 0.1413271143
C  C400  1  0.22125000  0.27875000  0.25000000  1.0 0.1413271143
C  C401  1  0.75000000  0.22125000  0.72125000  1.0 0.1413271143
C  C402  1  0.75000000  0.77875000  0.27875000  1.0 0.1413271143
C  C403  1  0.25000000  0.77875000  0.72125000  1.0 0.1413271143
C  C404  1  0.25000000  0.22125000  0.27875000  1.0 0.1413271143
C  C405  1  0.72125000  0.75000000  0.22125000  1.0 0.1413271143
C  C406  1  0.27875000  0.75000000  0.77875000  1.0 0.1413271143
C  C407  1  0.72125000  0.25000000  0.77875000  1.0 0.1413271143
C  C408  1  0.27875000  0.25000000  0.22125000  1.0 0.1413271143
C  C409  1  0.77875000  0.27875000  0.25000000  1.0 0.1413271143
C  C410  1  0.22125000  0.72125000  0.25000000  1.0 0.1413271143
C  C411  1  0.22125000  0.27875000  0.75000000  1.0 0.1413271143
C  C412  1  0.77875000  0.72125000  0.75000000  1.0 0.1413271143
C  C413  1  0.25000000  0.77875000  0.27875000  1.0 0.1413271143
C  C414  1  0.25000000  0.22125000  0.72125000  1.0 0.1413271143
C  C415  1  0.75000000  0.22125000  0.27875000  1.0 0.1413271143
C  C416  1  0.75000000  0.77875000  0.72125000  1.0 0.1413271143
C  C417  1  0.27875000  0.25000000  0.77875000  1.0 0.1413271143
C  C418  1  0.72125000  0.25000000  0.22125000  1.0 0.1413271143
C  C419  1  0.27875000  0.75000000  0.22125000  1.0 0.1413271143
C  C420  1  0.72125000  0.75000000  0.77875000  1.0 0.1413271143
N  N1  1  0.00000000  0.50000000  0.65282000  1.0 -0.25422396
N  N2  1  0.00000000  0.50000000  0.34718000  1.0 -0.25422396
N  N3  1  0.65282000  0.00000000  0.50000000  1.0 -0.25422396
N  N4  1  0.34718000  0.00000000  0.50000000  1.0 -0.25422396
N  N5  1  0.50000000  0.65282000  0.00000000  1.0 -0.25422396
N  N6  1  0.50000000  0.34718000  0.00000000  1.0 -0.25422396
N  N7  1  0.00000000  0.50000000  0.84718000  1.0 -0.25422396
N  N8  1  0.00000000  0.50000000  0.15282000  1.0 -0.25422396
N  N9  1  0.50000000  0.15282000  0.00000000  1.0 -0.25422396
N  N10  1  0.50000000  0.84718000  0.00000000  1.0 -0.25422396
N  N11  1  0.15282000  0.00000000  0.50000000  1.0 -0.25422396
N  N12  1  0.84718000  0.00000000  0.50000000  1.0 -0.25422396
N  N13  1  0.06430000  0.50000000  0.53630000  1.0 -0.0368678823
N  N14  1  0.93570000  0.50000000  0.53630000  1.0 -0.031061757
N  N15  1  0.93570000  0.50000000  0.46370000  1.0 -0.031061757
N  N16  1  0.06430000  0.50000000  0.46370000  1.0 -0.0368678823
N  N17  1  0.53630000  0.06430000  0.50000000  1.0 -0.031061757
N  N18  1  0.53630000  0.93570000  0.50000000  1.0 -0.031061757
N  N19  1  0.46370000  0.93570000  0.50000000  1.0 -0.031061757
N  N20  1  0.46370000  0.06430000  0.50000000  1.0 -0.031061757
N  N21  1  0.50000000  0.53630000  0.06430000  1.0 -0.0368678823
N  N22  1  0.50000000  0.53630000  0.93570000  1.0 -0.031061757
N  N23  1  0.50000000  0.46370000  0.93570000  1.0 -0.031061757
N  N24  1  0.50000000  0.46370000  0.06430000  1.0 -0.0368678823
N  N25  1  0.00000000  0.56430000  0.96370000  1.0 -0.0368678823
N  N26  1  0.00000000  0.43570000  0.96370000  1.0 -0.031061757
N  N27  1  0.00000000  0.43570000  0.03630000  1.0 -0.031061757
N  N28  1  0.00000000  0.56430000  0.03630000  1.0 -0.0368678823
N  N29  1  0.56430000  0.03630000  0.00000000  1.0 -0.031061757
N  N30  1  0.43570000  0.03630000  0.00000000  1.0 -0.031061757
N  N31  1  0.43570000  0.96370000  0.00000000  1.0 -0.031061757
N  N32  1  0.56430000  0.96370000  0.00000000  1.0 -0.0368678823
N  N33  1  0.03630000  0.00000000  0.43570000  1.0 -0.031061757
N  N34  1  0.03630000  0.00000000  0.56430000  1.0 -0.031061757
N  N35  1  0.96370000  0.00000000  0.56430000  1.0 -0.0368678823
N  N36  1  0.96370000  0.00000000  0.43570000  1.0 -0.031061757
N  N37  1  0.25000000  0.75000000  0.75000000  1.0 -0.1829723558
N  N38  1  0.75000000  0.25000000  0.75000000  1.0 -0.1829723558
N  N39  1  0.75000000  0.75000000  0.25000000  1.0 -0.1829723558
N  N40  1  0.25000000  0.25000000  0.25000000  1.0 -0.1829723558
N  N41  1  0.75000000  0.25000000  0.25000000  1.0 -0.1852316458
N  N42  1  0.25000000  0.75000000  0.25000000  1.0 -0.1829723558
N  N43  1  0.25000000  0.25000000  0.75000000  1.0 -0.1829723558
N  N44  1  0.75000000  0.75000000  0.75000000  1.0 -0.1829723558
O  O1  1  0.03881000  0.53873000  0.71846000  1.0 -0.5129572835
O  O2  1  0.96119000  0.46127000  0.71846000  1.0 -0.5129572835
O  O3  1  0.96119000  0.53873000  0.28154000  1.0 -0.5129572835
O  O4  1  0.03881000  0.46127000  0.28154000  1.0 -0.5129572835
O  O5  1  0.71846000  0.03881000  0.53873000  1.0 -0.5129572835
O  O6  1  0.71846000  0.96119000  0.46127000  1.0 -0.5129572835
O  O7  1  0.28154000  0.96119000  0.53873000  1.0 -0.5129572835
O  O8  1  0.28154000  0.03881000  0.46127000  1.0 -0.5129572835
O  O9  1  0.53873000  0.71846000  0.03881000  1.0 -0.5129572835
O  O10  1  0.46127000  0.71846000  0.96119000  1.0 -0.5129572835
O  O11  1  0.53873000  0.28154000  0.96119000  1.0 -0.5129572835
O  O12  1  0.46127000  0.28154000  0.03881000  1.0 -0.5129572835
O  O13  1  0.03873000  0.53881000  0.78154000  1.0 -0.5129572835
O  O14  1  0.96127000  0.46119000  0.78154000  1.0 -0.5129572835
O  O15  1  0.03873000  0.46119000  0.21846000  1.0 -0.5129572835
O  O16  1  0.96127000  0.53881000  0.21846000  1.0 -0.5129572835
O  O17  1  0.53881000  0.21846000  0.96127000  1.0 -0.5129572835
O  O18  1  0.46119000  0.21846000  0.03873000  1.0 -0.5129572835
O  O19  1  0.46119000  0.78154000  0.96127000  1.0 -0.5129572835
O  O20  1  0.53881000  0.78154000  0.03873000  1.0 -0.5129572835
O  O21  1  0.21846000  0.03873000  0.46119000  1.0 -0.5129572835
O  O22  1  0.21846000  0.96127000  0.53881000  1.0 -0.5129572835
O  O23  1  0.78154000  0.03873000  0.53881000  1.0 -0.5129572835
O  O24  1  0.78154000  0.96127000  0.46119000  1.0 -0.5129572835
O  O25  1  0.96119000  0.46127000  0.28154000  1.0 -0.5129572835
O  O26  1  0.03881000  0.53873000  0.28154000  1.0 -0.5129572835
O  O27  1  0.03881000  0.46127000  0.71846000  1.0 -0.5129572835
O  O28  1  0.96119000  0.53873000  0.71846000  1.0 -0.5129572835
O  O29  1  0.28154000  0.96119000  0.46127000  1.0 -0.5129572835
O  O30  1  0.28154000  0.03881000  0.53873000  1.0 -0.5129572835
O  O31  1  0.71846000  0.03881000  0.46127000  1.0 -0.5129572835
O  O32  1  0.71846000  0.96119000  0.53873000  1.0 -0.5129572835
O  O33  1  0.46127000  0.28154000  0.96119000  1.0 -0.5129572835
O  O34  1  0.53873000  0.28154000  0.03881000  1.0 -0.5129572835
O  O35  1  0.46127000  0.71846000  0.03881000  1.0 -0.5129572835
O  O36  1  0.53873000  0.71846000  0.96119000  1.0 -0.5129572835
O  O37  1  0.96127000  0.46119000  0.21846000  1.0 -0.5129572835
O  O38  1  0.03873000  0.53881000  0.21846000  1.0 -0.5129572835
O  O39  1  0.96127000  0.53881000  0.78154000  1.0 -0.5129572835
O  O40  1  0.03873000  0.46119000  0.78154000  1.0 -0.5129572835
O  O41  1  0.46119000  0.78154000  0.03873000  1.0 -0.5129572835
O  O42  1  0.53881000  0.78154000  0.96127000  1.0 -0.5129572835
O  O43  1  0.53881000  0.21846000  0.03873000  1.0 -0.5129572835
O  O44  1  0.46119000  0.21846000  0.96127000  1.0 -0.5129572835
O  O45  1  0.78154000  0.96127000  0.53881000  1.0 -0.5129572835
O  O46  1  0.78154000  0.03873000  0.46119000  1.0 -0.5129572835
O  O47  1  0.21846000  0.96127000  0.46119000  1.0 -0.5129572835
O  O48  1  0.21846000  0.03873000  0.53881000  1.0 -0.5129572835
O  O49  1  0.00000000  0.50000000  0.53822000  1.0 -0.0519276263
O  O50  1  0.00000000  0.50000000  0.46178000  1.0 -0.0519276263
O  O51  1  0.53822000  0.00000000  0.50000000  1.0 -0.0519276263
O  O52  1  0.46178000  0.00000000  0.50000000  1.0 -0.0519276263
O  O53  1  0.50000000  0.53822000  0.00000000  1.0 -0.0519276263
O  O54  1  0.50000000  0.46178000  0.00000000  1.0 -0.0519276263
O  O55  1  0.00000000  0.50000000  0.96178000  1.0 -0.0519276263
O  O56  1  0.00000000  0.50000000  0.03822000  1.0 -0.0519276263
O  O57  1  0.50000000  0.03822000  0.00000000  1.0 -0.0519276263
O  O58  1  0.50000000  0.96178000  0.00000000  1.0 -0.0519276263
O  O59  1  0.03822000  0.00000000  0.50000000  1.0 -0.0519276263
O  O60  1  0.96178000  0.00000000  0.50000000  1.0 -0.0519276263
