# DDEC6 charges by PACMAN v1.1 (https://github.com/mtap-research/PACMAN-charge/)
data_AVETOM_ASR_pacman
_symmetry_space_group_name_H-M   'P 1'
_cell_length_a   11.84540000
_cell_length_b   28.39350000
_cell_length_c   34.53640000
_cell_angle_alpha   90.00000000
_cell_angle_beta   90.00000000
_cell_angle_gamma   90.00000000
_symmetry_Int_Tables_number   1
_chemical_formula_structural   Ni5H30C52(NO3)7
_chemical_formula_sum   'Ni40 H240 C416 N56 O168'
_cell_volume   11615.70908713
_cell_formula_units_Z   8
loop_
 _symmetry_equiv_pos_site_id
 _symmetry_equiv_pos_as_xyz
  1  'x, y, z'
loop_
 _atom_site_type_symbol
 _atom_site_label
 _atom_site_symmetry_multiplicity
 _atom_site_fract_x
 _atom_site_fract_y
 _atom_site_fract_z
 _atom_site_occupancy
 _atom_site_charge
Ni  Ni1  1  0.75000000  0.50000000  0.07905000  1.0 1.1538193345
Ni  Ni2  1  0.25000000  0.50000000  0.92095000  1.0 1.1538193345
Ni  Ni3  1  0.25000000  0.50000000  0.42095000  1.0 1.1538193345
Ni  Ni4  1  0.75000000  0.50000000  0.57905000  1.0 1.1538193345
Ni  Ni5  1  0.25000000  0.00000000  0.07905000  1.0 1.1538193345
Ni  Ni6  1  0.75000000  0.00000000  0.92095000  1.0 1.1538193345
Ni  Ni7  1  0.75000000  0.00000000  0.42095000  1.0 1.1538193345
Ni  Ni8  1  0.25000000  0.00000000  0.57905000  1.0 1.1538193345
Ni  Ni9  1  0.75000000  0.50000000  0.16915000  1.0 1.0446888923
Ni  Ni10  1  0.25000000  0.50000000  0.83085000  1.0 1.0452488184
Ni  Ni11  1  0.25000000  0.50000000  0.33085000  1.0 1.0446888923
Ni  Ni12  1  0.75000000  0.50000000  0.66915000  1.0 1.0446888923
Ni  Ni13  1  0.25000000  0.00000000  0.16915000  1.0 1.0446888923
Ni  Ni14  1  0.75000000  0.00000000  0.83085000  1.0 1.0452488184
Ni  Ni15  1  0.75000000  0.00000000  0.33085000  1.0 1.0446888923
Ni  Ni16  1  0.25000000  0.00000000  0.66915000  1.0 1.0452488184
Ni  Ni17  1  0.78409000  0.39016000  0.12747000  1.0 1.0112994507
Ni  Ni18  1  0.21591000  0.60984000  0.87253000  1.0 1.0112994507
Ni  Ni19  1  0.71591000  0.60984000  0.12747000  1.0 1.0112994507
Ni  Ni20  1  0.28409000  0.39016000  0.87253000  1.0 1.0112994507
Ni  Ni21  1  0.21591000  0.39016000  0.37253000  1.0 1.0112994507
Ni  Ni22  1  0.78409000  0.60984000  0.62747000  1.0 1.0112994507
Ni  Ni23  1  0.28409000  0.60984000  0.37253000  1.0 1.0112994507
Ni  Ni24  1  0.71591000  0.39016000  0.62747000  1.0 1.0112994507
Ni  Ni25  1  0.28409000  0.89016000  0.12747000  1.0 1.0112994507
Ni  Ni26  1  0.71591000  0.10984000  0.87253000  1.0 1.0112994507
Ni  Ni27  1  0.21591000  0.10984000  0.12747000  1.0 1.0112994507
Ni  Ni28  1  0.78409000  0.89016000  0.87253000  1.0 1.0112994507
Ni  Ni29  1  0.71591000  0.89016000  0.37253000  1.0 1.0112994507
Ni  Ni30  1  0.28409000  0.10984000  0.62747000  1.0 1.0112994507
Ni  Ni31  1  0.78409000  0.10984000  0.37253000  1.0 1.0112994507
Ni  Ni32  1  0.21591000  0.89016000  0.62747000  1.0 1.0112994507
Ni  Ni33  1  0.75000000  0.00000000  0.08558000  1.0 0.2483309664
Ni  Ni34  1  0.25000000  0.00000000  0.91442000  1.0 0.2483309664
Ni  Ni35  1  0.25000000  0.00000000  0.41442000  1.0 0.2483309664
Ni  Ni36  1  0.75000000  0.00000000  0.58558000  1.0 0.2483309664
Ni  Ni37  1  0.25000000  0.50000000  0.08558000  1.0 0.2483309664
Ni  Ni38  1  0.75000000  0.50000000  0.91442000  1.0 0.2483309664
Ni  Ni39  1  0.75000000  0.50000000  0.41442000  1.0 0.2483309664
Ni  Ni40  1  0.25000000  0.50000000  0.58558000  1.0 0.2483309664
H  H1  1  0.40706000  0.68796000  0.92785000  1.0 0.3428935527
H  H2  1  0.59294000  0.31204000  0.07215000  1.0 0.3428935527
H  H3  1  0.09294000  0.31204000  0.92785000  1.0 0.3428935527
H  H4  1  0.90706000  0.68796000  0.07215000  1.0 0.3428935527
H  H5  1  0.59294000  0.68796000  0.57215000  1.0 0.3428935527
H  H6  1  0.40706000  0.31204000  0.42785000  1.0 0.3428935527
H  H7  1  0.90706000  0.31204000  0.57215000  1.0 0.3428935527
H  H8  1  0.09294000  0.68796000  0.42785000  1.0 0.3428935527
H  H9  1  0.90706000  0.18796000  0.92785000  1.0 0.3428935527
H  H10  1  0.09294000  0.81204000  0.07215000  1.0 0.3428935527
H  H11  1  0.59294000  0.81204000  0.92785000  1.0 0.3428935527
H  H12  1  0.40706000  0.18796000  0.07215000  1.0 0.3428935527
H  H13  1  0.09294000  0.18796000  0.57215000  1.0 0.3428935527
H  H14  1  0.90706000  0.81204000  0.42785000  1.0 0.3428935527
H  H15  1  0.40706000  0.81204000  0.57215000  1.0 0.3428935527
H  H16  1  0.59294000  0.18796000  0.42785000  1.0 0.3428935527
H  H17  1  0.62871000  0.68503000  0.04254000  1.0 0.1851864576
H  H18  1  0.37129000  0.31497000  0.95746000  1.0 0.1836620378
H  H19  1  0.87129000  0.31497000  0.04254000  1.0 0.1851864576
H  H20  1  0.12871000  0.68503000  0.95746000  1.0 0.1836620378
H  H21  1  0.37129000  0.68503000  0.45746000  1.0 0.1836620378
H  H22  1  0.62871000  0.31497000  0.54254000  1.0 0.1836620378
H  H23  1  0.12871000  0.31497000  0.45746000  1.0 0.1836620378
H  H24  1  0.87129000  0.68503000  0.54254000  1.0 0.1836620378
H  H25  1  0.12871000  0.18503000  0.04254000  1.0 0.1836620378
H  H26  1  0.87129000  0.81497000  0.95746000  1.0 0.1836620378
H  H27  1  0.37129000  0.81497000  0.04254000  1.0 0.1836620378
H  H28  1  0.62871000  0.18503000  0.95746000  1.0 0.1836620378
H  H29  1  0.87129000  0.18503000  0.45746000  1.0 0.1851864576
H  H30  1  0.12871000  0.81497000  0.54254000  1.0 0.1836620378
H  H31  1  0.62871000  0.81497000  0.45746000  1.0 0.1836620378
H  H32  1  0.37129000  0.18503000  0.54254000  1.0 0.1836620378
H  H33  1  0.53789000  0.54212000  0.97856000  1.0 0.3279530716
H  H34  1  0.46211000  0.45788000  0.02144000  1.0 0.3279530716
H  H35  1  0.96211000  0.45788000  0.97856000  1.0 0.3279530716
H  H36  1  0.03789000  0.54212000  0.02144000  1.0 0.3244303882
H  H37  1  0.46211000  0.54212000  0.52144000  1.0 0.3279530716
H  H38  1  0.53789000  0.45788000  0.47856000  1.0 0.3279530716
H  H39  1  0.03789000  0.45788000  0.52144000  1.0 0.3244303882
H  H40  1  0.96211000  0.54212000  0.47856000  1.0 0.3279530716
H  H41  1  0.03789000  0.04212000  0.97856000  1.0 0.3244303882
H  H42  1  0.96211000  0.95788000  0.02144000  1.0 0.3279530716
H  H43  1  0.46211000  0.95788000  0.97856000  1.0 0.3279530716
H  H44  1  0.53789000  0.04212000  0.02144000  1.0 0.3279530716
H  H45  1  0.96211000  0.04212000  0.52144000  1.0 0.3279530716
H  H46  1  0.03789000  0.95788000  0.47856000  1.0 0.3244303882
H  H47  1  0.53789000  0.95788000  0.52144000  1.0 0.3279530716
H  H48  1  0.46211000  0.04212000  0.47856000  1.0 0.3279530716
H  H49  1  0.86847000  0.45299000  0.28045000  1.0 0.2436198954
H  H50  1  0.13153000  0.54701000  0.71955000  1.0 0.2436198954
H  H51  1  0.63153000  0.54701000  0.28045000  1.0 0.2436198954
H  H52  1  0.36847000  0.45299000  0.71955000  1.0 0.2436198954
H  H53  1  0.13153000  0.45299000  0.21955000  1.0 0.2436198954
H  H54  1  0.86847000  0.54701000  0.78045000  1.0 0.2436198954
H  H55  1  0.36847000  0.54701000  0.21955000  1.0 0.2436198954
H  H56  1  0.63153000  0.45299000  0.78045000  1.0 0.2436198954
H  H57  1  0.36847000  0.95299000  0.28045000  1.0 0.2436198954
H  H58  1  0.63153000  0.04701000  0.71955000  1.0 0.2436198954
H  H59  1  0.13153000  0.04701000  0.28045000  1.0 0.2436198954
H  H60  1  0.86847000  0.95299000  0.71955000  1.0 0.2436198954
H  H61  1  0.63153000  0.95299000  0.21955000  1.0 0.2436198954
H  H62  1  0.36847000  0.04701000  0.78045000  1.0 0.2436198954
H  H63  1  0.86847000  0.04701000  0.21955000  1.0 0.2436198954
H  H64  1  0.13153000  0.95299000  0.78045000  1.0 0.2436198954
H  H65  1  0.95982000  0.30192000  0.32938000  1.0 0.4372937519
H  H66  1  0.04018000  0.69808000  0.67062000  1.0 0.4372937519
H  H67  1  0.54018000  0.69808000  0.32938000  1.0 0.4372937519
H  H68  1  0.45982000  0.30192000  0.67062000  1.0 0.4372937519
H  H69  1  0.04018000  0.30192000  0.17062000  1.0 0.4372937519
H  H70  1  0.95982000  0.69808000  0.82938000  1.0 0.4372937519
H  H71  1  0.45982000  0.69808000  0.17062000  1.0 0.4372937519
H  H72  1  0.54018000  0.30192000  0.82938000  1.0 0.4372937519
H  H73  1  0.45982000  0.80192000  0.32938000  1.0 0.4372937519
H  H74  1  0.54018000  0.19808000  0.67062000  1.0 0.4372937519
H  H75  1  0.04018000  0.19808000  0.32938000  1.0 0.4372937519
H  H76  1  0.95982000  0.80192000  0.67062000  1.0 0.4372937519
H  H77  1  0.54018000  0.80192000  0.17062000  1.0 0.4372937519
H  H78  1  0.45982000  0.19808000  0.82938000  1.0 0.4372937519
H  H79  1  0.95982000  0.19808000  0.17062000  1.0 0.4372937519
H  H80  1  0.04018000  0.80192000  0.82938000  1.0 0.4372937519
H  H81  1  0.76582000  0.31685000  0.21025000  1.0 0.3279530716
H  H82  1  0.23418000  0.68315000  0.78975000  1.0 0.3279530716
H  H83  1  0.73418000  0.68315000  0.21025000  1.0 0.3279530716
H  H84  1  0.26582000  0.31685000  0.78975000  1.0 0.3279530716
H  H85  1  0.23418000  0.31685000  0.28975000  1.0 0.3279530716
H  H86  1  0.76582000  0.68315000  0.71025000  1.0 0.3279530716
H  H87  1  0.26582000  0.68315000  0.28975000  1.0 0.3279530716
H  H88  1  0.73418000  0.31685000  0.71025000  1.0 0.3279530716
H  H89  1  0.26582000  0.81685000  0.21025000  1.0 0.3279530716
H  H90  1  0.73418000  0.18315000  0.78975000  1.0 0.3279530716
H  H91  1  0.23418000  0.18315000  0.21025000  1.0 0.3279530716
H  H92  1  0.76582000  0.81685000  0.78975000  1.0 0.3279530716
H  H93  1  0.73418000  0.81685000  0.28975000  1.0 0.3279530716
H  H94  1  0.26582000  0.18315000  0.71025000  1.0 0.3279530716
H  H95  1  0.76582000  0.18315000  0.28975000  1.0 0.3279530716
H  H96  1  0.23418000  0.81685000  0.71025000  1.0 0.3279530716
H  H97  1  0.94432000  0.31617000  0.09997000  1.0 0.4667573802
H  H98  1  0.05568000  0.68383000  0.90003000  1.0 0.4667573802
H  H99  1  0.55568000  0.68383000  0.09997000  1.0 0.4667573802
H  H100  1  0.44432000  0.31617000  0.90003000  1.0 0.4667573802
H  H101  1  0.05568000  0.31617000  0.40003000  1.0 0.4667573802
H  H102  1  0.94432000  0.68383000  0.59997000  1.0 0.4667573802
H  H103  1  0.44432000  0.68383000  0.40003000  1.0 0.4667573802
H  H104  1  0.55568000  0.31617000  0.59997000  1.0 0.4667573802
H  H105  1  0.44432000  0.81617000  0.09997000  1.0 0.4667573802
H  H106  1  0.55568000  0.18383000  0.90003000  1.0 0.4667573802
H  H107  1  0.05568000  0.18383000  0.09997000  1.0 0.4667573802
H  H108  1  0.94432000  0.81617000  0.90003000  1.0 0.4667573802
H  H109  1  0.55568000  0.81617000  0.40003000  1.0 0.4667573802
H  H110  1  0.44432000  0.18383000  0.59997000  1.0 0.4667573802
H  H111  1  0.94432000  0.18383000  0.40003000  1.0 0.4667573802
H  H112  1  0.05568000  0.81617000  0.59997000  1.0 0.4667573802
H  H113  1  0.93002000  0.22286000  0.08468000  1.0 0.3101754102
H  H114  1  0.06998000  0.77714000  0.91532000  1.0 0.3101754102
H  H115  1  0.56998000  0.77714000  0.08468000  1.0 0.3101754102
H  H116  1  0.43002000  0.22286000  0.91532000  1.0 0.3101754102
H  H117  1  0.06998000  0.22286000  0.41532000  1.0 0.3101754102
H  H118  1  0.93002000  0.77714000  0.58468000  1.0 0.3101754102
H  H119  1  0.43002000  0.77714000  0.41532000  1.0 0.3101754102
H  H120  1  0.56998000  0.22286000  0.58468000  1.0 0.3101754102
H  H121  1  0.43002000  0.72286000  0.08468000  1.0 0.3101754102
H  H122  1  0.56998000  0.27714000  0.91532000  1.0 0.3101754102
H  H123  1  0.06998000  0.27714000  0.08468000  1.0 0.3101754102
H  H124  1  0.93002000  0.72286000  0.91532000  1.0 0.3101754102
H  H125  1  0.56998000  0.72286000  0.41532000  1.0 0.3101754102
H  H126  1  0.43002000  0.27714000  0.58468000  1.0 0.3101754102
H  H127  1  0.93002000  0.27714000  0.41532000  1.0 0.3101754102
H  H128  1  0.06998000  0.72286000  0.58468000  1.0 0.3101754102
H  H129  1  0.56886000  0.22321000  0.14312000  1.0 0.0225694288
H  H130  1  0.43114000  0.77679000  0.85688000  1.0 0.0225694288
H  H131  1  0.93114000  0.77679000  0.14312000  1.0 0.0225694288
H  H132  1  0.06886000  0.22321000  0.85688000  1.0 0.0225694288
H  H133  1  0.43114000  0.22321000  0.35688000  1.0 0.0225694288
H  H134  1  0.56886000  0.77679000  0.64312000  1.0 0.0267468274
H  H135  1  0.06886000  0.77679000  0.35688000  1.0 0.0225694288
H  H136  1  0.93114000  0.22321000  0.64312000  1.0 0.0267468274
H  H137  1  0.06886000  0.72321000  0.14312000  1.0 0.0225694288
H  H138  1  0.93114000  0.27679000  0.85688000  1.0 0.0267468274
H  H139  1  0.43114000  0.27679000  0.14312000  1.0 0.0225694288
H  H140  1  0.56886000  0.72321000  0.85688000  1.0 0.0225694288
H  H141  1  0.93114000  0.72321000  0.35688000  1.0 0.0267468274
H  H142  1  0.06886000  0.27679000  0.64312000  1.0 0.0225694288
H  H143  1  0.56886000  0.27679000  0.35688000  1.0 0.0225694288
H  H144  1  0.43114000  0.72321000  0.64312000  1.0 0.0267468274
H  H145  1  0.59247000  0.31708000  0.15482000  1.0 0.1336372185
H  H146  1  0.40753000  0.68292000  0.84518000  1.0 0.1336372185
H  H147  1  0.90753000  0.68292000  0.15482000  1.0 0.1360772576
H  H148  1  0.09247000  0.31708000  0.84518000  1.0 0.1336372185
H  H149  1  0.40753000  0.31708000  0.34518000  1.0 0.1336372185
H  H150  1  0.59247000  0.68292000  0.65482000  1.0 0.1336372185
H  H151  1  0.09247000  0.68292000  0.34518000  1.0 0.1336372185
H  H152  1  0.90753000  0.31708000  0.65482000  1.0 0.1336372185
H  H153  1  0.09247000  0.81708000  0.15482000  1.0 0.1336372185
H  H154  1  0.90753000  0.18292000  0.84518000  1.0 0.1336372185
H  H155  1  0.40753000  0.18292000  0.15482000  1.0 0.1336372185
H  H156  1  0.59247000  0.81708000  0.84518000  1.0 0.1336372185
H  H157  1  0.90753000  0.81708000  0.34518000  1.0 0.1336372185
H  H158  1  0.09247000  0.18292000  0.65482000  1.0 0.1336372185
H  H159  1  0.59247000  0.18292000  0.34518000  1.0 0.1336372185
H  H160  1  0.40753000  0.81708000  0.65482000  1.0 0.1336372185
H  H161  1  0.61593000  0.15618000  0.15701000  1.0 0.1007451947
H  H162  1  0.38407000  0.84382000  0.84299000  1.0 0.1007451947
H  H163  1  0.88407000  0.84382000  0.15701000  1.0 0.1007451947
H  H164  1  0.11593000  0.15618000  0.84299000  1.0 0.1007451947
H  H165  1  0.38407000  0.15618000  0.34299000  1.0 0.1007451947
H  H166  1  0.61593000  0.84382000  0.65701000  1.0 0.1007451947
H  H167  1  0.11593000  0.84382000  0.34299000  1.0 0.1007451947
H  H168  1  0.88407000  0.15618000  0.65701000  1.0 0.1007451947
H  H169  1  0.11593000  0.65618000  0.15701000  1.0 0.1007451947
H  H170  1  0.88407000  0.34382000  0.84299000  1.0 0.1007451947
H  H171  1  0.38407000  0.34382000  0.15701000  1.0 0.1007451947
H  H172  1  0.61593000  0.65618000  0.84299000  1.0 0.1007451947
H  H173  1  0.88407000  0.65618000  0.34299000  1.0 0.1007451947
H  H174  1  0.11593000  0.34382000  0.65701000  1.0 0.1007451947
H  H175  1  0.61593000  0.34382000  0.34299000  1.0 0.1007451947
H  H176  1  0.38407000  0.65618000  0.65701000  1.0 0.1007451947
H  H177  1  0.60865000  0.06319000  0.14043000  1.0 0.1161210836
H  H178  1  0.39135000  0.93681000  0.85957000  1.0 0.1161210836
H  H179  1  0.89135000  0.93681000  0.14043000  1.0 0.1161210836
H  H180  1  0.10865000  0.06319000  0.85957000  1.0 0.1161210836
H  H181  1  0.39135000  0.06319000  0.35957000  1.0 0.1161210836
H  H182  1  0.60865000  0.93681000  0.64043000  1.0 0.1161210836
H  H183  1  0.10865000  0.93681000  0.35957000  1.0 0.1161210836
H  H184  1  0.89135000  0.06319000  0.64043000  1.0 0.1161210836
H  H185  1  0.10865000  0.56319000  0.14043000  1.0 0.1161210836
H  H186  1  0.89135000  0.43681000  0.85957000  1.0 0.1161210836
H  H187  1  0.39135000  0.43681000  0.14043000  1.0 0.1161210836
H  H188  1  0.60865000  0.56319000  0.85957000  1.0 0.1161210836
H  H189  1  0.89135000  0.56319000  0.35957000  1.0 0.1161210836
H  H190  1  0.10865000  0.43681000  0.64043000  1.0 0.1161210836
H  H191  1  0.60865000  0.43681000  0.35957000  1.0 0.1161210836
H  H192  1  0.39135000  0.56319000  0.64043000  1.0 0.1161210836
H  H193  1  0.84251000  0.08280000  0.03545000  1.0 0.1360772576
H  H194  1  0.15749000  0.91720000  0.96455000  1.0 0.1336372185
H  H195  1  0.65749000  0.91720000  0.03545000  1.0 0.1360772576
H  H196  1  0.34251000  0.08280000  0.96455000  1.0 0.1360772576
H  H197  1  0.15749000  0.08280000  0.46455000  1.0 0.1360772576
H  H198  1  0.84251000  0.91720000  0.53545000  1.0 0.1360772576
H  H199  1  0.34251000  0.91720000  0.46455000  1.0 0.1360772576
H  H200  1  0.65749000  0.08280000  0.53545000  1.0 0.1360772576
H  H201  1  0.34251000  0.58280000  0.03545000  1.0 0.1360772576
H  H202  1  0.65749000  0.41720000  0.96455000  1.0 0.1360772576
H  H203  1  0.15749000  0.41720000  0.03545000  1.0 0.1360772576
H  H204  1  0.84251000  0.58280000  0.96455000  1.0 0.1360772576
H  H205  1  0.65749000  0.58280000  0.46455000  1.0 0.1360772576
H  H206  1  0.34251000  0.41720000  0.53545000  1.0 0.1360772576
H  H207  1  0.84251000  0.41720000  0.46455000  1.0 0.1360772576
H  H208  1  0.15749000  0.58280000  0.53545000  1.0 0.1360772576
H  H209  1  0.85359000  0.17663000  0.04790000  1.0 0.1007451947
H  H210  1  0.14641000  0.82337000  0.95210000  1.0 0.1007451947
H  H211  1  0.64641000  0.82337000  0.04790000  1.0 0.1007451947
H  H212  1  0.35359000  0.17663000  0.95210000  1.0 0.1007451947
H  H213  1  0.14641000  0.17663000  0.45210000  1.0 0.1007451947
H  H214  1  0.85359000  0.82337000  0.54790000  1.0 0.1007451947
H  H215  1  0.35359000  0.82337000  0.45210000  1.0 0.1007451947
H  H216  1  0.64641000  0.17663000  0.54790000  1.0 0.1007451947
H  H217  1  0.35359000  0.67663000  0.04790000  1.0 0.1007451947
H  H218  1  0.64641000  0.32337000  0.95210000  1.0 0.1007451947
H  H219  1  0.14641000  0.32337000  0.04790000  1.0 0.1007451947
H  H220  1  0.85359000  0.67663000  0.95210000  1.0 0.1007451947
H  H221  1  0.64641000  0.67663000  0.45210000  1.0 0.1007451947
H  H222  1  0.35359000  0.32337000  0.54790000  1.0 0.1007451947
H  H223  1  0.85359000  0.32337000  0.45210000  1.0 0.1007451947
H  H224  1  0.14641000  0.67663000  0.54790000  1.0 0.1007451947
H  H225  1  0.93752000  0.46176000  0.12959000  1.0 0.399743554
H  H226  1  0.06248000  0.53824000  0.87041000  1.0 0.399743554
H  H227  1  0.56248000  0.53824000  0.12959000  1.0 0.399743554
H  H228  1  0.43752000  0.46176000  0.87041000  1.0 0.399743554
H  H229  1  0.06248000  0.46176000  0.37041000  1.0 0.399743554
H  H230  1  0.93752000  0.53824000  0.62959000  1.0 0.399743554
H  H231  1  0.43752000  0.53824000  0.37041000  1.0 0.399743554
H  H232  1  0.56248000  0.46176000  0.62959000  1.0 0.399743554
H  H233  1  0.43752000  0.96176000  0.12959000  1.0 0.399743554
H  H234  1  0.56248000  0.03824000  0.87041000  1.0 0.399743554
H  H235  1  0.06248000  0.03824000  0.12959000  1.0 0.399743554
H  H236  1  0.93752000  0.96176000  0.87041000  1.0 0.399743554
H  H237  1  0.56248000  0.96176000  0.37041000  1.0 0.399743554
H  H238  1  0.43752000  0.03824000  0.62959000  1.0 0.399743554
H  H239  1  0.93752000  0.03824000  0.37041000  1.0 0.399743554
H  H240  1  0.06248000  0.96176000  0.62959000  1.0 0.399743554
C  C1  1  0.41071000  0.58576000  0.92232000  1.0 0.5889961839
C  C2  1  0.58929000  0.41424000  0.07768000  1.0 0.5889961839
C  C3  1  0.08929000  0.41424000  0.92232000  1.0 0.5889961839
C  C4  1  0.91071000  0.58576000  0.07768000  1.0 0.5889961839
C  C5  1  0.58929000  0.58576000  0.57768000  1.0 0.5889961839
C  C6  1  0.41071000  0.41424000  0.42232000  1.0 0.5889961839
C  C7  1  0.91071000  0.41424000  0.57768000  1.0 0.5889961839
C  C8  1  0.08929000  0.58576000  0.42232000  1.0 0.5889961839
C  C9  1  0.91071000  0.08576000  0.92232000  1.0 0.5889961839
C  C10  1  0.08929000  0.91424000  0.07768000  1.0 0.5889961839
C  C11  1  0.58929000  0.91424000  0.92232000  1.0 0.5889961839
C  C12  1  0.41071000  0.08576000  0.07768000  1.0 0.5889961839
C  C13  1  0.08929000  0.08576000  0.57768000  1.0 0.5889961839
C  C14  1  0.91071000  0.91424000  0.42232000  1.0 0.5889961839
C  C15  1  0.41071000  0.91424000  0.57768000  1.0 0.5889961839
C  C16  1  0.58929000  0.08576000  0.42232000  1.0 0.5889961839
C  C17  1  0.46374000  0.61312000  0.95256000  1.0 -0.2410315072
C  C18  1  0.53626000  0.38688000  0.04744000  1.0 -0.2410315072
C  C19  1  0.03626000  0.38688000  0.95256000  1.0 -0.2410315072
C  C20  1  0.96374000  0.61312000  0.04744000  1.0 -0.2410315072
C  C21  1  0.53626000  0.61312000  0.54744000  1.0 -0.2410315072
C  C22  1  0.46374000  0.38688000  0.45256000  1.0 -0.2410315072
C  C23  1  0.96374000  0.38688000  0.54744000  1.0 -0.2410315072
C  C24  1  0.03626000  0.61312000  0.45256000  1.0 -0.2410315072
C  C25  1  0.96374000  0.11312000  0.95256000  1.0 -0.2410315072
C  C26  1  0.03626000  0.88688000  0.04744000  1.0 -0.2410315072
C  C27  1  0.53626000  0.88688000  0.95256000  1.0 -0.2410315072
C  C28  1  0.46374000  0.11312000  0.04744000  1.0 -0.2410315072
C  C29  1  0.03626000  0.11312000  0.54744000  1.0 -0.2410315072
C  C30  1  0.96374000  0.88688000  0.45256000  1.0 -0.2410315072
C  C31  1  0.46374000  0.88688000  0.54744000  1.0 -0.2410315072
C  C32  1  0.53626000  0.11312000  0.45256000  1.0 -0.2410315072
C  C33  1  0.47648000  0.65806000  0.96410000  1.0 0.0267468274
C  C34  1  0.52352000  0.34194000  0.03590000  1.0 0.0267468274
C  C35  1  0.02352000  0.34194000  0.96410000  1.0 0.0267468274
C  C36  1  0.97648000  0.65806000  0.03590000  1.0 0.0267468274
C  C37  1  0.52352000  0.65806000  0.53590000  1.0 0.0267468274
C  C38  1  0.47648000  0.34194000  0.46410000  1.0 0.0267468274
C  C39  1  0.97648000  0.34194000  0.53590000  1.0 0.0267468274
C  C40  1  0.02352000  0.65806000  0.46410000  1.0 0.0267468274
C  C41  1  0.97648000  0.15806000  0.96410000  1.0 0.0267468274
C  C42  1  0.02352000  0.84194000  0.03590000  1.0 0.0267468274
C  C43  1  0.52352000  0.84194000  0.96410000  1.0 0.0267468274
C  C44  1  0.47648000  0.15806000  0.03590000  1.0 0.0267468274
C  C45  1  0.02352000  0.15806000  0.53590000  1.0 0.0267468274
C  C46  1  0.97648000  0.84194000  0.46410000  1.0 0.0267468274
C  C47  1  0.47648000  0.84194000  0.53590000  1.0 0.0267468274
C  C48  1  0.52352000  0.15806000  0.46410000  1.0 0.0267468274
C  C49  1  0.51190000  0.68534000  0.98336000  1.0 -0.1588266268
C  C50  1  0.48810000  0.31466000  0.01664000  1.0 -0.1588266268
C  C51  1  0.98810000  0.31466000  0.98336000  1.0 -0.1588266268
C  C52  1  0.01190000  0.68534000  0.01664000  1.0 -0.1588266268
C  C53  1  0.48810000  0.68534000  0.51664000  1.0 -0.1588266268
C  C54  1  0.51190000  0.31466000  0.48336000  1.0 -0.1588266268
C  C55  1  0.01190000  0.31466000  0.51664000  1.0 -0.1588266268
C  C56  1  0.98810000  0.68534000  0.48336000  1.0 -0.1588266268
C  C57  1  0.01190000  0.18534000  0.98336000  1.0 -0.1588266268
C  C58  1  0.98810000  0.81466000  0.01664000  1.0 -0.1518445291
C  C59  1  0.48810000  0.81466000  0.98336000  1.0 -0.1588266268
C  C60  1  0.51190000  0.18534000  0.01664000  1.0 -0.1588266268
C  C61  1  0.98810000  0.18534000  0.51664000  1.0 -0.1588266268
C  C62  1  0.01190000  0.81466000  0.48336000  1.0 -0.1588266268
C  C63  1  0.51190000  0.81466000  0.51664000  1.0 -0.1588266268
C  C64  1  0.48810000  0.18534000  0.48336000  1.0 -0.1588266268
C  C65  1  0.55840000  0.65761000  0.00674000  1.0 -0.0184272586
C  C66  1  0.44160000  0.34239000  0.99326000  1.0 -0.0184272586
C  C67  1  0.94160000  0.34239000  0.00674000  1.0 -0.0184272586
C  C68  1  0.05840000  0.65761000  0.99326000  1.0 -0.0184272586
C  C69  1  0.44160000  0.65761000  0.49326000  1.0 -0.0184272586
C  C70  1  0.55840000  0.34239000  0.50674000  1.0 -0.0184272586
C  C71  1  0.05840000  0.34239000  0.49326000  1.0 -0.0184272586
C  C72  1  0.94160000  0.65761000  0.50674000  1.0 -0.0184272586
C  C73  1  0.05840000  0.15761000  0.00674000  1.0 -0.0184272586
C  C74  1  0.94160000  0.84239000  0.99326000  1.0 -0.0184272586
C  C75  1  0.44160000  0.84239000  0.00674000  1.0 -0.0184272586
C  C76  1  0.55840000  0.15761000  0.99326000  1.0 -0.0184272586
C  C77  1  0.94160000  0.15761000  0.49326000  1.0 -0.0184272586
C  C78  1  0.05840000  0.84239000  0.50674000  1.0 -0.0184272586
C  C79  1  0.55840000  0.84239000  0.49326000  1.0 -0.0184272586
C  C80  1  0.44160000  0.15761000  0.50674000  1.0 -0.0184272586
C  C81  1  0.57902000  0.61333000  0.01139000  1.0 -0.1588266268
C  C82  1  0.42098000  0.38667000  0.98861000  1.0 -0.1588266268
C  C83  1  0.92098000  0.38667000  0.01139000  1.0 -0.1588266268
C  C84  1  0.07902000  0.61333000  0.98861000  1.0 -0.1588266268
C  C85  1  0.42098000  0.61333000  0.48861000  1.0 -0.1588266268
C  C86  1  0.57902000  0.38667000  0.51139000  1.0 -0.1588266268
C  C87  1  0.07902000  0.38667000  0.48861000  1.0 -0.1588266268
C  C88  1  0.92098000  0.61333000  0.51139000  1.0 -0.1588266268
C  C89  1  0.07902000  0.11333000  0.01139000  1.0 -0.1588266268
C  C90  1  0.92098000  0.88667000  0.98861000  1.0 -0.1588266268
C  C91  1  0.42098000  0.88667000  0.01139000  1.0 -0.1588266268
C  C92  1  0.57902000  0.11333000  0.98861000  1.0 -0.1588266268
C  C93  1  0.92098000  0.11333000  0.48861000  1.0 -0.1588266268
C  C94  1  0.07902000  0.88667000  0.51139000  1.0 -0.1588266268
C  C95  1  0.57902000  0.88667000  0.48861000  1.0 -0.1588266268
C  C96  1  0.42098000  0.11333000  0.51139000  1.0 -0.1588266268
C  C97  1  0.52395000  0.60268000  0.98354000  1.0 0.0019197993
C  C98  1  0.47605000  0.39732000  0.01646000  1.0 0.0019197993
C  C99  1  0.97605000  0.39732000  0.98354000  1.0 0.0019197993
C  C100  1  0.02395000  0.60268000  0.01646000  1.0 0.0019197993
C  C101  1  0.47605000  0.60268000  0.51646000  1.0 0.0019197993
C  C102  1  0.52395000  0.39732000  0.48354000  1.0 0.0019197993
C  C103  1  0.02395000  0.39732000  0.51646000  1.0 0.0019197993
C  C104  1  0.97605000  0.60268000  0.48354000  1.0 0.0019197993
C  C105  1  0.02395000  0.10268000  0.98354000  1.0 0.0019197993
C  C106  1  0.97605000  0.89732000  0.01646000  1.0 0.0019197993
C  C107  1  0.47605000  0.89732000  0.98354000  1.0 0.0019197993
C  C108  1  0.52395000  0.10268000  0.01646000  1.0 0.0019197993
C  C109  1  0.97605000  0.10268000  0.51646000  1.0 0.0019197993
C  C110  1  0.02395000  0.89732000  0.48354000  1.0 0.0019197993
C  C111  1  0.52395000  0.89732000  0.51646000  1.0 0.0019197993
C  C112  1  0.47605000  0.10268000  0.48354000  1.0 0.0019197993
C  C113  1  0.64500000  0.58788000  0.04205000  1.0 0.5889961839
C  C114  1  0.35500000  0.41212000  0.95795000  1.0 0.5889961839
C  C115  1  0.85500000  0.41212000  0.04205000  1.0 0.5889961839
C  C116  1  0.14500000  0.58788000  0.95795000  1.0 0.5889961839
C  C117  1  0.35500000  0.58788000  0.45795000  1.0 0.5889961839
C  C118  1  0.64500000  0.41212000  0.54205000  1.0 0.5889961839
C  C119  1  0.14500000  0.41212000  0.45795000  1.0 0.5889961839
C  C120  1  0.85500000  0.58788000  0.54205000  1.0 0.5889961839
C  C121  1  0.14500000  0.08788000  0.04205000  1.0 0.5889961839
C  C122  1  0.85500000  0.91212000  0.95795000  1.0 0.5889961839
C  C123  1  0.35500000  0.91212000  0.04205000  1.0 0.5889961839
C  C124  1  0.64500000  0.08788000  0.95795000  1.0 0.5889961839
C  C125  1  0.85500000  0.08788000  0.45795000  1.0 0.5889961839
C  C126  1  0.14500000  0.91212000  0.54205000  1.0 0.5889961839
C  C127  1  0.64500000  0.91212000  0.45795000  1.0 0.5889961839
C  C128  1  0.35500000  0.08788000  0.54205000  1.0 0.5889961839
C  C129  1  0.77767000  0.41189000  0.21132000  1.0 0.5664181568
C  C130  1  0.22233000  0.58811000  0.78868000  1.0 0.5664181568
C  C131  1  0.72233000  0.58811000  0.21132000  1.0 0.5664181568
C  C132  1  0.27767000  0.41189000  0.78868000  1.0 0.5664181568
C  C133  1  0.22233000  0.41189000  0.28868000  1.0 0.5664181568
C  C134  1  0.77767000  0.58811000  0.71132000  1.0 0.5664181568
C  C135  1  0.27767000  0.58811000  0.28868000  1.0 0.5664181568
C  C136  1  0.72233000  0.41189000  0.71132000  1.0 0.5664181568
C  C137  1  0.27767000  0.91189000  0.21132000  1.0 0.5664181568
C  C138  1  0.72233000  0.08811000  0.78868000  1.0 0.5664181568
C  C139  1  0.22233000  0.08811000  0.21132000  1.0 0.5664181568
C  C140  1  0.77767000  0.91189000  0.78868000  1.0 0.5664181568
C  C141  1  0.72233000  0.91189000  0.28868000  1.0 0.5664181568
C  C142  1  0.27767000  0.08811000  0.71132000  1.0 0.5664181568
C  C143  1  0.77767000  0.08811000  0.28868000  1.0 0.5664181568
C  C144  1  0.22233000  0.91189000  0.71132000  1.0 0.5664181568
C  C145  1  0.81803000  0.38515000  0.24466000  1.0 -0.1518445291
C  C146  1  0.18197000  0.61485000  0.75534000  1.0 -0.1518445291
C  C147  1  0.68197000  0.61485000  0.24466000  1.0 -0.1518445291
C  C148  1  0.31803000  0.38515000  0.75534000  1.0 -0.1518445291
C  C149  1  0.18197000  0.38515000  0.25534000  1.0 -0.1518445291
C  C150  1  0.81803000  0.61485000  0.74466000  1.0 -0.1518445291
C  C151  1  0.31803000  0.61485000  0.25534000  1.0 -0.1518445291
C  C152  1  0.68197000  0.38515000  0.74466000  1.0 -0.1518445291
C  C153  1  0.31803000  0.88515000  0.24466000  1.0 -0.1518445291
C  C154  1  0.68197000  0.11485000  0.75534000  1.0 -0.1518445291
C  C155  1  0.18197000  0.11485000  0.24466000  1.0 -0.1518445291
C  C156  1  0.81803000  0.88515000  0.75534000  1.0 -0.1518445291
C  C157  1  0.68197000  0.88515000  0.25534000  1.0 -0.1518445291
C  C158  1  0.31803000  0.11485000  0.74466000  1.0 -0.1518445291
C  C159  1  0.81803000  0.11485000  0.25534000  1.0 -0.1518445291
C  C160  1  0.18197000  0.88515000  0.74466000  1.0 -0.1518445291
C  C161  1  0.86612000  0.39334000  0.27611000  1.0 0.0225694288
C  C162  1  0.13388000  0.60666000  0.72389000  1.0 0.0225694288
C  C163  1  0.63388000  0.60666000  0.27611000  1.0 0.0225694288
C  C164  1  0.36612000  0.39334000  0.72389000  1.0 0.0225694288
C  C165  1  0.13388000  0.39334000  0.22389000  1.0 0.0225694288
C  C166  1  0.86612000  0.60666000  0.77611000  1.0 0.0225694288
C  C167  1  0.36612000  0.60666000  0.22389000  1.0 0.0225694288
C  C168  1  0.63388000  0.39334000  0.77611000  1.0 0.0225694288
C  C169  1  0.36612000  0.89334000  0.27611000  1.0 0.0225694288
C  C170  1  0.63388000  0.10666000  0.72389000  1.0 0.0225694288
C  C171  1  0.13388000  0.10666000  0.27611000  1.0 0.0225694288
C  C172  1  0.86612000  0.89334000  0.72389000  1.0 0.0225694288
C  C173  1  0.63388000  0.89334000  0.22389000  1.0 0.0225694288
C  C174  1  0.36612000  0.10666000  0.77611000  1.0 0.0225694288
C  C175  1  0.86612000  0.10666000  0.22389000  1.0 0.0225694288
C  C176  1  0.13388000  0.89334000  0.77611000  1.0 0.0225694288
C  C177  1  0.91529000  0.37739000  0.30568000  1.0 -0.1588266268
C  C178  1  0.08471000  0.62261000  0.69432000  1.0 -0.1588266268
C  C179  1  0.58471000  0.62261000  0.30568000  1.0 -0.1588266268
C  C180  1  0.41529000  0.37739000  0.69432000  1.0 -0.1588266268
C  C181  1  0.08471000  0.37739000  0.19432000  1.0 -0.1588266268
C  C182  1  0.91529000  0.62261000  0.80568000  1.0 -0.1588266268
C  C183  1  0.41529000  0.62261000  0.19432000  1.0 -0.1588266268
C  C184  1  0.58471000  0.37739000  0.80568000  1.0 -0.1588266268
C  C185  1  0.41529000  0.87739000  0.30568000  1.0 -0.1588266268
C  C186  1  0.58471000  0.12261000  0.69432000  1.0 -0.1588266268
C  C187  1  0.08471000  0.12261000  0.30568000  1.0 -0.1588266268
C  C188  1  0.91529000  0.87739000  0.69432000  1.0 -0.1588266268
C  C189  1  0.58471000  0.87739000  0.19432000  1.0 -0.1588266268
C  C190  1  0.41529000  0.12261000  0.80568000  1.0 -0.1588266268
C  C191  1  0.91529000  0.12261000  0.19432000  1.0 -0.1588266268
C  C192  1  0.08471000  0.87739000  0.80568000  1.0 -0.1588266268
C  C193  1  0.90029000  0.33685000  0.29477000  1.0 -0.0576418185
C  C194  1  0.09971000  0.66315000  0.70523000  1.0 -0.0576418185
C  C195  1  0.59971000  0.66315000  0.29477000  1.0 -0.0576418185
C  C196  1  0.40029000  0.33685000  0.70523000  1.0 -0.0576418185
C  C197  1  0.09971000  0.33685000  0.20523000  1.0 -0.0576418185
C  C198  1  0.90029000  0.66315000  0.79477000  1.0 -0.0576418185
C  C199  1  0.40029000  0.66315000  0.20523000  1.0 -0.0576418185
C  C200  1  0.59971000  0.33685000  0.79477000  1.0 -0.0576418185
C  C201  1  0.40029000  0.83685000  0.29477000  1.0 -0.0576418185
C  C202  1  0.59971000  0.16315000  0.70523000  1.0 -0.0576418185
C  C203  1  0.09971000  0.16315000  0.29477000  1.0 -0.0576418185
C  C204  1  0.90029000  0.83685000  0.70523000  1.0 -0.0576418185
C  C205  1  0.59971000  0.83685000  0.20523000  1.0 -0.0576418185
C  C206  1  0.40029000  0.16315000  0.79477000  1.0 -0.0576418185
C  C207  1  0.90029000  0.16315000  0.20523000  1.0 -0.0576418185
C  C208  1  0.09971000  0.83685000  0.79477000  1.0 -0.0576418185
C  C209  1  0.86237000  0.31023000  0.26985000  1.0 -0.0131519727
C  C210  1  0.13763000  0.68977000  0.73015000  1.0 -0.0131519727
C  C211  1  0.63763000  0.68977000  0.26985000  1.0 -0.0131519727
C  C212  1  0.36237000  0.31023000  0.73015000  1.0 -0.0131519727
C  C213  1  0.13763000  0.31023000  0.23015000  1.0 -0.0131519727
C  C214  1  0.86237000  0.68977000  0.76985000  1.0 -0.0131519727
C  C215  1  0.36237000  0.68977000  0.23015000  1.0 -0.0131519727
C  C216  1  0.63763000  0.31023000  0.76985000  1.0 -0.0131519727
C  C217  1  0.36237000  0.81023000  0.26985000  1.0 -0.0131519727
C  C218  1  0.63763000  0.18977000  0.73015000  1.0 -0.0131519727
C  C219  1  0.13763000  0.18977000  0.26985000  1.0 -0.0131519727
C  C220  1  0.86237000  0.81023000  0.73015000  1.0 -0.0131519727
C  C221  1  0.63763000  0.81023000  0.23015000  1.0 -0.0131519727
C  C222  1  0.36237000  0.18977000  0.76985000  1.0 -0.0131519727
C  C223  1  0.86237000  0.18977000  0.23015000  1.0 -0.0131519727
C  C224  1  0.13763000  0.81023000  0.76985000  1.0 -0.0131519727
C  C225  1  0.82684000  0.34168000  0.24955000  1.0 -0.0261636434
C  C226  1  0.17316000  0.65832000  0.75045000  1.0 -0.0261636434
C  C227  1  0.67316000  0.65832000  0.24955000  1.0 -0.0261636434
C  C228  1  0.32684000  0.34168000  0.75045000  1.0 -0.0261636434
C  C229  1  0.17316000  0.34168000  0.25045000  1.0 -0.0261636434
C  C230  1  0.82684000  0.65832000  0.74955000  1.0 -0.0261636434
C  C231  1  0.32684000  0.65832000  0.25045000  1.0 -0.0261636434
C  C232  1  0.67316000  0.34168000  0.74955000  1.0 -0.0261636434
C  C233  1  0.32684000  0.84168000  0.24955000  1.0 -0.0261636434
C  C234  1  0.67316000  0.15832000  0.75045000  1.0 -0.0261636434
C  C235  1  0.17316000  0.15832000  0.24955000  1.0 -0.0261636434
C  C236  1  0.82684000  0.84168000  0.75045000  1.0 -0.0261636434
C  C237  1  0.67316000  0.84168000  0.25045000  1.0 -0.0261636434
C  C238  1  0.32684000  0.15832000  0.74955000  1.0 -0.0261636434
C  C239  1  0.82684000  0.15832000  0.25045000  1.0 -0.0261636434
C  C240  1  0.17316000  0.84168000  0.74955000  1.0 -0.0261636434
C  C241  1  0.97209000  0.40468000  0.33777000  1.0 0.5526299
C  C242  1  0.02791000  0.59532000  0.66223000  1.0 0.5526299
C  C243  1  0.52791000  0.59532000  0.33777000  1.0 0.5526299
C  C244  1  0.47209000  0.40468000  0.66223000  1.0 0.5526299
C  C245  1  0.02791000  0.40468000  0.16223000  1.0 0.5526299
C  C246  1  0.97209000  0.59532000  0.83777000  1.0 0.5526299
C  C247  1  0.47209000  0.59532000  0.16223000  1.0 0.5526299
C  C248  1  0.52791000  0.40468000  0.83777000  1.0 0.5526299
C  C249  1  0.47209000  0.90468000  0.33777000  1.0 0.5526299
C  C250  1  0.52791000  0.09532000  0.66223000  1.0 0.5526299
C  C251  1  0.02791000  0.09532000  0.33777000  1.0 0.5526299
C  C252  1  0.97209000  0.90468000  0.66223000  1.0 0.5526299
C  C253  1  0.52791000  0.90468000  0.16223000  1.0 0.5526299
C  C254  1  0.47209000  0.09532000  0.83777000  1.0 0.5526299
C  C255  1  0.97209000  0.09532000  0.16223000  1.0 0.5526299
C  C256  1  0.02791000  0.90468000  0.83777000  1.0 0.5526299
C  C257  1  0.82651000  0.28564000  0.11186000  1.0 0.1161210836
C  C258  1  0.17349000  0.71436000  0.88814000  1.0 0.1161210836
C  C259  1  0.67349000  0.71436000  0.11186000  1.0 0.1161210836
C  C260  1  0.32651000  0.28564000  0.88814000  1.0 0.1161210836
C  C261  1  0.17349000  0.28564000  0.38814000  1.0 0.1161210836
C  C262  1  0.82651000  0.71436000  0.61186000  1.0 0.1161210836
C  C263  1  0.32651000  0.71436000  0.38814000  1.0 0.1161210836
C  C264  1  0.67349000  0.28564000  0.61186000  1.0 0.1161210836
C  C265  1  0.32651000  0.78564000  0.11186000  1.0 0.1161210836
C  C266  1  0.67349000  0.21436000  0.88814000  1.0 0.1161210836
C  C267  1  0.17349000  0.21436000  0.11186000  1.0 0.1161210836
C  C268  1  0.82651000  0.78564000  0.88814000  1.0 0.1161210836
C  C269  1  0.67349000  0.78564000  0.38814000  1.0 0.1161210836
C  C270  1  0.32651000  0.21436000  0.61186000  1.0 0.1161210836
C  C271  1  0.82651000  0.21436000  0.38814000  1.0 0.1161210836
C  C272  1  0.17349000  0.78564000  0.61186000  1.0 0.1161210836
C  C273  1  0.81941000  0.25113000  0.10659000  1.0 -0.0714077435
C  C274  1  0.18059000  0.74887000  0.89341000  1.0 -0.0714077435
C  C275  1  0.68059000  0.74887000  0.10659000  1.0 -0.0714077435
C  C276  1  0.31941000  0.25113000  0.89341000  1.0 -0.0714077435
C  C277  1  0.18059000  0.25113000  0.39341000  1.0 -0.0714077435
C  C278  1  0.81941000  0.74887000  0.60659000  1.0 -0.0714077435
C  C279  1  0.31941000  0.74887000  0.39341000  1.0 -0.0714077435
C  C280  1  0.68059000  0.25113000  0.60659000  1.0 -0.0714077435
C  C281  1  0.31941000  0.75113000  0.10659000  1.0 -0.0714077435
C  C282  1  0.68059000  0.24887000  0.89341000  1.0 -0.0714077435
C  C283  1  0.18059000  0.24887000  0.10659000  1.0 -0.0714077435
C  C284  1  0.81941000  0.75113000  0.89341000  1.0 -0.0714077435
C  C285  1  0.68059000  0.75113000  0.39341000  1.0 -0.0714077435
C  C286  1  0.31941000  0.24887000  0.60659000  1.0 -0.0714077435
C  C287  1  0.81941000  0.24887000  0.39341000  1.0 -0.0714077435
C  C288  1  0.18059000  0.75113000  0.60659000  1.0 -0.0714077435
C  C289  1  0.74651000  0.21827000  0.11192000  1.0 -0.0840988841
C  C290  1  0.25349000  0.78173000  0.88808000  1.0 -0.0840988841
C  C291  1  0.75349000  0.78173000  0.11192000  1.0 -0.0840988841
C  C292  1  0.24651000  0.21827000  0.88808000  1.0 -0.0840988841
C  C293  1  0.25349000  0.21827000  0.38808000  1.0 -0.0840988841
C  C294  1  0.74651000  0.78173000  0.61192000  1.0 -0.0840988841
C  C295  1  0.24651000  0.78173000  0.38808000  1.0 -0.0840988841
C  C296  1  0.75349000  0.21827000  0.61192000  1.0 -0.0840988841
C  C297  1  0.24651000  0.71827000  0.11192000  1.0 -0.0840988841
C  C298  1  0.75349000  0.28173000  0.88808000  1.0 -0.0840988841
C  C299  1  0.25349000  0.28173000  0.11192000  1.0 -0.0840988841
C  C300  1  0.74651000  0.71827000  0.88808000  1.0 -0.0840988841
C  C301  1  0.75349000  0.71827000  0.38808000  1.0 -0.0840988841
C  C302  1  0.24651000  0.28173000  0.61192000  1.0 -0.0840988841
C  C303  1  0.74651000  0.28173000  0.38808000  1.0 -0.0840988841
C  C304  1  0.25349000  0.71827000  0.61192000  1.0 -0.0840988841
C  C305  1  0.68875000  0.25100000  0.12776000  1.0 -0.0392751864
C  C306  1  0.31125000  0.74900000  0.87224000  1.0 -0.0392751864
C  C307  1  0.81125000  0.74900000  0.12776000  1.0 -0.0392751864
C  C308  1  0.18875000  0.25100000  0.87224000  1.0 -0.0392751864
C  C309  1  0.31125000  0.25100000  0.37224000  1.0 -0.0392751864
C  C310  1  0.68875000  0.74900000  0.62776000  1.0 -0.0392751864
C  C311  1  0.18875000  0.74900000  0.37224000  1.0 -0.0392751864
C  C312  1  0.81125000  0.25100000  0.62776000  1.0 -0.0392751864
C  C313  1  0.18875000  0.75100000  0.12776000  1.0 -0.0392751864
C  C314  1  0.81125000  0.24900000  0.87224000  1.0 -0.0392751864
C  C315  1  0.31125000  0.24900000  0.12776000  1.0 -0.0392751864
C  C316  1  0.68875000  0.75100000  0.87224000  1.0 -0.0392751864
C  C317  1  0.81125000  0.75100000  0.37224000  1.0 -0.0392751864
C  C318  1  0.18875000  0.24900000  0.62776000  1.0 -0.0392751864
C  C319  1  0.68875000  0.24900000  0.37224000  1.0 -0.0392751864
C  C320  1  0.31125000  0.75100000  0.62776000  1.0 -0.0392751864
C  C321  1  0.69651000  0.28609000  0.13264000  1.0 0.148515892
C  C322  1  0.30349000  0.71391000  0.86736000  1.0 0.148515892
C  C323  1  0.80349000  0.71391000  0.13264000  1.0 0.148515892
C  C324  1  0.19651000  0.28609000  0.86736000  1.0 0.148515892
C  C325  1  0.30349000  0.28609000  0.36736000  1.0 0.148515892
C  C326  1  0.69651000  0.71391000  0.63264000  1.0 0.148515892
C  C327  1  0.19651000  0.71391000  0.36736000  1.0 0.148515892
C  C328  1  0.80349000  0.28609000  0.63264000  1.0 0.148515892
C  C329  1  0.19651000  0.78609000  0.13264000  1.0 0.148515892
C  C330  1  0.80349000  0.21391000  0.86736000  1.0 0.148515892
C  C331  1  0.30349000  0.21391000  0.13264000  1.0 0.148515892
C  C332  1  0.69651000  0.78609000  0.86736000  1.0 0.148515892
C  C333  1  0.80349000  0.78609000  0.36736000  1.0 0.148515892
C  C334  1  0.19651000  0.21391000  0.63264000  1.0 0.148515892
C  C335  1  0.69651000  0.21391000  0.36736000  1.0 0.148515892
C  C336  1  0.30349000  0.78609000  0.63264000  1.0 0.148515892
C  C337  1  0.73877000  0.17113000  0.10362000  1.0 -0.0972347345
C  C338  1  0.26123000  0.82887000  0.89638000  1.0 -0.0972347345
C  C339  1  0.76123000  0.82887000  0.10362000  1.0 -0.0972347345
C  C340  1  0.23877000  0.17113000  0.89638000  1.0 -0.0972347345
C  C341  1  0.26123000  0.17113000  0.39638000  1.0 -0.0972347345
C  C342  1  0.73877000  0.82887000  0.60362000  1.0 -0.0972347345
C  C343  1  0.23877000  0.82887000  0.39638000  1.0 -0.0972347345
C  C344  1  0.76123000  0.17113000  0.60362000  1.0 -0.0972347345
C  C345  1  0.23877000  0.67113000  0.10362000  1.0 -0.0972347345
C  C346  1  0.76123000  0.32887000  0.89638000  1.0 -0.0972347345
C  C347  1  0.26123000  0.32887000  0.10362000  1.0 -0.0972347345
C  C348  1  0.73877000  0.67113000  0.89638000  1.0 -0.0972347345
C  C349  1  0.76123000  0.67113000  0.39638000  1.0 -0.0972347345
C  C350  1  0.23877000  0.32887000  0.60362000  1.0 -0.0972347345
C  C351  1  0.73877000  0.32887000  0.39638000  1.0 -0.0972347345
C  C352  1  0.26123000  0.67113000  0.60362000  1.0 -0.0972347345
C  C353  1  0.68950000  0.13458000  0.11821000  1.0 -0.0475842741
C  C354  1  0.31050000  0.86542000  0.88179000  1.0 -0.0475842741
C  C355  1  0.81050000  0.86542000  0.11821000  1.0 -0.0475842741
C  C356  1  0.18950000  0.13458000  0.88179000  1.0 -0.0475842741
C  C357  1  0.31050000  0.13458000  0.38179000  1.0 -0.0475842741
C  C358  1  0.68950000  0.86542000  0.61821000  1.0 -0.0475842741
C  C359  1  0.18950000  0.86542000  0.38179000  1.0 -0.0475842741
C  C360  1  0.81050000  0.13458000  0.61821000  1.0 -0.0475842741
C  C361  1  0.18950000  0.63458000  0.11821000  1.0 -0.0475842741
C  C362  1  0.81050000  0.36542000  0.88179000  1.0 -0.0475842741
C  C363  1  0.31050000  0.36542000  0.11821000  1.0 -0.0475842741
C  C364  1  0.68950000  0.63458000  0.88179000  1.0 -0.0475842741
C  C365  1  0.81050000  0.63458000  0.38179000  1.0 -0.0475842741
C  C366  1  0.18950000  0.36542000  0.61821000  1.0 -0.0475842741
C  C367  1  0.68950000  0.36542000  0.38179000  1.0 -0.0475842741
C  C368  1  0.31050000  0.63458000  0.61821000  1.0 -0.0475842741
C  C369  1  0.68693000  0.10024000  0.11283000  1.0 0.1161210836
C  C370  1  0.31307000  0.89976000  0.88717000  1.0 0.1161210836
C  C371  1  0.81307000  0.89976000  0.11283000  1.0 0.1161210836
C  C372  1  0.18693000  0.10024000  0.88717000  1.0 0.1161210836
C  C373  1  0.31307000  0.10024000  0.38717000  1.0 0.1161210836
C  C374  1  0.68693000  0.89976000  0.61283000  1.0 0.1161210836
C  C375  1  0.18693000  0.89976000  0.38717000  1.0 0.1161210836
C  C376  1  0.81307000  0.10024000  0.61283000  1.0 0.1161210836
C  C377  1  0.18693000  0.60024000  0.11283000  1.0 0.1161210836
C  C378  1  0.81307000  0.39976000  0.88717000  1.0 0.1161210836
C  C379  1  0.31307000  0.39976000  0.11283000  1.0 0.1161210836
C  C380  1  0.68693000  0.60024000  0.88717000  1.0 0.1161210836
C  C381  1  0.81307000  0.60024000  0.38717000  1.0 0.1161210836
C  C382  1  0.18693000  0.39976000  0.61283000  1.0 0.1161210836
C  C383  1  0.68693000  0.39976000  0.38717000  1.0 0.1161210836
C  C384  1  0.31307000  0.60024000  0.61283000  1.0 0.1161210836
C  C385  1  0.77400000  0.10770000  0.07330000  1.0 0.1007451947
C  C386  1  0.22600000  0.89230000  0.92670000  1.0 0.1007451947
C  C387  1  0.72600000  0.89230000  0.07330000  1.0 0.1007451947
C  C388  1  0.27400000  0.10770000  0.92670000  1.0 0.1007451947
C  C389  1  0.22600000  0.10770000  0.42670000  1.0 0.1007451947
C  C390  1  0.77400000  0.89230000  0.57330000  1.0 0.1007451947
C  C391  1  0.27400000  0.89230000  0.42670000  1.0 0.1007451947
C  C392  1  0.72600000  0.10770000  0.57330000  1.0 0.1007451947
C  C393  1  0.27400000  0.60770000  0.07330000  1.0 0.1007451947
C  C394  1  0.72600000  0.39230000  0.92670000  1.0 0.1007451947
C  C395  1  0.22600000  0.39230000  0.07330000  1.0 0.1007451947
C  C396  1  0.77400000  0.60770000  0.92670000  1.0 0.1007451947
C  C397  1  0.72600000  0.60770000  0.42670000  1.0 0.1007451947
C  C398  1  0.27400000  0.39230000  0.57330000  1.0 0.1007451947
C  C399  1  0.77400000  0.39230000  0.42670000  1.0 0.1007451947
C  C400  1  0.22600000  0.60770000  0.57330000  1.0 0.1007451947
C  C401  1  0.77692000  0.14209000  0.07897000  1.0 -0.0576418185
C  C402  1  0.22308000  0.85791000  0.92103000  1.0 -0.0576418185
C  C403  1  0.72308000  0.85791000  0.07897000  1.0 -0.0576418185
C  C404  1  0.27692000  0.14209000  0.92103000  1.0 -0.0576418185
C  C405  1  0.22308000  0.14209000  0.42103000  1.0 -0.0576418185
C  C406  1  0.77692000  0.85791000  0.57897000  1.0 -0.0576418185
C  C407  1  0.27692000  0.85791000  0.42103000  1.0 -0.0576418185
C  C408  1  0.72308000  0.14209000  0.57897000  1.0 -0.0576418185
C  C409  1  0.27692000  0.64209000  0.07897000  1.0 -0.0576418185
C  C410  1  0.72308000  0.35791000  0.92103000  1.0 -0.0576418185
C  C411  1  0.22308000  0.35791000  0.07897000  1.0 -0.0576418185
C  C412  1  0.77692000  0.64209000  0.92103000  1.0 -0.0576418185
C  C413  1  0.72308000  0.64209000  0.42103000  1.0 -0.0576418185
C  C414  1  0.27692000  0.35791000  0.57897000  1.0 -0.0576418185
C  C415  1  0.77692000  0.35791000  0.42103000  1.0 -0.0576418185
C  C416  1  0.22308000  0.64209000  0.57897000  1.0 -0.0576418185
N  N1  1  0.50000000  0.75000000  0.94758000  1.0 -0.3227869898
N  N2  1  0.50000000  0.25000000  0.05242000  1.0 -0.3227869898
N  N3  1  0.00000000  0.25000000  0.94758000  1.0 -0.3227869898
N  N4  1  0.00000000  0.75000000  0.05242000  1.0 -0.3227869898
N  N5  1  0.50000000  0.75000000  0.55242000  1.0 -0.3227869898
N  N6  1  0.50000000  0.25000000  0.44758000  1.0 -0.3227869898
N  N7  1  0.00000000  0.25000000  0.55242000  1.0 -0.3227869898
N  N8  1  0.00000000  0.75000000  0.44758000  1.0 -0.3227869898
N  N9  1  0.76716000  0.31921000  0.12631000  1.0 -0.3261187926
N  N10  1  0.23284000  0.68079000  0.87369000  1.0 -0.3261187926
N  N11  1  0.73284000  0.68079000  0.12631000  1.0 -0.3261187926
N  N12  1  0.26716000  0.31921000  0.87369000  1.0 -0.3261187926
N  N13  1  0.23284000  0.31921000  0.37369000  1.0 -0.3261187926
N  N14  1  0.76716000  0.68079000  0.62631000  1.0 -0.3261187926
N  N15  1  0.26716000  0.68079000  0.37369000  1.0 -0.3261187926
N  N16  1  0.73284000  0.31921000  0.62631000  1.0 -0.3261187926
N  N17  1  0.26716000  0.81921000  0.12631000  1.0 -0.3261187926
N  N18  1  0.73284000  0.18079000  0.87369000  1.0 -0.3261187926
N  N19  1  0.23284000  0.18079000  0.12631000  1.0 -0.3261187926
N  N20  1  0.76716000  0.81921000  0.87369000  1.0 -0.3261187926
N  N21  1  0.73284000  0.81921000  0.37369000  1.0 -0.3261187926
N  N22  1  0.26716000  0.18079000  0.62631000  1.0 -0.3261187926
N  N23  1  0.76716000  0.18079000  0.37369000  1.0 -0.3261187926
N  N24  1  0.23284000  0.81921000  0.62631000  1.0 -0.3261187926
N  N25  1  0.72865000  0.06764000  0.08837000  1.0 -0.289266403
N  N26  1  0.27135000  0.93236000  0.91163000  1.0 -0.289266403
N  N27  1  0.77135000  0.93236000  0.08837000  1.0 -0.289266403
N  N28  1  0.22865000  0.06764000  0.91163000  1.0 -0.289266403
N  N29  1  0.27135000  0.06764000  0.41163000  1.0 -0.289266403
N  N30  1  0.72865000  0.93236000  0.58837000  1.0 -0.289266403
N  N31  1  0.22865000  0.93236000  0.41163000  1.0 -0.289266403
N  N32  1  0.77135000  0.06764000  0.58837000  1.0 -0.289266403
N  N33  1  0.22865000  0.56764000  0.08837000  1.0 -0.289266403
N  N34  1  0.77135000  0.43236000  0.91163000  1.0 -0.289266403
N  N35  1  0.27135000  0.43236000  0.08837000  1.0 -0.289266403
N  N36  1  0.72865000  0.56764000  0.91163000  1.0 -0.289266403
N  N37  1  0.77135000  0.56764000  0.41163000  1.0 -0.289266403
N  N38  1  0.22865000  0.43236000  0.58837000  1.0 -0.289266403
N  N39  1  0.72865000  0.43236000  0.41163000  1.0 -0.289266403
N  N40  1  0.27135000  0.56764000  0.58837000  1.0 -0.289266403
N  N41  1  0.86388000  0.26492000  0.27141000  1.0 0.1007451947
N  N42  1  0.13612000  0.73508000  0.72859000  1.0 0.1007451947
N  N43  1  0.63612000  0.73508000  0.27141000  1.0 0.1007451947
N  N44  1  0.36388000  0.26492000  0.72859000  1.0 0.1007451947
N  N45  1  0.13612000  0.26492000  0.22859000  1.0 0.1007451947
N  N46  1  0.86388000  0.73508000  0.77141000  1.0 0.1007451947
N  N47  1  0.36388000  0.73508000  0.22859000  1.0 0.1007451947
N  N48  1  0.63612000  0.26492000  0.77141000  1.0 0.1007451947
N  N49  1  0.36388000  0.76492000  0.27141000  1.0 0.1007451947
N  N50  1  0.63612000  0.23508000  0.72859000  1.0 0.1007451947
N  N51  1  0.13612000  0.23508000  0.27141000  1.0 0.1007451947
N  N52  1  0.86388000  0.76492000  0.72859000  1.0 0.1007451947
N  N53  1  0.63612000  0.76492000  0.22859000  1.0 0.1007451947
N  N54  1  0.36388000  0.23508000  0.77141000  1.0 0.1007451947
N  N55  1  0.86388000  0.23508000  0.22859000  1.0 0.1007451947
N  N56  1  0.13612000  0.76492000  0.77141000  1.0 0.1007451947
O  O1  1  0.38292000  0.60769000  0.88904000  1.0 -0.5576585598
O  O2  1  0.61708000  0.39231000  0.11096000  1.0 -0.5576585598
O  O3  1  0.11708000  0.39231000  0.88904000  1.0 -0.5576585598
O  O4  1  0.88292000  0.60769000  0.11096000  1.0 -0.5576585598
O  O5  1  0.61708000  0.60769000  0.61096000  1.0 -0.5576585598
O  O6  1  0.38292000  0.39231000  0.38904000  1.0 -0.5576585598
O  O7  1  0.88292000  0.39231000  0.61096000  1.0 -0.5576585598
O  O8  1  0.11708000  0.60769000  0.38904000  1.0 -0.5576585598
O  O9  1  0.88292000  0.10769000  0.88904000  1.0 -0.5576585598
O  O10  1  0.11708000  0.89231000  0.11096000  1.0 -0.5576585598
O  O11  1  0.61708000  0.89231000  0.88904000  1.0 -0.5576585598
O  O12  1  0.38292000  0.10769000  0.11096000  1.0 -0.5576585598
O  O13  1  0.11708000  0.10769000  0.61096000  1.0 -0.5576585598
O  O14  1  0.88292000  0.89231000  0.38904000  1.0 -0.5576585598
O  O15  1  0.38292000  0.89231000  0.61096000  1.0 -0.5576585598
O  O16  1  0.61708000  0.10769000  0.38904000  1.0 -0.5576585598
O  O17  1  0.39352000  0.53938000  0.92878000  1.0 -0.5992915797
O  O18  1  0.60648000  0.46062000  0.07122000  1.0 -0.5992915797
O  O19  1  0.10648000  0.46062000  0.92878000  1.0 -0.5992915797
O  O20  1  0.89352000  0.53938000  0.07122000  1.0 -0.5992915797
O  O21  1  0.60648000  0.53938000  0.57122000  1.0 -0.5992915797
O  O22  1  0.39352000  0.46062000  0.42878000  1.0 -0.5992915797
O  O23  1  0.89352000  0.46062000  0.57122000  1.0 -0.5992915797
O  O24  1  0.10648000  0.53938000  0.42878000  1.0 -0.5992915797
O  O25  1  0.89352000  0.03938000  0.92878000  1.0 -0.5992915797
O  O26  1  0.10648000  0.96062000  0.07122000  1.0 -0.5992915797
O  O27  1  0.60648000  0.96062000  0.92878000  1.0 -0.5992915797
O  O28  1  0.39352000  0.03938000  0.07122000  1.0 -0.5992915797
O  O29  1  0.10648000  0.03938000  0.57122000  1.0 -0.5992915797
O  O30  1  0.89352000  0.96062000  0.42878000  1.0 -0.5992915797
O  O31  1  0.39352000  0.96062000  0.57122000  1.0 -0.5992915797
O  O32  1  0.60648000  0.03938000  0.42878000  1.0 -0.5992915797
O  O33  1  0.67024000  0.54418000  0.03793000  1.0 -0.5992915797
O  O34  1  0.32976000  0.45582000  0.96207000  1.0 -0.5992915797
O  O35  1  0.82976000  0.45582000  0.03793000  1.0 -0.5992915797
O  O36  1  0.17024000  0.54418000  0.96207000  1.0 -0.5992915797
O  O37  1  0.32976000  0.54418000  0.46207000  1.0 -0.5992915797
O  O38  1  0.67024000  0.45582000  0.53793000  1.0 -0.5992915797
O  O39  1  0.17024000  0.45582000  0.46207000  1.0 -0.5992915797
O  O40  1  0.82976000  0.54418000  0.53793000  1.0 -0.5992915797
O  O41  1  0.17024000  0.04418000  0.03793000  1.0 -0.5992915797
O  O42  1  0.82976000  0.95582000  0.96207000  1.0 -0.5992915797
O  O43  1  0.32976000  0.95582000  0.03793000  1.0 -0.5992915797
O  O44  1  0.67024000  0.04418000  0.96207000  1.0 -0.5992915797
O  O45  1  0.82976000  0.04418000  0.46207000  1.0 -0.5992915797
O  O46  1  0.17024000  0.95582000  0.53793000  1.0 -0.5992915797
O  O47  1  0.67024000  0.95582000  0.46207000  1.0 -0.5992915797
O  O48  1  0.32976000  0.04418000  0.53793000  1.0 -0.5992915797
O  O49  1  0.67367000  0.61824000  0.07228000  1.0 -0.694399941
O  O50  1  0.32633000  0.38176000  0.92772000  1.0 -0.694399941
O  O51  1  0.82633000  0.38176000  0.07228000  1.0 -0.694399941
O  O52  1  0.17367000  0.61824000  0.92772000  1.0 -0.694399941
O  O53  1  0.32633000  0.61824000  0.42772000  1.0 -0.694399941
O  O54  1  0.67367000  0.38176000  0.57228000  1.0 -0.694399941
O  O55  1  0.17367000  0.38176000  0.42772000  1.0 -0.694399941
O  O56  1  0.82633000  0.61824000  0.57228000  1.0 -0.694399941
O  O57  1  0.17367000  0.11824000  0.07228000  1.0 -0.694399941
O  O58  1  0.82633000  0.88176000  0.92772000  1.0 -0.694399941
O  O59  1  0.32633000  0.88176000  0.07228000  1.0 -0.694399941
O  O60  1  0.67367000  0.11824000  0.92772000  1.0 -0.694399941
O  O61  1  0.82633000  0.11824000  0.42772000  1.0 -0.694399941
O  O62  1  0.17367000  0.88176000  0.57228000  1.0 -0.694399941
O  O63  1  0.67367000  0.88176000  0.42772000  1.0 -0.694399941
O  O64  1  0.32633000  0.11824000  0.57228000  1.0 -0.694399941
O  O65  1  0.50000000  0.75000000  0.08391000  1.0 -0.7282317758
O  O66  1  0.50000000  0.25000000  0.91609000  1.0 -0.7282317758
O  O67  1  0.00000000  0.25000000  0.08391000  1.0 -0.7282317758
O  O68  1  0.00000000  0.75000000  0.91609000  1.0 -0.7282317758
O  O69  1  0.50000000  0.75000000  0.41609000  1.0 -0.7282317758
O  O70  1  0.50000000  0.25000000  0.58391000  1.0 -0.7282317758
O  O71  1  0.00000000  0.25000000  0.41609000  1.0 -0.7282317758
O  O72  1  0.00000000  0.75000000  0.58391000  1.0 -0.7282317758
O  O73  1  0.74438000  0.45933000  0.12280000  1.0 -0.8591551215
O  O74  1  0.25562000  0.54067000  0.87720000  1.0 -0.8591551215
O  O75  1  0.75562000  0.54067000  0.12280000  1.0 -0.8591551215
O  O76  1  0.24438000  0.45933000  0.87720000  1.0 -0.8591551215
O  O77  1  0.25562000  0.45933000  0.37720000  1.0 -0.8591551215
O  O78  1  0.74438000  0.54067000  0.62280000  1.0 -0.8591551215
O  O79  1  0.24438000  0.54067000  0.37720000  1.0 -0.8591551215
O  O80  1  0.75562000  0.45933000  0.62280000  1.0 -0.8591551215
O  O81  1  0.24438000  0.95933000  0.12280000  1.0 -0.8591551215
O  O82  1  0.75562000  0.04067000  0.87720000  1.0 -0.8591551215
O  O83  1  0.25562000  0.04067000  0.12280000  1.0 -0.8591551215
O  O84  1  0.74438000  0.95933000  0.87720000  1.0 -0.8591551215
O  O85  1  0.75562000  0.95933000  0.37720000  1.0 -0.8591551215
O  O86  1  0.24438000  0.04067000  0.62280000  1.0 -0.8591551215
O  O87  1  0.74438000  0.04067000  0.37720000  1.0 -0.8591551215
O  O88  1  0.25562000  0.95933000  0.62280000  1.0 -0.8591551215
O  O89  1  0.80291000  0.46136000  0.21045000  1.0 -0.632647264
O  O90  1  0.19709000  0.53864000  0.78955000  1.0 -0.632647264
O  O91  1  0.69709000  0.53864000  0.21045000  1.0 -0.632647264
O  O92  1  0.30291000  0.46136000  0.78955000  1.0 -0.632647264
O  O93  1  0.19709000  0.46136000  0.28955000  1.0 -0.632647264
O  O94  1  0.80291000  0.53864000  0.71045000  1.0 -0.632647264
O  O95  1  0.30291000  0.53864000  0.28955000  1.0 -0.632647264
O  O96  1  0.69709000  0.46136000  0.71045000  1.0 -0.632647264
O  O97  1  0.30291000  0.96136000  0.21045000  1.0 -0.632647264
O  O98  1  0.69709000  0.03864000  0.78955000  1.0 -0.632647264
O  O99  1  0.19709000  0.03864000  0.21045000  1.0 -0.632647264
O  O100  1  0.80291000  0.96136000  0.78955000  1.0 -0.632647264
O  O101  1  0.69709000  0.96136000  0.28955000  1.0 -0.632647264
O  O102  1  0.30291000  0.03864000  0.71045000  1.0 -0.632647264
O  O103  1  0.80291000  0.03864000  0.28955000  1.0 -0.632647264
O  O104  1  0.19709000  0.96136000  0.71045000  1.0 -0.632647264
O  O105  1  0.72489000  0.39084000  0.18298000  1.0 -0.5992915797
O  O106  1  0.27511000  0.60916000  0.81702000  1.0 -0.5992915797
O  O107  1  0.77511000  0.60916000  0.18298000  1.0 -0.5992915797
O  O108  1  0.22489000  0.39084000  0.81702000  1.0 -0.5992915797
O  O109  1  0.27511000  0.39084000  0.31702000  1.0 -0.5992915797
O  O110  1  0.72489000  0.60916000  0.68298000  1.0 -0.5992915797
O  O111  1  0.22489000  0.60916000  0.31702000  1.0 -0.5992915797
O  O112  1  0.77511000  0.39084000  0.68298000  1.0 -0.5992915797
O  O113  1  0.22489000  0.89084000  0.18298000  1.0 -0.5992915797
O  O114  1  0.77511000  0.10916000  0.81702000  1.0 -0.5992915797
O  O115  1  0.27511000  0.10916000  0.18298000  1.0 -0.5992915797
O  O116  1  0.72489000  0.89084000  0.81702000  1.0 -0.5992915797
O  O117  1  0.77511000  0.89084000  0.31702000  1.0 -0.5992915797
O  O118  1  0.22489000  0.10916000  0.68298000  1.0 -0.5992915797
O  O119  1  0.72489000  0.10916000  0.31702000  1.0 -0.5992915797
O  O120  1  0.27511000  0.89084000  0.68298000  1.0 -0.5992915797
O  O121  1  0.06244000  0.37305000  0.35571000  1.0 -0.7552898966
O  O122  1  0.93756000  0.62695000  0.64429000  1.0 -0.7552898966
O  O123  1  0.43756000  0.62695000  0.35571000  1.0 -0.7552898966
O  O124  1  0.56244000  0.37305000  0.64429000  1.0 -0.7552898966
O  O125  1  0.93756000  0.37305000  0.14429000  1.0 -0.7552898966
O  O126  1  0.06244000  0.62695000  0.85571000  1.0 -0.7552898966
O  O127  1  0.56244000  0.62695000  0.14429000  1.0 -0.7552898966
O  O128  1  0.43756000  0.37305000  0.85571000  1.0 -0.7552898966
O  O129  1  0.56244000  0.87305000  0.35571000  1.0 -0.7552898966
O  O130  1  0.43756000  0.12695000  0.64429000  1.0 -0.7552898966
O  O131  1  0.93756000  0.12695000  0.35571000  1.0 -0.7552898966
O  O132  1  0.06244000  0.87305000  0.64429000  1.0 -0.7552898966
O  O133  1  0.43756000  0.87305000  0.14429000  1.0 -0.7552898966
O  O134  1  0.56244000  0.12695000  0.85571000  1.0 -0.7552898966
O  O135  1  0.06244000  0.12695000  0.14429000  1.0 -0.7552898966
O  O136  1  0.93756000  0.87305000  0.85571000  1.0 -0.7552898966
O  O137  1  0.95463000  0.44351000  0.34676000  1.0 -0.5025421243
O  O138  1  0.04537000  0.55649000  0.65324000  1.0 -0.5025421243
O  O139  1  0.54537000  0.55649000  0.34676000  1.0 -0.5025421243
O  O140  1  0.45463000  0.44351000  0.65324000  1.0 -0.5025421243
O  O141  1  0.04537000  0.44351000  0.15324000  1.0 -0.5025421243
O  O142  1  0.95463000  0.55649000  0.84676000  1.0 -0.5025421243
O  O143  1  0.45463000  0.55649000  0.15324000  1.0 -0.5025421243
O  O144  1  0.54537000  0.44351000  0.84676000  1.0 -0.5025421243
O  O145  1  0.45463000  0.94351000  0.34676000  1.0 -0.5025421243
O  O146  1  0.54537000  0.05649000  0.65324000  1.0 -0.5025421243
O  O147  1  0.04537000  0.05649000  0.34676000  1.0 -0.5025421243
O  O148  1  0.95463000  0.94351000  0.65324000  1.0 -0.5025421243
O  O149  1  0.54537000  0.94351000  0.15324000  1.0 -0.5025421243
O  O150  1  0.45463000  0.05649000  0.84676000  1.0 -0.5025421243
O  O151  1  0.95463000  0.05649000  0.15324000  1.0 -0.5025421243
O  O152  1  0.04537000  0.94351000  0.84676000  1.0 -0.5025421243
O  O153  1  0.87212000  0.23604000  0.29974000  1.0 -0.4939975657
O  O154  1  0.12788000  0.76396000  0.70026000  1.0 -0.4939975657
O  O155  1  0.62788000  0.76396000  0.29974000  1.0 -0.4939975657
O  O156  1  0.37212000  0.23604000  0.70026000  1.0 -0.4939975657
O  O157  1  0.12788000  0.23604000  0.20026000  1.0 -0.4939975657
O  O158  1  0.87212000  0.76396000  0.79974000  1.0 -0.4939975657
O  O159  1  0.37212000  0.76396000  0.20026000  1.0 -0.4939975657
O  O160  1  0.62788000  0.23604000  0.79974000  1.0 -0.4939975657
O  O161  1  0.37212000  0.73604000  0.29974000  1.0 -0.4939975657
O  O162  1  0.62788000  0.26396000  0.70026000  1.0 -0.4939975657
O  O163  1  0.12788000  0.26396000  0.29974000  1.0 -0.4939975657
O  O164  1  0.87212000  0.73604000  0.70026000  1.0 -0.4939975657
O  O165  1  0.62788000  0.73604000  0.20026000  1.0 -0.4939975657
O  O166  1  0.37212000  0.26396000  0.79974000  1.0 -0.4939975657
O  O167  1  0.87212000  0.26396000  0.20026000  1.0 -0.4939975657
O  O168  1  0.12788000  0.73604000  0.79974000  1.0 -0.4939975657
