# DDEC6 charges by PACMAN v1.1 (https://github.com/mtap-research/PACMAN-charge/)
data_AVIPAX_FSR_pacman
_symmetry_space_group_name_H-M   'P 1'
_cell_length_a   12.34750000
_cell_length_b   11.19290000
_cell_length_c   29.42960000
_cell_angle_alpha   90.00000000
_cell_angle_beta   105.67800000
_cell_angle_gamma   90.00000000
_symmetry_Int_Tables_number   1
_chemical_formula_structural   Mg3H44C36N8O15
_chemical_formula_sum   'Mg12 H176 C144 N32 O60'
_cell_volume   3915.97675362
_cell_formula_units_Z   4
loop_
 _symmetry_equiv_pos_site_id
 _symmetry_equiv_pos_as_xyz
  1  'x, y, z'
loop_
 _atom_site_type_symbol
 _atom_site_label
 _atom_site_symmetry_multiplicity
 _atom_site_fract_x
 _atom_site_fract_y
 _atom_site_fract_z
 _atom_site_occupancy
 _atom_site_charge
Mg  Mg1  1  0.52281000  0.82673000  0.85988000  1.0 1.2666978966
Mg  Mg2  1  0.47719000  0.32673000  0.64012000  1.0 1.2666978966
Mg  Mg3  1  0.47719000  0.17327000  0.14012000  1.0 1.2666978966
Mg  Mg4  1  0.52281000  0.67327000  0.35988000  1.0 1.2666978966
Mg  Mg5  1  0.28050000  0.54225000  0.83391000  1.0 1.3943719993
Mg  Mg6  1  0.71950000  0.04225000  0.66609000  1.0 1.3943719993
Mg  Mg7  1  0.71950000  0.45775000  0.16609000  1.0 1.3943719993
Mg  Mg8  1  0.28050000  0.95775000  0.33391000  1.0 1.3943719993
Mg  Mg9  1  0.86898000  0.71020000  0.14158000  1.0 1.2257061134
Mg  Mg10  1  0.13102000  0.21020000  0.35842000  1.0 1.2257061134
Mg  Mg11  1  0.13102000  0.28980000  0.85842000  1.0 1.2257061134
Mg  Mg12  1  0.86898000  0.78980000  0.64158000  1.0 1.2257061134
H  H1  1  0.38390000  0.48400000  0.71590000  1.0 0.1110773197
H  H2  1  0.61610000  0.98400000  0.78410000  1.0 0.1110773197
H  H3  1  0.61610000  0.51600000  0.28410000  1.0 0.1110773197
H  H4  1  0.38390000  0.01600000  0.21590000  1.0 0.1110773197
H  H5  1  0.53800000  0.80590000  0.73360000  1.0 0.1185616224
H  H6  1  0.46200000  0.30590000  0.76640000  1.0 0.1185616224
H  H7  1  0.46200000  0.19410000  0.26640000  1.0 0.1185616224
H  H8  1  0.53800000  0.69410000  0.23360000  1.0 0.1185616224
H  H9  1  0.58790000  0.56730000  0.63870000  1.0 0.0992975555
H  H10  1  0.41210000  0.06730000  0.86130000  1.0 0.0992975555
H  H11  1  0.41210000  0.43270000  0.36130000  1.0 0.0992975555
H  H12  1  0.58790000  0.93270000  0.13870000  1.0 0.0992975555
H  H13  1  0.66980000  0.65640000  0.98540000  1.0 0.1110773197
H  H14  1  0.33020000  0.15640000  0.51460000  1.0 0.1110773197
H  H15  1  0.33020000  0.34360000  0.01460000  1.0 0.1110773197
H  H16  1  0.66980000  0.84360000  0.48540000  1.0 0.1110773197
H  H17  1  0.51030000  0.35040000  0.93520000  1.0 0.0992975555
H  H18  1  0.48970000  0.85040000  0.56480000  1.0 0.0992975555
H  H19  1  0.48970000  0.64960000  0.06480000  1.0 0.0992975555
H  H20  1  0.51030000  0.14960000  0.43520000  1.0 0.0992975555
H  H21  1  0.71150000  0.35510000  0.06350000  1.0 0.1110773197
H  H22  1  0.28850000  0.85510000  0.43650000  1.0 0.1110773197
H  H23  1  0.28850000  0.64490000  0.93650000  1.0 0.1110773197
H  H24  1  0.71150000  0.14490000  0.56350000  1.0 0.1110773197
H  H25  1  0.23620000  0.03390000  0.88380000  1.0 0.090177231
H  H26  1  0.76380000  0.53390000  0.61620000  1.0 0.090177231
H  H27  1  0.76380000  0.96610000  0.11620000  1.0 0.090177231
H  H28  1  0.23620000  0.46610000  0.38380000  1.0 0.090177231
H  H29  1  0.10010000  0.79950000  0.78020000  1.0 0.1283774479
H  H30  1  0.89990000  0.29950000  0.71980000  1.0 0.1283774479
H  H31  1  0.89990000  0.20050000  0.21980000  1.0 0.1283774479
H  H32  1  0.10010000  0.70050000  0.28020000  1.0 0.1283774479
H  H33  1  0.96680000  0.12800000  0.78430000  1.0 0.1110773197
H  H34  1  0.03320000  0.62800000  0.71570000  1.0 0.1110773197
H  H35  1  0.03320000  0.87200000  0.21570000  1.0 0.1110773197
H  H36  1  0.96680000  0.37200000  0.28430000  1.0 0.1110773197
H  H37  1  0.50360000  0.83600000  0.95560000  1.0 0.0705416816
H  H38  1  0.49640000  0.33600000  0.54440000  1.0 0.0705416816
H  H39  1  0.49640000  0.16400000  0.04440000  1.0 0.0705416816
H  H40  1  0.50360000  0.66400000  0.45560000  1.0 0.0705416816
H  H41  1  0.49980000  0.85600000  0.03580000  1.0 0.090177231
H  H42  1  0.50020000  0.35600000  0.46420000  1.0 0.090177231
H  H43  1  0.50020000  0.14400000  0.96420000  1.0 0.090177231
H  H44  1  0.49980000  0.64400000  0.53580000  1.0 0.090177231
H  H45  1  0.64340000  0.82400000  0.05940000  1.0 0.1472638677
H  H46  1  0.35660000  0.32400000  0.44060000  1.0 0.1472638677
H  H47  1  0.35660000  0.17600000  0.94060000  1.0 0.1472638677
H  H48  1  0.64340000  0.67600000  0.55940000  1.0 0.1472638677
H  H49  1  0.58800000  0.96400000  0.06100000  1.0 0.1185616224
H  H50  1  0.41200000  0.46400000  0.43900000  1.0 0.1185616224
H  H51  1  0.41200000  0.03600000  0.93900000  1.0 0.1185616224
H  H52  1  0.58800000  0.53600000  0.56100000  1.0 0.1185616224
H  H53  1  0.71410000  0.06700000  0.02110000  1.0 0.1283774479
H  H54  1  0.28590000  0.56700000  0.47890000  1.0 0.1283774479
H  H55  1  0.28590000  0.93300000  0.97890000  1.0 0.1283774479
H  H56  1  0.71410000  0.43300000  0.52110000  1.0 0.1283774479
H  H57  1  0.79910000  0.95500000  0.03810000  1.0 0.1185616224
H  H58  1  0.20090000  0.45500000  0.46190000  1.0 0.1283774479
H  H59  1  0.20090000  0.04500000  0.96190000  1.0 0.1283774479
H  H60  1  0.79910000  0.54500000  0.53810000  1.0 0.1283774479
H  H61  1  0.76290000  0.00300000  0.97890000  1.0 0.1185616224
H  H62  1  0.23710000  0.50300000  0.52110000  1.0 0.1185616224
H  H63  1  0.23710000  0.99700000  0.02110000  1.0 0.1185616224
H  H64  1  0.76290000  0.49700000  0.47890000  1.0 0.1185616224
H  H65  1  0.63310000  0.63090000  0.83040000  1.0 0.0524395163
H  H66  1  0.36690000  0.13090000  0.66960000  1.0 0.0524395163
H  H67  1  0.36690000  0.36910000  0.16960000  1.0 0.0524395163
H  H68  1  0.63310000  0.86910000  0.33040000  1.0 0.0524395163
H  H69  1  0.82780000  0.53270000  0.77210000  1.0 0.090177231
H  H70  1  0.17220000  0.03270000  0.72790000  1.0 0.090177231
H  H71  1  0.17220000  0.46730000  0.22790000  1.0 0.090177231
H  H72  1  0.82780000  0.96730000  0.27210000  1.0 0.090177231
H  H73  1  0.77190000  0.47960000  0.81090000  1.0 0.1110773197
H  H74  1  0.22810000  0.97960000  0.68910000  1.0 0.1110773197
H  H75  1  0.22810000  0.52040000  0.18910000  1.0 0.1110773197
H  H76  1  0.77190000  0.02040000  0.31090000  1.0 0.1110773197
H  H77  1  0.69380000  0.52570000  0.76140000  1.0 0.0603501516
H  H78  1  0.30620000  0.02570000  0.73860000  1.0 0.0603501516
H  H79  1  0.30620000  0.47430000  0.23860000  1.0 0.0603501516
H  H80  1  0.69380000  0.97430000  0.26140000  1.0 0.0603501516
H  H81  1  0.89370000  0.69640000  0.78160000  1.0 0.1283774479
H  H82  1  0.10630000  0.19640000  0.71840000  1.0 0.1283774479
H  H83  1  0.10630000  0.30360000  0.21840000  1.0 0.1283774479
H  H84  1  0.89370000  0.80360000  0.28160000  1.0 0.1283774479
H  H85  1  0.80590000  0.80400000  0.77640000  1.0 0.0992975555
H  H86  1  0.19410000  0.30400000  0.72360000  1.0 0.0992975555
H  H87  1  0.19410000  0.19600000  0.22360000  1.0 0.0992975555
H  H88  1  0.80590000  0.69600000  0.27640000  1.0 0.0992975555
H  H89  1  0.88890000  0.77280000  0.82690000  1.0 0.0992975555
H  H90  1  0.11110000  0.27280000  0.67310000  1.0 0.0992975555
H  H91  1  0.11110000  0.22720000  0.17310000  1.0 0.0992975555
H  H92  1  0.88890000  0.72720000  0.32690000  1.0 0.0992975555
H  H93  1  0.05190000  0.84700000  0.10610000  1.0 0.0800039409
H  H94  1  0.94810000  0.34700000  0.39390000  1.0 0.090177231
H  H95  1  0.94810000  0.15300000  0.89390000  1.0 0.090177231
H  H96  1  0.05190000  0.65300000  0.60610000  1.0 0.0800039409
H  H97  1  0.29200000  0.63180000  0.09470000  1.0 0.0705416816
H  H98  1  0.70800000  0.13180000  0.40530000  1.0 0.0705416816
H  H99  1  0.70800000  0.36820000  0.90530000  1.0 0.0705416816
H  H100  1  0.29200000  0.86820000  0.59470000  1.0 0.0705416816
H  H101  1  0.16770000  0.57700000  0.08190000  1.0 0.0992975555
H  H102  1  0.83230000  0.07700000  0.41810000  1.0 0.0992975555
H  H103  1  0.83230000  0.42300000  0.91810000  1.0 0.0992975555
H  H104  1  0.16770000  0.92300000  0.58190000  1.0 0.0992975555
H  H105  1  0.23520000  0.59850000  0.13590000  1.0 0.0319913819
H  H106  1  0.76480000  0.09850000  0.36410000  1.0 0.0407514395
H  H107  1  0.76480000  0.40150000  0.86410000  1.0 0.0319913819
H  H108  1  0.23520000  0.90150000  0.63590000  1.0 0.0319913819
H  H109  1  0.30320000  0.80790000  0.07760000  1.0 0.0603501516
H  H110  1  0.69680000  0.30790000  0.42240000  1.0 0.0603501516
H  H111  1  0.69680000  0.19210000  0.92240000  1.0 0.0603501516
H  H112  1  0.30320000  0.69210000  0.57760000  1.0 0.0603501516
H  H113  1  0.25370000  0.90580000  0.10620000  1.0 0.090177231
H  H114  1  0.74630000  0.40580000  0.39380000  1.0 0.090177231
H  H115  1  0.74630000  0.09420000  0.89380000  1.0 0.090177231
H  H116  1  0.25370000  0.59420000  0.60620000  1.0 0.090177231
H  H117  1  0.18550000  0.87110000  0.05350000  1.0 0.0800039409
H  H118  1  0.81450000  0.37110000  0.44650000  1.0 0.0800039409
H  H119  1  0.81450000  0.12890000  0.94650000  1.0 0.0800039409
H  H120  1  0.18550000  0.62890000  0.55350000  1.0 0.0800039409
H  H121  1  0.70390000  0.64230000  0.86500000  1.0 0.0603501516
H  H122  1  0.29610000  0.14230000  0.63500000  1.0 0.0603501516
H  H123  1  0.29610000  0.35770000  0.13500000  1.0 0.0603501516
H  H124  1  0.70390000  0.85770000  0.36500000  1.0 0.0603501516
H  H125  1  0.88100000  0.53160000  0.79920000  1.0 0.090177231
H  H126  1  0.11900000  0.03160000  0.70080000  1.0 0.090177231
H  H127  1  0.11900000  0.46840000  0.20080000  1.0 0.090177231
H  H128  1  0.88100000  0.96840000  0.29920000  1.0 0.090177231
H  H129  1  0.88960000  0.52950000  0.85450000  1.0 0.0407514395
H  H130  1  0.11040000  0.02950000  0.64550000  1.0 0.0407514395
H  H131  1  0.11040000  0.47050000  0.14550000  1.0 0.0407514395
H  H132  1  0.88960000  0.97050000  0.35450000  1.0 0.0407514395
H  H133  1  0.77910000  0.47990000  0.81720000  1.0 0.0992975555
H  H134  1  0.22090000  0.97990000  0.68280000  1.0 0.0992975555
H  H135  1  0.22090000  0.52010000  0.18280000  1.0 0.0992975555
H  H136  1  0.77910000  0.02010000  0.31720000  1.0 0.0992975555
H  H137  1  0.87900000  0.71020000  0.77580000  1.0 0.1283774479
H  H138  1  0.12100000  0.21020000  0.72420000  1.0 0.1283774479
H  H139  1  0.12100000  0.28980000  0.22420000  1.0 0.1283774479
H  H140  1  0.87900000  0.78980000  0.27580000  1.0 0.1283774479
H  H141  1  0.76960000  0.79070000  0.77170000  1.0 0.1110773197
H  H142  1  0.23040000  0.29070000  0.72830000  1.0 0.1110773197
H  H143  1  0.23040000  0.20930000  0.22830000  1.0 0.1110773197
H  H144  1  0.76960000  0.70930000  0.27170000  1.0 0.1110773197
H  H145  1  0.87760000  0.80630000  0.81590000  1.0 0.090177231
H  H146  1  0.12240000  0.30630000  0.68410000  1.0 0.090177231
H  H147  1  0.12240000  0.19370000  0.18410000  1.0 0.090177231
H  H148  1  0.87760000  0.69370000  0.31590000  1.0 0.090177231
H  H149  1  0.00440000  0.33480000  0.93110000  1.0 0.0992975555
H  H150  1  0.99560000  0.83480000  0.56890000  1.0 0.0992975555
H  H151  1  0.99560000  0.66520000  0.06890000  1.0 0.0992975555
H  H152  1  0.00440000  0.16520000  0.43110000  1.0 0.0992975555
H  H153  1  0.75160000  0.27590000  0.95470000  1.0 0.0603501516
H  H154  1  0.24840000  0.77590000  0.54530000  1.0 0.0603501516
H  H155  1  0.24840000  0.72410000  0.04530000  1.0 0.0603501516
H  H156  1  0.75160000  0.22410000  0.45470000  1.0 0.0603501516
H  H157  1  0.88230000  0.25750000  0.98060000  1.0 0.090177231
H  H158  1  0.11770000  0.75750000  0.51940000  1.0 0.090177231
H  H159  1  0.11770000  0.74250000  0.01940000  1.0 0.090177231
H  H160  1  0.88230000  0.24250000  0.48060000  1.0 0.090177231
H  H161  1  0.83580000  0.38730000  0.96240000  1.0 0.0800039409
H  H162  1  0.16420000  0.88730000  0.53760000  1.0 0.0800039409
H  H163  1  0.16420000  0.61270000  0.03760000  1.0 0.0800039409
H  H164  1  0.83580000  0.11270000  0.46240000  1.0 0.0800039409
H  H165  1  0.69280000  0.21610000  0.88490000  1.0 0.0800039409
H  H166  1  0.30720000  0.71610000  0.61510000  1.0 0.0800039409
H  H167  1  0.30720000  0.78390000  0.11510000  1.0 0.0800039409
H  H168  1  0.69280000  0.28390000  0.38490000  1.0 0.0800039409
H  H169  1  0.73830000  0.29070000  0.84750000  1.0 0.0800039409
H  H170  1  0.26170000  0.79070000  0.65250000  1.0 0.0800039409
H  H171  1  0.26170000  0.70930000  0.15250000  1.0 0.0800039409
H  H172  1  0.73830000  0.20930000  0.34750000  1.0 0.0800039409
H  H173  1  0.78210000  0.15740000  0.86100000  1.0 0.090177231
H  H174  1  0.21790000  0.65740000  0.63900000  1.0 0.090177231
H  H175  1  0.21790000  0.84260000  0.13900000  1.0 0.090177231
H  H176  1  0.78210000  0.34260000  0.36100000  1.0 0.090177231
C  C1  1  0.43372000  0.53930000  0.70762000  1.0 -0.0076486566
C  C2  1  0.56628000  0.03930000  0.79238000  1.0 -0.0076486566
C  C3  1  0.56628000  0.46070000  0.29238000  1.0 -0.003778163
C  C4  1  0.43372000  0.96070000  0.20762000  1.0 -0.0076486566
C  C5  1  0.45201000  0.64940000  0.73091000  1.0 -0.1136722398
C  C6  1  0.54799000  0.14940000  0.76909000  1.0 -0.1136722398
C  C7  1  0.54799000  0.35060000  0.26909000  1.0 -0.1136722398
C  C8  1  0.45201000  0.85060000  0.23091000  1.0 -0.1136722398
C  C9  1  0.52407000  0.73030000  0.71847000  1.0 -0.1293286924
C  C10  1  0.47593000  0.23030000  0.78153000  1.0 -0.1293286924
C  C11  1  0.47593000  0.26970000  0.28153000  1.0 -0.1293286924
C  C12  1  0.52407000  0.76970000  0.21847000  1.0 -0.1293286924
C  C13  1  0.57580000  0.69959000  0.68358000  1.0 -0.0994040464
C  C14  1  0.42420000  0.19959000  0.81642000  1.0 -0.0994040464
C  C15  1  0.42420000  0.30041000  0.31642000  1.0 -0.0994040464
C  C16  1  0.57580000  0.80041000  0.18358000  1.0 -0.0994040464
C  C17  1  0.55265000  0.58810000  0.66255000  1.0 0.0319913819
C  C18  1  0.44735000  0.08810000  0.83745000  1.0 0.0319913819
C  C19  1  0.44735000  0.41190000  0.33745000  1.0 0.0319913819
C  C20  1  0.55265000  0.91190000  0.16255000  1.0 0.0319913819
C  C21  1  0.40215000  0.67560000  0.77129000  1.0 0.5668639075
C  C22  1  0.59785000  0.17560000  0.72871000  1.0 0.5668639075
C  C23  1  0.59785000  0.32440000  0.22871000  1.0 0.5668639075
C  C24  1  0.40215000  0.82440000  0.27129000  1.0 0.5668639075
C  C25  1  0.27493000  0.81564000  0.85737000  1.0 0.620357288
C  C26  1  0.72507000  0.31564000  0.64263000  1.0 0.620357288
C  C27  1  0.72507000  0.18436000  0.14263000  1.0 0.620357288
C  C28  1  0.27493000  0.68436000  0.35737000  1.0 0.620357288
C  C29  1  0.51666000  0.57540000  0.90762000  1.0 0.5985939931
C  C30  1  0.48334000  0.07540000  0.59238000  1.0 0.5985939931
C  C31  1  0.48334000  0.42460000  0.09238000  1.0 0.5985939931
C  C32  1  0.51666000  0.92460000  0.40762000  1.0 0.5985939931
C  C33  1  0.77050000  0.58540000  0.07310000  1.0 0.5763667355
C  C34  1  0.22950000  0.08540000  0.42690000  1.0 0.5763667355
C  C35  1  0.22950000  0.41460000  0.92690000  1.0 0.5763667355
C  C36  1  0.77050000  0.91460000  0.57310000  1.0 0.5763667355
C  C37  1  0.70034000  0.51630000  0.03154000  1.0 -0.0820109417
C  C38  1  0.29966000  0.01630000  0.46846000  1.0 -0.0820109417
C  C39  1  0.29966000  0.48370000  0.96846000  1.0 -0.0820109417
C  C40  1  0.70034000  0.98370000  0.53154000  1.0 -0.0820109417
C  C41  1  0.65249000  0.57500000  0.98928000  1.0 -0.091812155
C  C42  1  0.34751000  0.07500000  0.51072000  1.0 -0.091812155
C  C43  1  0.34751000  0.42500000  0.01072000  1.0 -0.091812155
C  C44  1  0.65249000  0.92500000  0.48928000  1.0 -0.091812155
C  C45  1  0.57916000  0.51350000  0.95275000  1.0 -0.091812155
C  C46  1  0.42084000  0.01350000  0.54725000  1.0 -0.091812155
C  C47  1  0.42084000  0.48650000  0.04725000  1.0 -0.091812155
C  C48  1  0.57916000  0.98650000  0.45275000  1.0 -0.091812155
C  C49  1  0.56100000  0.39290000  0.95990000  1.0 0.0083049553
C  C50  1  0.43900000  0.89290000  0.54010000  1.0 0.0083049553
C  C51  1  0.43900000  0.60710000  0.04010000  1.0 0.0083049553
C  C52  1  0.56100000  0.10710000  0.45990000  1.0 0.0083049553
C  C53  1  0.67764000  0.39550000  0.03474000  1.0 0.0407514395
C  C54  1  0.32236000  0.89550000  0.46526000  1.0 0.0407514395
C  C55  1  0.32236000  0.60450000  0.96526000  1.0 0.0407514395
C  C56  1  0.67764000  0.10450000  0.53474000  1.0 0.0407514395
C  C57  1  0.65985000  0.78154000  0.67110000  1.0 0.5763667355
C  C58  1  0.34015000  0.28154000  0.82890000  1.0 0.5763667355
C  C59  1  0.34015000  0.21846000  0.32890000  1.0 0.5763667355
C  C60  1  0.65985000  0.71846000  0.17110000  1.0 0.5763667355
C  C61  1  0.93758000  0.94451000  0.72703000  1.0 0.5257661472
C  C62  1  0.06242000  0.44451000  0.77297000  1.0 0.5238206218
C  C63  1  0.06242000  0.05549000  0.27297000  1.0 0.5238206218
C  C64  1  0.93758000  0.55549000  0.22703000  1.0 0.5257661472
C  C65  1  0.02194000  0.96232000  0.77425000  1.0 -0.091812155
C  C66  1  0.97806000  0.46232000  0.72575000  1.0 -0.091812155
C  C67  1  0.97806000  0.03768000  0.22575000  1.0 -0.091812155
C  C68  1  0.02194000  0.53768000  0.27425000  1.0 -0.091812155
C  C69  1  0.17941000  0.01481000  0.85589000  1.0 0.0319913819
C  C70  1  0.82059000  0.51481000  0.64411000  1.0 0.0319913819
C  C71  1  0.82059000  0.98519000  0.14411000  1.0 0.0319913819
C  C72  1  0.17941000  0.48519000  0.35589000  1.0 0.0319913819
C  C73  1  0.18225000  0.90338000  0.83595000  1.0 -0.0709685219
C  C74  1  0.81775000  0.40338000  0.66405000  1.0 -0.0709685219
C  C75  1  0.81775000  0.09662000  0.16405000  1.0 -0.0709685219
C  C76  1  0.18225000  0.59662000  0.33595000  1.0 -0.0709685219
C  C77  1  0.10126000  0.87577000  0.79445000  1.0 -0.1136722398
C  C78  1  0.89874000  0.37577000  0.70555000  1.0 -0.1136722398
C  C79  1  0.89874000  0.12423000  0.20555000  1.0 -0.1136722398
C  C80  1  0.10126000  0.62423000  0.29445000  1.0 -0.1136722398
C  C81  1  0.02328000  0.07070000  0.79757000  1.0 -0.0398568298
C  C82  1  0.97672000  0.57070000  0.70243000  1.0 -0.0398568298
C  C83  1  0.97672000  0.92930000  0.20243000  1.0 -0.0398568298
C  C84  1  0.02328000  0.42930000  0.29757000  1.0 -0.0398568298
C  C85  1  0.57613000  0.88650000  0.95753000  1.0 0.2804029266
C  C86  1  0.42387000  0.38650000  0.54247000  1.0 0.2804029266
C  C87  1  0.42387000  0.11350000  0.04247000  1.0 0.2804029266
C  C88  1  0.57613000  0.61350000  0.45753000  1.0 0.2804029266
C  C89  1  0.59000000  0.88360000  0.04080000  1.0 -0.3157465924
C  C90  1  0.41000000  0.38360000  0.45920000  1.0 -0.3157465924
C  C91  1  0.41000000  0.11640000  0.95920000  1.0 -0.3157465924
C  C92  1  0.59000000  0.61640000  0.54080000  1.0 -0.3157465924
C  C93  1  0.73271000  0.98910000  0.01061000  1.0 -0.3157465924
C  C94  1  0.26729000  0.48910000  0.48939000  1.0 -0.3157465924
C  C95  1  0.26729000  0.01090000  0.98939000  1.0 -0.3157465924
C  C96  1  0.73271000  0.51090000  0.51061000  1.0 -0.3157465924
C  C97  1  0.68490000  0.69030000  0.82660000  1.0 0.1435566451
C  C98  1  0.31510000  0.19030000  0.67340000  1.0 0.1435566451
C  C99  1  0.31510000  0.30970000  0.17340000  1.0 0.1435566451
C  C100  1  0.68490000  0.80970000  0.32660000  1.0 0.1435566451
C  C101  1  0.76420000  0.53940000  0.78590000  1.0 -0.1851543468
C  C102  1  0.23580000  0.03940000  0.71410000  1.0 -0.1851543468
C  C103  1  0.23580000  0.46060000  0.21410000  1.0 -0.1851543468
C  C104  1  0.76420000  0.96060000  0.28590000  1.0 -0.1851543468
C  C105  1  0.84420000  0.73930000  0.79700000  1.0 -0.2816218753
C  C106  1  0.15580000  0.23930000  0.70300000  1.0 -0.2816218753
C  C107  1  0.15580000  0.26070000  0.20300000  1.0 -0.2816218753
C  C108  1  0.84420000  0.76070000  0.29700000  1.0 -0.2816218753
C  C109  1  0.08110000  0.76850000  0.11270000  1.0 0.0992975555
C  C110  1  0.91890000  0.26850000  0.38730000  1.0 0.0992975555
C  C111  1  0.91890000  0.23150000  0.88730000  1.0 0.0992975555
C  C112  1  0.08110000  0.73150000  0.61270000  1.0 0.0992975555
C  C113  1  0.22120000  0.62940000  0.10370000  1.0 -0.1528075804
C  C114  1  0.77880000  0.12940000  0.39630000  1.0 -0.1528075804
C  C115  1  0.77880000  0.37060000  0.89630000  1.0 -0.1528075804
C  C116  1  0.22120000  0.87060000  0.60370000  1.0 -0.1528075804
C  C117  1  0.23430000  0.84060000  0.08320000  1.0 -0.1989703198
C  C118  1  0.76570000  0.34060000  0.41680000  1.0 -0.1989703198
C  C119  1  0.76570000  0.15940000  0.91680000  1.0 -0.1989703198
C  C120  1  0.23430000  0.65940000  0.58320000  1.0 -0.1989703198
C  C121  1  0.71980000  0.69790000  0.84330000  1.0 0.1598518987
C  C122  1  0.28020000  0.19790000  0.65670000  1.0 0.1598518987
C  C123  1  0.28020000  0.30210000  0.15670000  1.0 0.1598518987
C  C124  1  0.71980000  0.80210000  0.34330000  1.0 0.1598518987
C  C125  1  0.83900000  0.54030000  0.82300000  1.0 -0.1989703198
C  C126  1  0.16100000  0.04030000  0.67700000  1.0 -0.1989703198
C  C127  1  0.16100000  0.45970000  0.17700000  1.0 -0.1989703198
C  C128  1  0.83900000  0.95970000  0.32300000  1.0 -0.1989703198
C  C129  1  0.83210000  0.74900000  0.79360000  1.0 -0.2933929582
C  C130  1  0.16790000  0.24900000  0.70640000  1.0 -0.2933929582
C  C131  1  0.16790000  0.25100000  0.20640000  1.0 -0.2933929582
C  C132  1  0.83210000  0.75100000  0.29360000  1.0 -0.2933929582
C  C133  1  0.94880000  0.30600000  0.90440000  1.0 0.1283774479
C  C134  1  0.05120000  0.80600000  0.59560000  1.0 0.1283774479
C  C135  1  0.05120000  0.69400000  0.09560000  1.0 0.1283774479
C  C136  1  0.94880000  0.19400000  0.40440000  1.0 0.1283774479
C  C137  1  0.82810000  0.30150000  0.95570000  1.0 -0.2413512786
C  C138  1  0.17190000  0.80150000  0.54430000  1.0 -0.2413512786
C  C139  1  0.17190000  0.69850000  0.04430000  1.0 -0.2413512786
C  C140  1  0.82810000  0.19850000  0.45570000  1.0 -0.2413512786
C  C141  1  0.75830000  0.23180000  0.87300000  1.0 -0.0076486566
C  C142  1  0.24170000  0.73180000  0.62700000  1.0 -0.0076486566
C  C143  1  0.24170000  0.76820000  0.12700000  1.0 -0.0076486566
C  C144  1  0.75830000  0.26820000  0.37300000  1.0 -0.0076486566
N  N1  1  0.48350000  0.50816000  0.67400000  1.0 -0.3724988023
N  N2  1  0.51650000  0.00816000  0.82600000  1.0 -0.3724988023
N  N3  1  0.51650000  0.49184000  0.32600000  1.0 -0.3724988023
N  N4  1  0.48350000  0.99184000  0.17400000  1.0 -0.3724988023
N  N5  1  0.10039000  0.09787000  0.83780000  1.0 -0.3724988023
N  N6  1  0.89961000  0.59787000  0.66220000  1.0 -0.3724988023
N  N7  1  0.89961000  0.90213000  0.16220000  1.0 -0.3724988023
N  N8  1  0.10039000  0.40213000  0.33780000  1.0 -0.3724988023
N  N9  1  0.61070000  0.33321000  0.99950000  1.0 -0.2933929582
N  N10  1  0.38930000  0.83321000  0.50050000  1.0 -0.2933929582
N  N11  1  0.38930000  0.66679000  0.00050000  1.0 -0.2933929582
N  N12  1  0.61070000  0.16679000  0.49950000  1.0 -0.2933929582
N  N13  1  0.63048000  0.91860000  0.00106000  1.0 0.0208558197
N  N14  1  0.36952000  0.41860000  0.49894000  1.0 0.0208558197
N  N15  1  0.36952000  0.08140000  0.99894000  1.0 0.0208558197
N  N16  1  0.63048000  0.58140000  0.50106000  1.0 0.0208558197
N  N17  1  0.76280000  0.65900000  0.80580000  1.0 0.1678219439
N  N18  1  0.23720000  0.15900000  0.69420000  1.0 0.1678219439
N  N19  1  0.23720000  0.34100000  0.19420000  1.0 0.1678219439
N  N20  1  0.76280000  0.84100000  0.30580000  1.0 0.1678219439
N  N21  1  0.17550000  0.74660000  0.10150000  1.0 0.1598518987
N  N22  1  0.82450000  0.24660000  0.39850000  1.0 0.1598518987
N  N23  1  0.82450000  0.25340000  0.89850000  1.0 0.1598518987
N  N24  1  0.17550000  0.75340000  0.60150000  1.0 0.1598518987
N  N25  1  0.78840000  0.66000000  0.81910000  1.0 0.1678219439
N  N26  1  0.21160000  0.16000000  0.68090000  1.0 0.1678219439
N  N27  1  0.21160000  0.34000000  0.18090000  1.0 0.1678219439
N  N28  1  0.78840000  0.84000000  0.31910000  1.0 0.1598518987
N  N29  1  0.84960000  0.27780000  0.91100000  1.0 0.1598518987
N  N30  1  0.15040000  0.77780000  0.58900000  1.0 0.1598518987
N  N31  1  0.15040000  0.72220000  0.08900000  1.0 0.1598518987
N  N32  1  0.84960000  0.22220000  0.41100000  1.0 0.1598518987
O  O1  1  0.24707000  0.70799000  0.85442000  1.0 -0.6584707667
O  O2  1  0.75293000  0.20799000  0.64558000  1.0 -0.6584707667
O  O3  1  0.75293000  0.29201000  0.14558000  1.0 -0.6584707667
O  O4  1  0.24707000  0.79201000  0.35442000  1.0 -0.6584707667
O  O5  1  0.37088000  0.85775000  0.87635000  1.0 -0.6584707667
O  O6  1  0.62912000  0.35775000  0.62365000  1.0 -0.6584707667
O  O7  1  0.62912000  0.14225000  0.12365000  1.0 -0.6584707667
O  O8  1  0.37088000  0.64225000  0.37635000  1.0 -0.6584707667
O  O9  1  0.43129000  0.52361000  0.88317000  1.0 -0.6532656644
O  O10  1  0.56871000  0.02361000  0.61683000  1.0 -0.6532656644
O  O11  1  0.56871000  0.47639000  0.11683000  1.0 -0.6532656644
O  O12  1  0.43129000  0.97639000  0.38317000  1.0 -0.6532656644
O  O13  1  0.55648000  0.67299000  0.89890000  1.0 -0.6584707667
O  O14  1  0.44352000  0.17299000  0.60110000  1.0 -0.6584707667
O  O15  1  0.44352000  0.32701000  0.10110000  1.0 -0.6584707667
O  O16  1  0.55648000  0.82701000  0.39890000  1.0 -0.6584707667
O  O17  1  0.32937000  0.60559000  0.77734000  1.0 -0.6081906204
O  O18  1  0.67063000  0.10559000  0.72266000  1.0 -0.6081906204
O  O19  1  0.67063000  0.39441000  0.22266000  1.0 -0.6081906204
O  O20  1  0.32937000  0.89441000  0.27734000  1.0 -0.6081906204
O  O21  1  0.44040000  0.76539000  0.79580000  1.0 -0.639277028
O  O22  1  0.55960000  0.26539000  0.70420000  1.0 -0.639277028
O  O23  1  0.55960000  0.23461000  0.20420000  1.0 -0.639277028
O  O24  1  0.44040000  0.73461000  0.29580000  1.0 -0.639277028
O  O25  1  0.79723000  0.53789000  0.11406000  1.0 -0.6920952667
O  O26  1  0.20277000  0.03789000  0.38594000  1.0 -0.6920952667
O  O27  1  0.20277000  0.46211000  0.88594000  1.0 -0.6920952667
O  O28  1  0.79723000  0.96211000  0.61406000  1.0 -0.6920952667
O  O29  1  0.80177000  0.68961000  0.06698000  1.0 -0.6218842139
O  O30  1  0.19823000  0.18961000  0.43302000  1.0 -0.6218842139
O  O31  1  0.19823000  0.31039000  0.93302000  1.0 -0.6218842139
O  O32  1  0.80177000  0.81039000  0.56698000  1.0 -0.6218842139
O  O33  1  0.71053000  0.74105000  0.64255000  1.0 -0.6264940371
O  O34  1  0.28947000  0.24105000  0.85745000  1.0 -0.6264940371
O  O35  1  0.28947000  0.25895000  0.35745000  1.0 -0.6264940371
O  O36  1  0.71053000  0.75895000  0.14255000  1.0 -0.6264940371
O  O37  1  0.67578000  0.88070000  0.69077000  1.0 -0.6081906204
O  O38  1  0.32422000  0.38070000  0.80923000  1.0 -0.6081906204
O  O39  1  0.32422000  0.11930000  0.30923000  1.0 -0.6081906204
O  O40  1  0.67578000  0.61930000  0.19077000  1.0 -0.6081906204
O  O41  1  0.93629000  0.84307000  0.70825000  1.0 -0.6532656644
O  O42  1  0.06371000  0.34307000  0.79175000  1.0 -0.6532656644
O  O43  1  0.06371000  0.15693000  0.29175000  1.0 -0.6532656644
O  O44  1  0.93629000  0.65693000  0.20825000  1.0 -0.6532656644
O  O45  1  0.87825000  0.03199000  0.71031000  1.0 -0.5963975658
O  O46  1  0.12175000  0.53199000  0.78969000  1.0 -0.5963975658
O  O47  1  0.12175000  0.96801000  0.28969000  1.0 -0.5963975658
O  O48  1  0.87825000  0.46801000  0.21031000  1.0 -0.5963975658
O  O49  1  0.60403000  0.91415000  0.92169000  1.0 -0.5381759872
O  O50  1  0.39597000  0.41415000  0.57831000  1.0 -0.5381759872
O  O51  1  0.39597000  0.08585000  0.07831000  1.0 -0.5381759872
O  O52  1  0.60403000  0.58585000  0.42169000  1.0 -0.5381759872
O  O53  1  0.67478000  0.79330000  0.84163000  1.0 -0.3724988023
O  O54  1  0.32522000  0.29330000  0.65837000  1.0 -0.3724988023
O  O55  1  0.32522000  0.20670000  0.15837000  1.0 -0.3724988023
O  O56  1  0.67478000  0.70670000  0.34163000  1.0 -0.3724988023
O  O57  1  0.02565000  0.70092000  0.13045000  1.0 -0.3431841601
O  O58  1  0.97435000  0.20092000  0.36955000  1.0 -0.3431841601
O  O59  1  0.97435000  0.29908000  0.86955000  1.0 -0.3431841601
O  O60  1  0.02565000  0.79908000  0.63045000  1.0 -0.3431841601
