# DDEC6 charges by PACMAN v1.1 (https://github.com/mtap-research/PACMAN-charge/)
data_AVOSIO_ASR_pacman
_symmetry_space_group_name_H-M   'P 1'
_cell_length_a   24.40200000
_cell_length_b   24.40200000
_cell_length_c   13.74610000
_cell_angle_alpha   90.00000000
_cell_angle_beta   90.00000000
_cell_angle_gamma   120.00000000
_symmetry_Int_Tables_number   1
_chemical_formula_structural   AgH36(C11O2)3
_chemical_formula_sum   'Ag6 H216 C198 O36'
_cell_volume   7088.60825668
_cell_formula_units_Z   6
loop_
 _symmetry_equiv_pos_site_id
 _symmetry_equiv_pos_as_xyz
  1  'x, y, z'
loop_
 _atom_site_type_symbol
 _atom_site_label
 _atom_site_symmetry_multiplicity
 _atom_site_fract_x
 _atom_site_fract_y
 _atom_site_fract_z
 _atom_site_occupancy
 _atom_site_charge
Ag  Ag1  1  0.90526000  0.23011000  0.09221000  1.0 0.4855104185
Ag  Ag2  1  0.76989000  0.67515000  0.75888000  1.0 0.4847930468
Ag  Ag3  1  0.32485000  0.09474000  0.42554000  1.0 0.4847930468
Ag  Ag4  1  0.83546000  0.65596000  0.24629000  1.0 0.4246888853
Ag  Ag5  1  0.34404000  0.17950000  0.91296000  1.0 0.4246888853
Ag  Ag6  1  0.82050000  0.16454000  0.57962000  1.0 0.4246888853
H  H1  1  0.09430000  0.19200000  0.26870000  1.0 0.1190785183
H  H2  1  0.80800000  0.90230000  0.93537000  1.0 0.1190785183
H  H3  1  0.09770000  0.90570000  0.60203000  1.0 0.1190785183
H  H4  1  0.88410000  0.03480000  0.27070000  1.0 0.1310026988
H  H5  1  0.96520000  0.84930000  0.93737000  1.0 0.1310026988
H  H6  1  0.15070000  0.11590000  0.60403000  1.0 0.1310026988
H  H7  1  0.97480000  0.00430000  0.43660000  1.0 0.1190785183
H  H8  1  0.99570000  0.97050000  0.10327000  1.0 0.1190785183
H  H9  1  0.02950000  0.02520000  0.76993000  1.0 0.1190785183
H  H10  1  0.90390000  0.98540000  0.40990000  1.0 0.1190785183
H  H11  1  0.01460000  0.91850000  0.07657000  1.0 0.1190785183
H  H12  1  0.08150000  0.09610000  0.74323000  1.0 0.1190785183
H  H13  1  0.84950000  0.91550000  0.27850000  1.0 0.1190785183
H  H14  1  0.08450000  0.93400000  0.94517000  1.0 0.1190785183
H  H15  1  0.06600000  0.15050000  0.61183000  1.0 0.1190785183
H  H16  1  0.00640000  0.86060000  0.26330000  1.0 0.1190785183
H  H17  1  0.13940000  0.14580000  0.92997000  1.0 0.1190785183
H  H18  1  0.85420000  0.99360000  0.59663000  1.0 0.1190785183
H  H19  1  0.05810000  0.92850000  0.40230000  1.0 0.1115113621
H  H20  1  0.07150000  0.12960000  0.06897000  1.0 0.1190785183
H  H21  1  0.87040000  0.94190000  0.73563000  1.0 0.1190785183
H  H22  1  0.04050000  0.98130000  0.43140000  1.0 0.1190785183
H  H23  1  0.01870000  0.05920000  0.09807000  1.0 0.1190785183
H  H24  1  0.94080000  0.95950000  0.76473000  1.0 0.1190785183
H  H25  1  0.11430000  0.93860000  0.25960000  1.0 0.1190785183
H  H26  1  0.06140000  0.17570000  0.92627000  1.0 0.1190785183
H  H27  1  0.82430000  0.88570000  0.59293000  1.0 0.1190785183
H  H28  1  0.17130000  0.14960000  0.23720000  1.0 0.1310026988
H  H29  1  0.85040000  0.02170000  0.90387000  1.0 0.1310026988
H  H30  1  0.97830000  0.82870000  0.57053000  1.0 0.1310026988
H  H31  1  0.12200000  0.14100000  0.38500000  1.0 0.1115113621
H  H32  1  0.85900000  0.98100000  0.05167000  1.0 0.1115113621
H  H33  1  0.01900000  0.87800000  0.71833000  1.0 0.1115113621
H  H34  1  0.07070000  0.07380000  0.42810000  1.0 0.1190785183
H  H35  1  0.92620000  0.99690000  0.09477000  1.0 0.1190785183
H  H36  1  0.00310000  0.92930000  0.76143000  1.0 0.1190785183
H  H37  1  0.09990000  0.29860000  0.20420000  1.0 0.1115113621
H  H38  1  0.70140000  0.80130000  0.87087000  1.0 0.1115113621
H  H39  1  0.19870000  0.90010000  0.53753000  1.0 0.1115113621
H  H40  1  0.09680000  0.28760000  0.08900000  1.0 0.1190785183
H  H41  1  0.71240000  0.80920000  0.75567000  1.0 0.1190785183
H  H42  1  0.19080000  0.90320000  0.42233000  1.0 0.1190785183
H  H43  1  0.11310000  0.24570000  0.15980000  1.0 0.1005538517
H  H44  1  0.75430000  0.86740000  0.82647000  1.0 0.1005538517
H  H45  1  0.13260000  0.88690000  0.49313000  1.0 0.1005538517
H  H46  1  0.82070000  0.07670000  0.23720000  1.0 0.0908460878
H  H47  1  0.92330000  0.74400000  0.90387000  1.0 0.0908460878
H  H48  1  0.25600000  0.17930000  0.57053000  1.0 0.0908460878
H  H49  1  0.82600000  0.04610000  0.13600000  1.0 0.1005538517
H  H50  1  0.95390000  0.77990000  0.80267000  1.0 0.1005538517
H  H51  1  0.22010000  0.17400000  0.46933000  1.0 0.1005538517
H  H52  1  0.78130000  0.13250000  0.15120000  1.0 0.1115113621
H  H53  1  0.86750000  0.64880000  0.81787000  1.0 0.1115113621
H  H54  1  0.35120000  0.21870000  0.48453000  1.0 0.1115113621
H  H55  1  0.83940000  0.12070000  0.98220000  1.0 0.1310026988
H  H56  1  0.87930000  0.71870000  0.64887000  1.0 0.1310026988
H  H57  1  0.28130000  0.16060000  0.31553000  1.0 0.1310026988
H  H58  1  0.79520000  0.15410000  0.98980000  1.0 0.1497899499
H  H59  1  0.84590000  0.64110000  0.65647000  1.0 0.1497899499
H  H60  1  0.35890000  0.20480000  0.32313000  1.0 0.1497899499
H  H61  1  0.75290000  0.82520000  0.23560000  1.0 0.1190785183
H  H62  1  0.17480000  0.92770000  0.90227000  1.0 0.1190785183
H  H63  1  0.07230000  0.24710000  0.56893000  1.0 0.1190785183
H  H64  1  0.73770000  0.80450000  0.12400000  1.0 0.1310026988
H  H65  1  0.19550000  0.93320000  0.79067000  1.0 0.1310026988
H  H66  1  0.06680000  0.26230000  0.45733000  1.0 0.1310026988
H  H67  1  0.79140000  0.87490000  0.15130000  1.0 0.1115113621
H  H68  1  0.12510000  0.91650000  0.81797000  1.0 0.1115113621
H  H69  1  0.08350000  0.20860000  0.48463000  1.0 0.1115113621
H  H70  1  0.97430000  0.76880000  0.21970000  1.0 0.0908460878
H  H71  1  0.23120000  0.20550000  0.88637000  1.0 0.0908460878
H  H72  1  0.79450000  0.02570000  0.55303000  1.0 0.0908460878
H  H73  1  0.98620000  0.79750000  0.11150000  1.0 0.1115113621
H  H74  1  0.20250000  0.18870000  0.77817000  1.0 0.1115113621
H  H75  1  0.81130000  0.01380000  0.44483000  1.0 0.1115113621
H  H76  1  0.94650000  0.67770000  0.11940000  1.0 0.1005538517
H  H77  1  0.32230000  0.26880000  0.78607000  1.0 0.1005538517
H  H78  1  0.73120000  0.05350000  0.45273000  1.0 0.1005538517
H  H79  1  0.84720000  0.69370000  0.06780000  1.0 0.1497899499
H  H80  1  0.30630000  0.15350000  0.73447000  1.0 0.1497899499
H  H81  1  0.84650000  0.15280000  0.40113000  1.0 0.1497899499
H  H82  1  0.85450000  0.63100000  0.04880000  1.0 0.141587156
H  H83  1  0.36900000  0.22350000  0.71547000  1.0 0.141587156
H  H84  1  0.77650000  0.14550000  0.38213000  1.0 0.141587156
H  H85  1  0.19370000  0.92010000  0.18630000  1.0 0.1115113621
H  H86  1  0.07990000  0.27360000  0.85297000  1.0 0.1115113621
H  H87  1  0.72640000  0.80630000  0.51963000  1.0 0.1115113621
H  H88  1  0.21250000  0.92770000  0.07360000  1.0 0.1310026988
H  H89  1  0.07230000  0.28480000  0.74027000  1.0 0.1310026988
H  H90  1  0.71520000  0.78750000  0.40693000  1.0 0.1310026988
H  H91  1  0.14290000  0.91160000  0.10540000  1.0 0.1115113621
H  H92  1  0.08840000  0.23130000  0.77207000  1.0 0.1115113621
H  H93  1  0.76870000  0.85710000  0.43873000  1.0 0.1115113621
H  H94  1  0.25930000  0.20480000  0.17000000  1.0 0.1005538517
H  H95  1  0.79520000  0.05450000  0.83667000  1.0 0.1005538517
H  H96  1  0.94550000  0.74070000  0.50333000  1.0 0.1005538517
H  H97  1  0.23690000  0.19100000  0.05790000  1.0 0.1005538517
H  H98  1  0.80900000  0.04590000  0.72457000  1.0 0.1005538517
H  H99  1  0.95410000  0.76310000  0.39123000  1.0 0.1005538517
H  H100  1  0.31670000  0.27420000  0.02250000  1.0 0.141587156
H  H101  1  0.72580000  0.04250000  0.68917000  1.0 0.141587156
H  H102  1  0.95750000  0.68330000  0.35583000  1.0 0.141587156
H  H103  1  0.38840000  0.28520000  0.00720000  1.0 0.1310026988
H  H104  1  0.71480000  0.10320000  0.67387000  1.0 0.1310026988
H  H105  1  0.89680000  0.61160000  0.34053000  1.0 0.1310026988
H  H106  1  0.36000000  0.19890000  0.08940000  1.0 0.1190785183
H  H107  1  0.80110000  0.16110000  0.75607000  1.0 0.1190785183
H  H108  1  0.83890000  0.64000000  0.42273000  1.0 0.1190785183
H  H109  1  0.83430000  0.34580000  0.78230000  1.0 0.1190785183
H  H110  1  0.65420000  0.48850000  0.44897000  1.0 0.1190785183
H  H111  1  0.51150000  0.16570000  0.11563000  1.0 0.1190785183
H  H112  1  0.63640000  0.16450000  0.78470000  1.0 0.1190785183
H  H113  1  0.83550000  0.47190000  0.45137000  1.0 0.1190785183
H  H114  1  0.52810000  0.36360000  0.11803000  1.0 0.1190785183
H  H115  1  0.64770000  0.26640000  0.60120000  1.0 0.1190785183
H  H116  1  0.73360000  0.38130000  0.26787000  1.0 0.1190785183
H  H117  1  0.61870000  0.35230000  0.93453000  1.0 0.1190785183
H  H118  1  0.60780000  0.19540000  0.64080000  1.0 0.1115113621
H  H119  1  0.80460000  0.41240000  0.30747000  1.0 0.1115113621
H  H120  1  0.58760000  0.39220000  0.97413000  1.0 0.1115113621
H  H121  1  0.53370000  0.16890000  0.76870000  1.0 0.1190785183
H  H122  1  0.83110000  0.36480000  0.43537000  1.0 0.1190785183
H  H123  1  0.63520000  0.46630000  0.10203000  1.0 0.1190785183
H  H124  1  0.55230000  0.36710000  0.74560000  1.0 0.1310026988
H  H125  1  0.63290000  0.18520000  0.41227000  1.0 0.1310026988
H  H126  1  0.81480000  0.44770000  0.07893000  1.0 0.1310026988
H  H127  1  0.65590000  0.35120000  0.59110000  1.0 0.1190785183
H  H128  1  0.64880000  0.30470000  0.25777000  1.0 0.1190785183
H  H129  1  0.69530000  0.34410000  0.92443000  1.0 0.1190785183
H  H130  1  0.62180000  0.39210000  0.60670000  1.0 0.1115113621
H  H131  1  0.60790000  0.22970000  0.27337000  1.0 0.1115113621
H  H132  1  0.77030000  0.37820000  0.94003000  1.0 0.1115113621
H  H133  1  0.64830000  0.45910000  0.75120000  1.0 0.1190785183
H  H134  1  0.54090000  0.18920000  0.41787000  1.0 0.1190785183
H  H135  1  0.81080000  0.35170000  0.08453000  1.0 0.1190785183
H  H136  1  0.83950000  0.45770000  0.77560000  1.0 0.1190785183
H  H137  1  0.54230000  0.38180000  0.44227000  1.0 0.1190785183
H  H138  1  0.61820000  0.16050000  0.10893000  1.0 0.1190785183
H  H139  1  0.80770000  0.38690000  0.64720000  1.0 0.1115113621
H  H140  1  0.61310000  0.42080000  0.31387000  1.0 0.1115113621
H  H141  1  0.57920000  0.19230000  0.98053000  1.0 0.1115113621
H  H142  1  0.73770000  0.35330000  0.60320000  1.0 0.1190785183
H  H143  1  0.64670000  0.38440000  0.26987000  1.0 0.1190785183
H  H144  1  0.61560000  0.26230000  0.93653000  1.0 0.1190785183
H  H145  1  0.63780000  0.09620000  0.85400000  1.0 0.1115113621
H  H146  1  0.90380000  0.54160000  0.52067000  1.0 0.1115113621
H  H147  1  0.45840000  0.36220000  0.18733000  1.0 0.1115113621
H  H148  1  0.63070000  0.11480000  0.96300000  1.0 0.1190785183
H  H149  1  0.88520000  0.51590000  0.62967000  1.0 0.1190785183
H  H150  1  0.48410000  0.36930000  0.29633000  1.0 0.1190785183
H  H151  1  0.66200000  0.07180000  0.94330000  1.0 0.1310026988
H  H152  1  0.92820000  0.59020000  0.60997000  1.0 0.1310026988
H  H153  1  0.40980000  0.33800000  0.27663000  1.0 0.1310026988
H  H154  1  0.89850000  0.33920000  0.94880000  1.0 0.1005538517
H  H155  1  0.66080000  0.55930000  0.61547000  1.0 0.1005538517
H  H156  1  0.44070000  0.10150000  0.28213000  1.0 0.1005538517
H  H157  1  0.90080000  0.32620000  0.83460000  1.0 0.0908460878
H  H158  1  0.67380000  0.57460000  0.50127000  1.0 0.0908460878
H  H159  1  0.42540000  0.09920000  0.16793000  1.0 0.0908460878
H  H160  1  0.91930000  0.23580000  0.89230000  1.0 0.1190785183
H  H161  1  0.76420000  0.68350000  0.55897000  1.0 0.1190785183
H  H162  1  0.31650000  0.08070000  0.22563000  1.0 0.1190785183
H  H163  1  0.98980000  0.34310000  0.01250000  1.0 0.141587156
H  H164  1  0.65690000  0.64670000  0.67917000  1.0 0.141587156
H  H165  1  0.35330000  0.01020000  0.34583000  1.0 0.141587156
H  H166  1  0.00440000  0.28470000  0.99740000  1.0 0.141587156
H  H167  1  0.71530000  0.71970000  0.66407000  1.0 0.141587156
H  H168  1  0.28030000  0.99560000  0.33073000  1.0 0.141587156
H  H169  1  0.49810000  0.37930000  0.86490000  1.0 0.1115113621
H  H170  1  0.62070000  0.11880000  0.53157000  1.0 0.1115113621
H  H171  1  0.88120000  0.50190000  0.19823000  1.0 0.1190785183
H  H172  1  0.42480000  0.34460000  0.89410000  1.0 0.1190785183
H  H173  1  0.65540000  0.08020000  0.56077000  1.0 0.1190785183
H  H174  1  0.91980000  0.57520000  0.22743000  1.0 0.1190785183
H  H175  1  0.44490000  0.35000000  0.78210000  1.0 0.1115113621
H  H176  1  0.65000000  0.09490000  0.44877000  1.0 0.1115113621
H  H177  1  0.90510000  0.55510000  0.11543000  1.0 0.1115113621
H  H178  1  0.44620000  0.10740000  0.91050000  1.0 0.1115113621
H  H179  1  0.89260000  0.33880000  0.57717000  1.0 0.1115113621
H  H180  1  0.66120000  0.55380000  0.24383000  1.0 0.1115113621
H  H181  1  0.43210000  0.10960000  0.79710000  1.0 0.1005538517
H  H182  1  0.89040000  0.32250000  0.46377000  1.0 0.1005538517
H  H183  1  0.67750000  0.56790000  0.13043000  1.0 0.1005538517
H  H184  1  0.31920000  0.05650000  0.83200000  1.0 0.1310026988
H  H185  1  0.94350000  0.26270000  0.49867000  1.0 0.1310026988
H  H186  1  0.73730000  0.68080000  0.16533000  1.0 0.1310026988
H  H187  1  0.34520000  0.09420000  0.03030000  1.0 0.1310026988
H  H188  1  0.90580000  0.25100000  0.69697000  1.0 0.1310026988
H  H189  1  0.74900000  0.65480000  0.36363000  1.0 0.1310026988
H  H190  1  0.27460000  0.04860000  0.98330000  1.0 0.1497899499
H  H191  1  0.95140000  0.22600000  0.64997000  1.0 0.141587156
H  H192  1  0.77400000  0.72540000  0.31663000  1.0 0.141587156
H  H193  1  0.88550000  0.50740000  0.89760000  1.0 0.1115113621
H  H194  1  0.49260000  0.37810000  0.56427000  1.0 0.1115113621
H  H195  1  0.62190000  0.11450000  0.23093000  1.0 0.1115113621
H  H196  1  0.91810000  0.57680000  0.94410000  1.0 0.1115113621
H  H197  1  0.42320000  0.34130000  0.61077000  1.0 0.1115113621
H  H198  1  0.65870000  0.08190000  0.27743000  1.0 0.1115113621
H  H199  1  0.91690000  0.56840000  0.82850000  1.0 0.1190785183
H  H200  1  0.43160000  0.34850000  0.49517000  1.0 0.1190785183
H  H201  1  0.65150000  0.08310000  0.16183000  1.0 0.1190785183
H  H202  1  0.64400000  0.51570000  0.91150000  1.0 0.1005538517
H  H203  1  0.48430000  0.12830000  0.57817000  1.0 0.1005538517
H  H204  1  0.87170000  0.35600000  0.24483000  1.0 0.1005538517
H  H205  1  0.65270000  0.53450000  0.79810000  1.0 0.0818019606
H  H206  1  0.46550000  0.11820000  0.46477000  1.0 0.0818019606
H  H207  1  0.88180000  0.34730000  0.13143000  1.0 0.0818019606
H  H208  1  0.65170000  0.62580000  0.87860000  1.0 0.1115113621
H  H209  1  0.37420000  0.02590000  0.54527000  1.0 0.1115113621
H  H210  1  0.97410000  0.34830000  0.21193000  1.0 0.1115113621
H  H211  1  0.76880000  0.64600000  0.94090000  1.0 0.1497899499
H  H212  1  0.35400000  0.12280000  0.60757000  1.0 0.1497899499
H  H213  1  0.87720000  0.23120000  0.27423000  1.0 0.1497899499
H  H214  1  0.74390000  0.69740000  0.94550000  1.0 0.1497899499
H  H215  1  0.30260000  0.04650000  0.61217000  1.0 0.1497899499
H  H216  1  0.95350000  0.25610000  0.27883000  1.0 0.1497899499
C  C1  1  0.03450000  0.10460000  0.31840000  1.0 0.0908460878
C  C2  1  0.89540000  0.92990000  0.98507000  1.0 0.0908460878
C  C3  1  0.07010000  0.96550000  0.65173000  1.0 0.0908460878
C  C4  1  0.05130000  0.15900000  0.26820000  1.0 -0.2705246909
C  C5  1  0.84100000  0.89230000  0.93487000  1.0 -0.2705246909
C  C6  1  0.10770000  0.94870000  0.60153000  1.0 -0.2705246909
C  C7  1  0.00760000  0.16690000  0.21720000  1.0 0.1310026988
C  C8  1  0.83310000  0.84070000  0.88387000  1.0 0.1310026988
C  C9  1  0.15930000  0.99240000  0.55053000  1.0 0.1310026988
C  C10  1  0.94370000  0.11900000  0.21980000  1.0 0.1497899499
C  C11  1  0.88100000  0.82470000  0.88647000  1.0 0.1497899499
C  C12  1  0.17530000  0.05630000  0.55313000  1.0 0.1497899499
C  C13  1  0.92740000  0.06710000  0.27040000  1.0 -0.2705246909
C  C14  1  0.93290000  0.86030000  0.93707000  1.0 -0.2705246909
C  C15  1  0.13970000  0.07260000  0.60373000  1.0 -0.2705246909
C  C16  1  0.97000000  0.05740000  0.32270000  1.0 0.1005538517
C  C17  1  0.94260000  0.91260000  0.98937000  1.0 0.1005538517
C  C18  1  0.08740000  0.03000000  0.65603000  1.0 0.1005538517
C  C19  1  0.94540000  0.99610000  0.38170000  1.0 -0.3178387933
C  C20  1  0.00390000  0.94930000  0.04837000  1.0 -0.3178387933
C  C21  1  0.05070000  0.05460000  0.71503000  1.0 -0.3178387933
C  C22  1  0.93780000  0.94020000  0.32770000  1.0 0.0908460878
C  C23  1  0.05980000  0.99760000  0.99437000  1.0 0.0908460878
C  C24  1  0.00240000  0.06220000  0.66103000  1.0 0.0908460878
C  C25  1  0.88160000  0.90430000  0.27680000  1.0 -0.302022972
C  C26  1  0.09570000  0.97730000  0.94347000  1.0 -0.302022972
C  C27  1  0.02270000  0.11840000  0.61013000  1.0 -0.302022972
C  C28  1  0.87240000  0.85040000  0.22160000  1.0 0.1190785183
C  C29  1  0.14960000  0.02200000  0.88827000  1.0 0.1190785183
C  C30  1  0.97800000  0.12760000  0.55493000  1.0 0.1190785183
C  C31  1  0.91880000  0.83340000  0.22070000  1.0 0.1497899499
C  C32  1  0.16660000  0.08540000  0.88737000  1.0 0.1497899499
C  C33  1  0.91460000  0.08120000  0.55403000  1.0 0.1497899499
C  C34  1  0.97340000  0.87040000  0.26840000  1.0 -0.3178387933
C  C35  1  0.12960000  0.10300000  0.93507000  1.0 -0.3178387933
C  C36  1  0.89700000  0.02660000  0.60173000  1.0 -0.3178387933
C  C37  1  0.98410000  0.92220000  0.32470000  1.0 0.0908460878
C  C38  1  0.07780000  0.06190000  0.99137000  1.0 0.0908460878
C  C39  1  0.93810000  0.01590000  0.65803000  1.0 0.0908460878
C  C40  1  0.04570000  0.95850000  0.37590000  1.0 -0.2901080419
C  C41  1  0.04150000  0.08720000  0.04257000  1.0 -0.2901080419
C  C42  1  0.91280000  0.95430000  0.70923000  1.0 -0.2901080419
C  C43  1  0.09960000  0.00710000  0.30890000  1.0 0.0708087866
C  C44  1  0.99290000  0.09250000  0.97557000  1.0 0.0708087866
C  C45  1  0.90750000  0.90040000  0.64223000  1.0 0.0708087866
C  C46  1  0.12700000  0.98220000  0.25480000  1.0 -0.2503619942
C  C47  1  0.01780000  0.14480000  0.92147000  1.0 -0.2503619942
C  C48  1  0.85520000  0.87300000  0.58813000  1.0 -0.2503619942
C  C49  1  0.17720000  0.02400000  0.18780000  1.0 0.1115113621
C  C50  1  0.97600000  0.15320000  0.85447000  1.0 0.1115113621
C  C51  1  0.84680000  0.82280000  0.52113000  1.0 0.1115113621
C  C52  1  0.19400000  0.08640000  0.18160000  1.0 0.141587156
C  C53  1  0.91360000  0.10760000  0.84827000  1.0 0.141587156
C  C54  1  0.89240000  0.80600000  0.51493000  1.0 0.141587156
C  C55  1  0.16110000  0.10670000  0.24140000  1.0 -0.3101523997
C  C56  1  0.89330000  0.05440000  0.90807000  1.0 -0.3101523997
C  C57  1  0.94560000  0.83890000  0.57473000  1.0 -0.3101523997
C  C58  1  0.11420000  0.06710000  0.30700000  1.0 0.0908460878
C  C59  1  0.93290000  0.04710000  0.97367000  1.0 0.0908460878
C  C60  1  0.95290000  0.88580000  0.64033000  1.0 0.0908460878
C  C61  1  0.08740000  0.09820000  0.36710000  1.0 -0.3101523997
C  C62  1  0.90180000  0.98920000  0.03377000  1.0 -0.3101523997
C  C63  1  0.01080000  0.91260000  0.70043000  1.0 -0.3101523997
C  C64  1  0.08820000  0.26690000  0.15270000  1.0 -0.2503619942
C  C65  1  0.73310000  0.82130000  0.81937000  1.0 -0.2503619942
C  C66  1  0.17870000  0.91180000  0.48603000  1.0 -0.2503619942
C  C67  1  0.83570000  0.08600000  0.16910000  1.0 -0.048052983
C  C68  1  0.91400000  0.74970000  0.83577000  1.0 -0.048052983
C  C69  1  0.25030000  0.16430000  0.50243000  1.0 -0.048052983
C  C70  1  0.80650000  0.11990000  0.11520000  1.0 -0.0926100689
C  C71  1  0.88010000  0.68660000  0.78187000  1.0 -0.0926100689
C  C72  1  0.31340000  0.19350000  0.44853000  1.0 -0.0926100689
C  C73  1  0.81450000  0.13280000  0.01980000  1.0 -0.4094145367
C  C74  1  0.86720000  0.68170000  0.68647000  1.0 -0.4094145367
C  C75  1  0.31830000  0.18550000  0.35313000  1.0 -0.4094145367
C  C76  1  0.77120000  0.83030000  0.17050000  1.0 -0.2408743288
C  C77  1  0.16970000  0.94090000  0.83717000  1.0 -0.2408743288
C  C78  1  0.05910000  0.22880000  0.50383000  1.0 -0.2408743288
C  C79  1  0.95380000  0.76680000  0.15660000  1.0 -0.0613664653
C  C80  1  0.23320000  0.18700000  0.82327000  1.0 -0.0613664653
C  C81  1  0.81300000  0.04620000  0.48993000  1.0 -0.0613664653
C  C82  1  0.92380000  0.69980000  0.11440000  1.0 -0.1002748761
C  C83  1  0.30020000  0.22400000  0.78107000  1.0 -0.1002748761
C  C84  1  0.77600000  0.07620000  0.44773000  1.0 -0.1002748761
C  C85  1  0.87090000  0.67270000  0.07380000  1.0 -0.3741827511
C  C86  1  0.32730000  0.19820000  0.74047000  1.0 -0.3741827511
C  C87  1  0.80180000  0.12910000  0.40713000  1.0 -0.3741827511
C  C88  1  0.18780000  0.93490000  0.12300000  1.0 -0.262811065
C  C89  1  0.06510000  0.25290000  0.78967000  1.0 -0.262811065
C  C90  1  0.74710000  0.81220000  0.45633000  1.0 -0.262811065
C  C91  1  0.26280000  0.18570000  0.10850000  1.0 -0.0613664653
C  C92  1  0.81430000  0.07710000  0.77517000  1.0 -0.0613664653
C  C93  1  0.92290000  0.73720000  0.44183000  1.0 -0.0613664653
C  C94  1  0.34680000  0.26090000  0.03270000  1.0 -0.3629899922
C  C95  1  0.73910000  0.08590000  0.69937000  1.0 -0.3629899922
C  C96  1  0.91410000  0.65320000  0.36603000  1.0 -0.3629899922
C  C97  1  0.33290000  0.21550000  0.07590000  1.0 -0.0778989124
C  C98  1  0.78450000  0.11740000  0.74257000  1.0 -0.0778989124
C  C99  1  0.88260000  0.66710000  0.40923000  1.0 -0.0778989124
C  C100  1  0.74480000  0.30680000  0.72520000  1.0 0.0908460878
C  C101  1  0.69320000  0.43800000  0.39187000  1.0 0.0908460878
C  C102  1  0.56200000  0.25520000  0.05853000  1.0 0.0908460878
C  C103  1  0.79320000  0.30960000  0.78540000  1.0 -0.3364637696
C  C104  1  0.69040000  0.48360000  0.45207000  1.0 -0.3364637696
C  C105  1  0.51640000  0.20680000  0.11873000  1.0 -0.3364637696
C  C106  1  0.78220000  0.26100000  0.84890000  1.0 0.1310026988
C  C107  1  0.73900000  0.52120000  0.51557000  1.0 0.1310026988
C  C108  1  0.47880000  0.21780000  0.18223000  1.0 0.1310026988
C  C109  1  0.72360000  0.20700000  0.84950000  1.0 0.1310026988
C  C110  1  0.79300000  0.51660000  0.51617000  1.0 0.1190785183
C  C111  1  0.48340000  0.27640000  0.18283000  1.0 0.1190785183
C  C112  1  0.67610000  0.20250000  0.78640000  1.0 -0.302022972
C  C113  1  0.79750000  0.47360000  0.45307000  1.0 -0.3101523997
C  C114  1  0.52640000  0.32390000  0.11973000  1.0 -0.3101523997
C  C115  1  0.68610000  0.25200000  0.72710000  1.0 0.0908460878
C  C116  1  0.74800000  0.43410000  0.39377000  1.0 0.0908460878
C  C117  1  0.56590000  0.31390000  0.06043000  1.0 0.0908460878
C  C118  1  0.63070000  0.24040000  0.66070000  1.0 -0.302022972
C  C119  1  0.75960000  0.39030000  0.32737000  1.0 -0.302022972
C  C120  1  0.60970000  0.36930000  0.99403000  1.0 -0.302022972
C  C121  1  0.58480000  0.25620000  0.70890000  1.0 0.1005538517
C  C122  1  0.74380000  0.32860000  0.37557000  1.0 0.1005538517
C  C123  1  0.67140000  0.41520000  0.04223000  1.0 0.1005538517
C  C124  1  0.53710000  0.20940000  0.76400000  1.0 -0.3101523997
C  C125  1  0.79060000  0.32770000  0.43067000  1.0 -0.3101523997
C  C126  1  0.67230000  0.46290000  0.09733000  1.0 -0.3101523997
C  C127  1  0.49250000  0.22130000  0.81450000  1.0 0.0708087866
C  C128  1  0.77870000  0.27120000  0.48117000  1.0 0.0708087866
C  C129  1  0.72880000  0.50750000  0.14783000  1.0 0.0708087866
C  C130  1  0.49650000  0.28190000  0.80430000  1.0 0.1497899499
C  C131  1  0.71810000  0.21460000  0.47097000  1.0 0.1497899499
C  C132  1  0.78540000  0.50350000  0.13763000  1.0 0.1497899499
C  C133  1  0.54670000  0.32570000  0.74960000  1.0 -0.2901080419
C  C134  1  0.67430000  0.22100000  0.41627000  1.0 -0.2901080419
C  C135  1  0.77900000  0.45330000  0.08293000  1.0 -0.2901080419
C  C136  1  0.58800000  0.31510000  0.70180000  1.0 0.1115113621
C  C137  1  0.68490000  0.27290000  0.36847000  1.0 0.1115113621
C  C138  1  0.72710000  0.41200000  0.03513000  1.0 0.1115113621
C  C139  1  0.64010000  0.36920000  0.64090000  1.0 -0.302022972
C  C140  1  0.63080000  0.27090000  0.30757000  1.0 -0.302022972
C  C141  1  0.72910000  0.35990000  0.97423000  1.0 -0.302022972
C  C142  1  0.69500000  0.41550000  0.70480000  1.0 0.0908460878
C  C143  1  0.58450000  0.27950000  0.37147000  1.0 0.0908460878
C  C144  1  0.72050000  0.30500000  0.03813000  1.0 0.0908460878
C  C145  1  0.68700000  0.45890000  0.75700000  1.0 -0.2901080419
C  C146  1  0.54110000  0.22810000  0.42367000  1.0 -0.2901080419
C  C147  1  0.77190000  0.31300000  0.09033000  1.0 -0.2901080419
C  C148  1  0.73320000  0.50200000  0.81700000  1.0 0.141587156
C  C149  1  0.49800000  0.23120000  0.48367000  1.0 0.141587156
C  C150  1  0.76880000  0.26680000  0.15033000  1.0 0.141587156
C  C151  1  0.79330000  0.50450000  0.82370000  1.0 0.1639788396
C  C152  1  0.49550000  0.28880000  0.49037000  1.0 0.1639788396
C  C153  1  0.71120000  0.20670000  0.15703000  1.0 0.1639788396
C  C154  1  0.80090000  0.45820000  0.77180000  1.0 -0.3303727113
C  C155  1  0.54180000  0.34270000  0.43847000  1.0 -0.3303727113
C  C156  1  0.65730000  0.19910000  0.10513000  1.0 -0.3303727113
C  C157  1  0.75040000  0.41330000  0.71490000  1.0 0.0908460878
C  C158  1  0.58670000  0.33710000  0.38157000  1.0 0.0908460878
C  C159  1  0.66290000  0.24960000  0.04823000  1.0 0.0908460878
C  C160  1  0.76230000  0.36630000  0.66450000  1.0 -0.3101523997
C  C161  1  0.63370000  0.39600000  0.33117000  1.0 -0.3101523997
C  C162  1  0.60400000  0.23770000  0.99783000  1.0 -0.3101523997
C  C163  1  0.65740000  0.10700000  0.91860000  1.0 -0.2217514543
C  C164  1  0.89300000  0.55040000  0.58527000  1.0 -0.2217514543
C  C165  1  0.44960000  0.34260000  0.25193000  1.0 -0.2217514543
C  C166  1  0.89040000  0.30630000  0.89980000  1.0 -0.0143506477
C  C167  1  0.69370000  0.58410000  0.56647000  1.0 -0.0143506477
C  C168  1  0.41590000  0.10960000  0.23313000  1.0 -0.0143506477
C  C169  1  0.92970000  0.27510000  0.92160000  1.0 -0.1276783747
C  C170  1  0.72490000  0.65460000  0.58827000  1.0 -0.1276783747
C  C171  1  0.34540000  0.07030000  0.25493000  1.0 -0.1276783747
C  C172  1  0.97960000  0.30390000  0.98330000  1.0 -0.4094145367
C  C173  1  0.69610000  0.67570000  0.64997000  1.0 -0.4094145367
C  C174  1  0.32430000  0.02040000  0.31663000  1.0 -0.4094145367
C  C175  1  0.45570000  0.34450000  0.84870000  1.0 -0.2217514543
C  C176  1  0.65550000  0.11120000  0.51537000  1.0 -0.2217514543
C  C177  1  0.88880000  0.54430000  0.18203000  1.0 -0.2217514543
C  C178  1  0.42340000  0.11940000  0.86320000  1.0 0.0261968762
C  C179  1  0.88060000  0.30400000  0.52987000  1.0 0.0261968762
C  C180  1  0.69600000  0.57660000  0.19653000  1.0 0.0261968762
C  C181  1  0.34650000  0.07820000  0.88500000  1.0 -0.1790458489
C  C182  1  0.92180000  0.26830000  0.55167000  1.0 -0.1790458489
C  C183  1  0.73170000  0.65350000  0.21833000  1.0 -0.1790458489
C  C184  1  0.31930000  0.07310000  0.97580000  1.0 -0.4094145367
C  C185  1  0.92690000  0.24620000  0.64247000  1.0 -0.4094145367
C  C186  1  0.75380000  0.68070000  0.30913000  1.0 -0.4094145367
C  C187  1  0.89330000  0.55060000  0.88900000  1.0 -0.2408743288
C  C188  1  0.44940000  0.34270000  0.55567000  1.0 -0.2408743288
C  C189  1  0.65730000  0.10670000  0.22233000  1.0 -0.2408743288
C  C190  1  0.67220000  0.54740000  0.86340000  1.0 -0.0422162392
C  C191  1  0.45260000  0.12480000  0.53007000  1.0 -0.0422162392
C  C192  1  0.87520000  0.32780000  0.19673000  1.0 -0.0422162392
C  C193  1  0.68370000  0.61540000  0.89050000  1.0 -0.1002748761
C  C194  1  0.38460000  0.06830000  0.55717000  1.0 -0.1002748761
C  C195  1  0.93170000  0.31630000  0.22383000  1.0 -0.1002748761
C  C196  1  0.73680000  0.65660000  0.92900000  1.0 -0.3850315117
C  C197  1  0.34340000  0.08020000  0.59567000  1.0 -0.3850315117
C  C198  1  0.91980000  0.26320000  0.26233000  1.0 -0.3850315117
O  O1  1  0.02100000  0.22030000  0.16040000  1.0 -0.2139684064
O  O2  1  0.77970000  0.80070000  0.82707000  1.0 -0.2139684064
O  O3  1  0.19930000  0.97900000  0.49373000  1.0 -0.2139684064
O  O4  1  0.90540000  0.13390000  0.16430000  1.0 -0.2503619942
O  O5  1  0.86610000  0.77150000  0.83097000  1.0 -0.2503619942
O  O6  1  0.22850000  0.09460000  0.49763000  1.0 -0.2503619942
O  O7  1  0.81650000  0.81090000  0.17150000  1.0 -0.1419280764
O  O8  1  0.18910000  0.00560000  0.83817000  1.0 -0.1419280764
O  O9  1  0.99440000  0.18350000  0.50483000  1.0 -0.1419280764
O  O10  1  0.90440000  0.78100000  0.16960000  1.0 -0.19024391
O  O11  1  0.21900000  0.12340000  0.83627000  1.0 -0.19024391
O  O12  1  0.87660000  0.09560000  0.50293000  1.0 -0.19024391
O  O13  1  0.20970000  0.00370000  0.12880000  1.0 -0.1419280764
O  O14  1  0.99630000  0.20600000  0.79547000  1.0 -0.1419280764
O  O15  1  0.79400000  0.79030000  0.46213000  1.0 -0.1459936999
O  O16  1  0.24450000  0.12180000  0.12120000  1.0 -0.1790458489
O  O17  1  0.87820000  0.12270000  0.78787000  1.0 -0.1790458489
O  O18  1  0.87730000  0.75550000  0.45453000  1.0 -0.1790458489
O  O19  1  0.71540000  0.15980000  0.91240000  1.0 -0.1223112472
O  O20  1  0.84020000  0.55560000  0.57907000  1.0 -0.1223112472
O  O21  1  0.44440000  0.28460000  0.24573000  1.0 -0.1223112472
O  O22  1  0.82860000  0.25900000  0.90320000  1.0 -0.1696194165
O  O23  1  0.74100000  0.56960000  0.56987000  1.0 -0.1696194165
O  O24  1  0.43040000  0.17140000  0.23653000  1.0 -0.1696194165
O  O25  1  0.83650000  0.54960000  0.88450000  1.0 -0.1276783747
O  O26  1  0.45040000  0.28690000  0.55117000  1.0 -0.1276783747
O  O27  1  0.71310000  0.16350000  0.21783000  1.0 -0.1276783747
O  O28  1  0.73210000  0.55240000  0.86420000  1.0 -0.2408743288
O  O29  1  0.44760000  0.17970000  0.53087000  1.0 -0.2408743288
O  O30  1  0.82030000  0.26790000  0.19753000  1.0 -0.2408743288
O  O31  1  0.45490000  0.28920000  0.85550000  1.0 -0.1419280764
O  O32  1  0.71080000  0.16570000  0.52217000  1.0 -0.1419280764
O  O33  1  0.83430000  0.54510000  0.18883000  1.0 -0.1419280764
O  O34  1  0.44310000  0.17820000  0.87000000  1.0 -0.1276783747
O  O35  1  0.82180000  0.26490000  0.53667000  1.0 -0.1276783747
O  O36  1  0.73510000  0.55690000  0.20333000  1.0 -0.1276783747
