# DDEC6 charges by PACMAN v1.1 (https://github.com/mtap-research/PACMAN-charge/)
data_AVUCEA_ion_pacman
_symmetry_space_group_name_H-M   'P 1'
_cell_length_a   19.98720000
_cell_length_b   19.98720000
_cell_length_c   19.98720000
_cell_angle_alpha   110.37300000
_cell_angle_beta   110.37300000
_cell_angle_gamma   110.37300000
_symmetry_Int_Tables_number   1
_chemical_formula_structural   Co2H36C30NO15
_chemical_formula_sum   'Co12 H216 C180 N6 O90'
_cell_volume   5932.50731291
_cell_formula_units_Z   6
loop_
 _symmetry_equiv_pos_site_id
 _symmetry_equiv_pos_as_xyz
  1  'x, y, z'
loop_
 _atom_site_type_symbol
 _atom_site_label
 _atom_site_symmetry_multiplicity
 _atom_site_fract_x
 _atom_site_fract_y
 _atom_site_fract_z
 _atom_site_occupancy
 _atom_site_charge
Co  Co1  1  0.72312000  0.71136000  0.14416000  1.0 1.0052726696
Co  Co2  1  0.71136000  0.14416000  0.72312000  1.0 1.0052726696
Co  Co3  1  0.14416000  0.72312000  0.71136000  1.0 1.0052726696
Co  Co4  1  0.27688000  0.28864000  0.85584000  1.0 1.0048633049
Co  Co5  1  0.28864000  0.85584000  0.27688000  1.0 1.0052726696
Co  Co6  1  0.85584000  0.27688000  0.28864000  1.0 1.0048633049
Co  Co7  1  0.21333000  0.15687000  0.65255000  1.0 1.017835779
Co  Co8  1  0.15687000  0.65255000  0.21333000  1.0 1.017835779
Co  Co9  1  0.65255000  0.21333000  0.15687000  1.0 1.017835779
Co  Co10  1  0.78667000  0.84313000  0.34745000  1.0 1.017835779
Co  Co11  1  0.84313000  0.34745000  0.78667000  1.0 1.017835779
Co  Co12  1  0.34745000  0.78667000  0.84313000  1.0 1.017835779
H  H1  1  0.25850000  0.30530000  0.60850000  1.0 0.0912494113
H  H2  1  0.30530000  0.60850000  0.25850000  1.0 0.0912494113
H  H3  1  0.60850000  0.25850000  0.30530000  1.0 0.0912494113
H  H4  1  0.74150000  0.69470000  0.39150000  1.0 0.0912494113
H  H5  1  0.69470000  0.39150000  0.74150000  1.0 0.0912494113
H  H6  1  0.39150000  0.74150000  0.69470000  1.0 0.0912494113
H  H7  1  0.17720000  0.26540000  0.52150000  1.0 0.0912494113
H  H8  1  0.26540000  0.52150000  0.17720000  1.0 0.0912494113
H  H9  1  0.52150000  0.17720000  0.26540000  1.0 0.0912494113
H  H10  1  0.82280000  0.73460000  0.47850000  1.0 0.0912494113
H  H11  1  0.73460000  0.47850000  0.82280000  1.0 0.0912494113
H  H12  1  0.47850000  0.82280000  0.73460000  1.0 0.0912494113
H  H13  1  0.12010000  0.31590000  0.57910000  1.0 0.1317268126
H  H14  1  0.31590000  0.57910000  0.12010000  1.0 0.1317268126
H  H15  1  0.57910000  0.12010000  0.31590000  1.0 0.1317268126
H  H16  1  0.87990000  0.68410000  0.42090000  1.0 0.1317268126
H  H17  1  0.68410000  0.42090000  0.87990000  1.0 0.1317268126
H  H18  1  0.42090000  0.87990000  0.68410000  1.0 0.1317268126
H  H19  1  0.21540000  0.38600000  0.64830000  1.0 0.1317268126
H  H20  1  0.38600000  0.64830000  0.21540000  1.0 0.1317268126
H  H21  1  0.64830000  0.21540000  0.38600000  1.0 0.1317268126
H  H22  1  0.78460000  0.61400000  0.35170000  1.0 0.1317268126
H  H23  1  0.61400000  0.35170000  0.78460000  1.0 0.1317268126
H  H24  1  0.35170000  0.78460000  0.61400000  1.0 0.1317268126
H  H25  1  0.16580000  0.31550000  0.66040000  1.0 0.1374515636
H  H26  1  0.31550000  0.66040000  0.16580000  1.0 0.1374515636
H  H27  1  0.66040000  0.16580000  0.31550000  1.0 0.1374515636
H  H28  1  0.83420000  0.68450000  0.33960000  1.0 0.1374515636
H  H29  1  0.68450000  0.33960000  0.83420000  1.0 0.1374515636
H  H30  1  0.33960000  0.83420000  0.68450000  1.0 0.1374515636
H  H31  1  0.78180000  0.85970000  0.09080000  1.0 0.098661982
H  H32  1  0.85970000  0.09080000  0.78180000  1.0 0.098661982
H  H33  1  0.09080000  0.78180000  0.85970000  1.0 0.098661982
H  H34  1  0.21820000  0.14030000  0.90920000  1.0 0.098661982
H  H35  1  0.14030000  0.90920000  0.21820000  1.0 0.098661982
H  H36  1  0.90920000  0.21820000  0.14030000  1.0 0.098661982
H  H37  1  0.85020000  0.89940000  0.18490000  1.0 0.078409368
H  H38  1  0.89940000  0.18490000  0.85020000  1.0 0.078409368
H  H39  1  0.18490000  0.85020000  0.89940000  1.0 0.078409368
H  H40  1  0.14980000  0.10060000  0.81510000  1.0 0.078409368
H  H41  1  0.10060000  0.81510000  0.14980000  1.0 0.078409368
H  H42  1  0.81510000  0.14980000  0.10060000  1.0 0.078409368
H  H43  1  0.87020000  0.87360000  0.05210000  1.0 0.1374515636
H  H44  1  0.87360000  0.05210000  0.87020000  1.0 0.1374515636
H  H45  1  0.05210000  0.87020000  0.87360000  1.0 0.1374515636
H  H46  1  0.12980000  0.12640000  0.94790000  1.0 0.1374515636
H  H47  1  0.12640000  0.94790000  0.12980000  1.0 0.1374515636
H  H48  1  0.94790000  0.12980000  0.12640000  1.0 0.1374515636
H  H49  1  0.93030000  0.95090000  0.14570000  1.0 0.1129216478
H  H50  1  0.95090000  0.14570000  0.93030000  1.0 0.1129216478
H  H51  1  0.14570000  0.93030000  0.95090000  1.0 0.1129216478
H  H52  1  0.06970000  0.04910000  0.85430000  1.0 0.1129216478
H  H53  1  0.04910000  0.85430000  0.06970000  1.0 0.1129216478
H  H54  1  0.85430000  0.06970000  0.04910000  1.0 0.1129216478
H  H55  1  0.92890000  0.86670000  0.12210000  1.0 0.1374515636
H  H56  1  0.86670000  0.12210000  0.92890000  1.0 0.1374515636
H  H57  1  0.12210000  0.92890000  0.86670000  1.0 0.1374515636
H  H58  1  0.07110000  0.13330000  0.87790000  1.0 0.1374515636
H  H59  1  0.13330000  0.87790000  0.07110000  1.0 0.1374515636
H  H60  1  0.87790000  0.07110000  0.13330000  1.0 0.1374515636
H  H61  1  0.51460000  0.48090000  0.92050000  1.0 0.1317268126
H  H62  1  0.48090000  0.92050000  0.51460000  1.0 0.1317268126
H  H63  1  0.92050000  0.51460000  0.48090000  1.0 0.1317268126
H  H64  1  0.48540000  0.51910000  0.07950000  1.0 0.1317268126
H  H65  1  0.51910000  0.07950000  0.48540000  1.0 0.1317268126
H  H66  1  0.07950000  0.48540000  0.51910000  1.0 0.1317268126
H  H67  1  0.41190000  0.34790000  0.66720000  1.0 0.1374515636
H  H68  1  0.34790000  0.66720000  0.41190000  1.0 0.1374515636
H  H69  1  0.66720000  0.41190000  0.34790000  1.0 0.1374515636
H  H70  1  0.58810000  0.65210000  0.33280000  1.0 0.1374515636
H  H71  1  0.65210000  0.33280000  0.58810000  1.0 0.1374515636
H  H72  1  0.33280000  0.58810000  0.65210000  1.0 0.1374515636
H  H73  1  0.63800000  0.56300000  0.81400000  1.0 0.1495738746
H  H74  1  0.56300000  0.81400000  0.63800000  1.0 0.1495738746
H  H75  1  0.81400000  0.63800000  0.56300000  1.0 0.1495738746
H  H76  1  0.36200000  0.43700000  0.18600000  1.0 0.1495738746
H  H77  1  0.43700000  0.18600000  0.36200000  1.0 0.1495738746
H  H78  1  0.18600000  0.36200000  0.43700000  1.0 0.1495738746
H  H79  1  0.56580000  0.80290000  0.05730000  1.0 0.1317268126
H  H80  1  0.80290000  0.05730000  0.56580000  1.0 0.1317268126
H  H81  1  0.05730000  0.56580000  0.80290000  1.0 0.1317268126
H  H82  1  0.43420000  0.19710000  0.94270000  1.0 0.1317268126
H  H83  1  0.19710000  0.94270000  0.43420000  1.0 0.1374515636
H  H84  1  0.94270000  0.43420000  0.19710000  1.0 0.1317268126
H  H85  1  0.58950000  0.02330000  0.09220000  1.0 0.162676767
H  H86  1  0.02330000  0.09220000  0.58950000  1.0 0.162676767
H  H87  1  0.09220000  0.58950000  0.02330000  1.0 0.162676767
H  H88  1  0.41050000  0.97670000  0.90780000  1.0 0.162676767
H  H89  1  0.97670000  0.90780000  0.41050000  1.0 0.162676767
H  H90  1  0.90780000  0.41050000  0.97670000  1.0 0.162676767
H  H91  1  0.76310000  0.02270000  0.27320000  1.0 0.1317268126
H  H92  1  0.02270000  0.27320000  0.76310000  1.0 0.1317268126
H  H93  1  0.27320000  0.76310000  0.02270000  1.0 0.1317268126
H  H94  1  0.23690000  0.97730000  0.72680000  1.0 0.1317268126
H  H95  1  0.97730000  0.72680000  0.23690000  1.0 0.1317268126
H  H96  1  0.72680000  0.23690000  0.97730000  1.0 0.1317268126
H  H97  1  0.43250000  0.57800000  0.99510000  1.0 0.0912494113
H  H98  1  0.50840000  0.65980000  0.01770000  1.0 0.1129216478
H  H99  1  0.48990000  0.74290000  0.10250000  1.0 0.1317268126
H  H100  1  0.45280000  0.66550000  0.11140000  1.0 0.1374515636
H  H101  1  0.39200000  0.67930000  0.05100000  1.0 0.1374515636
H  H102  1  0.27840000  0.58390000  0.84150000  1.0 0.098661982
H  H103  1  0.30410000  0.62910000  0.93590000  1.0 0.098661982
H  H104  1  0.24000000  0.45940000  0.82830000  1.0 0.1374515636
H  H105  1  0.22030000  0.49810000  0.89630000  1.0 0.1317268126
H  H106  1  0.30450000  0.49920000  0.92380000  1.0 0.1374515636
H  H107  1  0.41320000  0.53500000  0.85970000  1.0 0.1203766979
H  H108  1  0.33940000  0.53620000  0.80030000  1.0 0.1203766979
H  H109  1  0.40830000  0.61310000  0.78470000  1.0 0.1495738746
H  H110  1  0.45210000  0.56300000  0.79610000  1.0 0.1374515636
H  H111  1  0.49060000  0.65360000  0.87100000  1.0 0.1495738746
H  H112  1  0.99510000  0.43250000  0.57800000  1.0 0.0912494113
H  H113  1  0.01770000  0.50840000  0.65980000  1.0 0.1129216478
H  H114  1  0.10250000  0.48990000  0.74290000  1.0 0.1317268126
H  H115  1  0.11140000  0.45280000  0.66550000  1.0 0.1374515636
H  H116  1  0.05100000  0.39200000  0.67930000  1.0 0.1374515636
H  H117  1  0.84150000  0.27840000  0.58390000  1.0 0.098661982
H  H118  1  0.93590000  0.30410000  0.62910000  1.0 0.098661982
H  H119  1  0.82830000  0.24000000  0.45940000  1.0 0.1374515636
H  H120  1  0.89630000  0.22030000  0.49810000  1.0 0.1317268126
H  H121  1  0.92380000  0.30450000  0.49920000  1.0 0.1374515636
H  H122  1  0.85970000  0.41320000  0.53500000  1.0 0.1203766979
H  H123  1  0.80030000  0.33940000  0.53620000  1.0 0.1203766979
H  H124  1  0.78470000  0.40830000  0.61310000  1.0 0.1495738746
H  H125  1  0.79610000  0.45210000  0.56300000  1.0 0.1374515636
H  H126  1  0.87100000  0.49060000  0.65360000  1.0 0.1495738746
H  H127  1  0.57800000  0.99510000  0.43250000  1.0 0.0912494113
H  H128  1  0.65980000  0.01770000  0.50840000  1.0 0.1129216478
H  H129  1  0.74290000  0.10250000  0.48990000  1.0 0.1317268126
H  H130  1  0.66550000  0.11140000  0.45280000  1.0 0.1374515636
H  H131  1  0.67930000  0.05100000  0.39200000  1.0 0.1374515636
H  H132  1  0.58390000  0.84150000  0.27840000  1.0 0.098661982
H  H133  1  0.62910000  0.93590000  0.30410000  1.0 0.098661982
H  H134  1  0.45940000  0.82830000  0.24000000  1.0 0.1374515636
H  H135  1  0.49810000  0.89630000  0.22030000  1.0 0.1317268126
H  H136  1  0.49920000  0.92380000  0.30450000  1.0 0.1374515636
H  H137  1  0.53500000  0.85970000  0.41320000  1.0 0.1203766979
H  H138  1  0.53620000  0.80030000  0.33940000  1.0 0.1203766979
H  H139  1  0.61310000  0.78470000  0.40830000  1.0 0.1495738746
H  H140  1  0.56300000  0.79610000  0.45210000  1.0 0.1374515636
H  H141  1  0.65360000  0.87100000  0.49060000  1.0 0.1495738746
H  H142  1  0.56750000  0.42200000  0.00490000  1.0 0.0912494113
H  H143  1  0.49160000  0.34020000  0.98230000  1.0 0.1129216478
H  H144  1  0.51010000  0.25710000  0.89750000  1.0 0.1317268126
H  H145  1  0.54720000  0.33450000  0.88860000  1.0 0.1374515636
H  H146  1  0.60800000  0.32070000  0.94900000  1.0 0.1374515636
H  H147  1  0.72160000  0.41610000  0.15850000  1.0 0.098661982
H  H148  1  0.69590000  0.37090000  0.06410000  1.0 0.098661982
H  H149  1  0.76000000  0.54060000  0.17170000  1.0 0.1374515636
H  H150  1  0.77970000  0.50190000  0.10370000  1.0 0.1317268126
H  H151  1  0.69550000  0.50080000  0.07620000  1.0 0.1374515636
H  H152  1  0.58680000  0.46500000  0.14030000  1.0 0.1203766979
H  H153  1  0.66060000  0.46380000  0.19970000  1.0 0.1203766979
H  H154  1  0.59170000  0.38690000  0.21530000  1.0 0.1495738746
H  H155  1  0.54790000  0.43700000  0.20390000  1.0 0.1374515636
H  H156  1  0.50940000  0.34640000  0.12900000  1.0 0.1495738746
H  H157  1  0.00490000  0.56750000  0.42200000  1.0 0.0912494113
H  H158  1  0.98230000  0.49160000  0.34020000  1.0 0.1129216478
H  H159  1  0.89750000  0.51010000  0.25710000  1.0 0.1317268126
H  H160  1  0.88860000  0.54720000  0.33450000  1.0 0.1374515636
H  H161  1  0.94900000  0.60800000  0.32070000  1.0 0.1374515636
H  H162  1  0.15850000  0.72160000  0.41610000  1.0 0.098661982
H  H163  1  0.06410000  0.69590000  0.37090000  1.0 0.098661982
H  H164  1  0.17170000  0.76000000  0.54060000  1.0 0.1374515636
H  H165  1  0.10370000  0.77970000  0.50190000  1.0 0.1317268126
H  H166  1  0.07620000  0.69550000  0.50080000  1.0 0.1374515636
H  H167  1  0.14030000  0.58680000  0.46500000  1.0 0.1203766979
H  H168  1  0.19970000  0.66060000  0.46380000  1.0 0.1203766979
H  H169  1  0.21530000  0.59170000  0.38690000  1.0 0.1495738746
H  H170  1  0.20390000  0.54790000  0.43700000  1.0 0.1374515636
H  H171  1  0.12900000  0.50940000  0.34640000  1.0 0.1495738746
H  H172  1  0.42200000  0.00490000  0.56750000  1.0 0.0912494113
H  H173  1  0.34020000  0.98230000  0.49160000  1.0 0.1129216478
H  H174  1  0.25710000  0.89750000  0.51010000  1.0 0.1317268126
H  H175  1  0.33450000  0.88860000  0.54720000  1.0 0.1374515636
H  H176  1  0.32070000  0.94900000  0.60800000  1.0 0.1374515636
H  H177  1  0.41610000  0.15850000  0.72160000  1.0 0.098661982
H  H178  1  0.37090000  0.06410000  0.69590000  1.0 0.098661982
H  H179  1  0.54060000  0.17170000  0.76000000  1.0 0.1374515636
H  H180  1  0.50190000  0.10370000  0.77970000  1.0 0.1317268126
H  H181  1  0.50080000  0.07620000  0.69550000  1.0 0.1374515636
H  H182  1  0.46500000  0.14030000  0.58680000  1.0 0.1203766979
H  H183  1  0.46380000  0.19970000  0.66060000  1.0 0.1203766979
H  H184  1  0.38690000  0.21530000  0.59170000  1.0 0.1495738746
H  H185  1  0.43700000  0.20390000  0.54790000  1.0 0.1374515636
H  H186  1  0.34640000  0.12900000  0.50940000  1.0 0.1495738746
H  H187  1  0.58590000  0.03050000  0.85090000  1.0 0.1317268126
H  H188  1  0.64410000  0.09650000  0.94780000  1.0 0.1374515636
H  H189  1  0.71360000  0.06410000  0.96200000  1.0 0.1129216478
H  H190  1  0.68120000  0.04800000  0.87100000  1.0 0.1203766979
H  H191  1  0.64740000  0.97210000  0.88290000  1.0 0.1317268126
H  H192  1  0.85090000  0.58590000  0.03050000  1.0 0.1317268126
H  H193  1  0.94780000  0.64410000  0.09650000  1.0 0.1374515636
H  H194  1  0.96200000  0.71360000  0.06410000  1.0 0.1129216478
H  H195  1  0.87100000  0.68120000  0.04800000  1.0 0.1203766979
H  H196  1  0.88290000  0.64740000  0.97210000  1.0 0.1317268126
H  H197  1  0.03050000  0.85090000  0.58590000  1.0 0.1317268126
H  H198  1  0.09650000  0.94780000  0.64410000  1.0 0.1374515636
H  H199  1  0.06410000  0.96200000  0.71360000  1.0 0.1129216478
H  H200  1  0.04800000  0.87100000  0.68120000  1.0 0.1203766979
H  H201  1  0.97210000  0.88290000  0.64740000  1.0 0.1317268126
H  H202  1  0.41410000  0.96950000  0.14910000  1.0 0.1317268126
H  H203  1  0.35590000  0.90350000  0.05220000  1.0 0.1374515636
H  H204  1  0.28640000  0.93590000  0.03800000  1.0 0.1129216478
H  H205  1  0.31880000  0.95200000  0.12900000  1.0 0.1203766979
H  H206  1  0.35260000  0.02790000  0.11710000  1.0 0.1317268126
H  H207  1  0.14910000  0.41410000  0.96950000  1.0 0.1317268126
H  H208  1  0.05220000  0.35590000  0.90350000  1.0 0.1374515636
H  H209  1  0.03800000  0.28640000  0.93590000  1.0 0.1129216478
H  H210  1  0.12900000  0.31880000  0.95200000  1.0 0.1203766979
H  H211  1  0.11710000  0.35260000  0.02790000  1.0 0.1317268126
H  H212  1  0.96950000  0.14910000  0.41410000  1.0 0.1317268126
H  H213  1  0.90350000  0.05220000  0.35590000  1.0 0.1374515636
H  H214  1  0.93590000  0.03800000  0.28640000  1.0 0.1129216478
H  H215  1  0.95200000  0.12900000  0.31880000  1.0 0.1203766979
H  H216  1  0.02790000  0.11710000  0.35260000  1.0 0.1317268126
C  C1  1  0.58355000  0.52820000  0.87475000  1.0 -0.0214317651
C  C2  1  0.52820000  0.87475000  0.58355000  1.0 -0.0214317651
C  C3  1  0.87475000  0.58355000  0.52820000  1.0 -0.0214317651
C  C4  1  0.41645000  0.47180000  0.12525000  1.0 -0.0214317651
C  C5  1  0.47180000  0.12525000  0.41645000  1.0 -0.0214317651
C  C6  1  0.12525000  0.41645000  0.47180000  1.0 -0.0214317651
C  C7  1  0.51293000  0.46826000  0.86461000  1.0 -0.1105241864
C  C8  1  0.46826000  0.86461000  0.51293000  1.0 -0.1105241864
C  C9  1  0.86461000  0.51293000  0.46826000  1.0 -0.1105241864
C  C10  1  0.48707000  0.53174000  0.13539000  1.0 -0.1105241864
C  C11  1  0.53174000  0.13539000  0.48707000  1.0 -0.1105241864
C  C12  1  0.13539000  0.48707000  0.53174000  1.0 -0.1105241864
C  C13  1  0.44761000  0.39769000  0.78480000  1.0 -0.0253213999
C  C14  1  0.39769000  0.78480000  0.44761000  1.0 -0.0253213999
C  C15  1  0.78480000  0.44761000  0.39769000  1.0 -0.0214317651
C  C16  1  0.55239000  0.60231000  0.21520000  1.0 -0.0253213999
C  C17  1  0.60231000  0.21520000  0.55239000  1.0 -0.0214317651
C  C18  1  0.21520000  0.55239000  0.60231000  1.0 -0.0214317651
C  C19  1  0.45253000  0.38856000  0.71461000  1.0 -0.0593492663
C  C20  1  0.38856000  0.71461000  0.45253000  1.0 -0.0593492663
C  C21  1  0.71461000  0.45253000  0.38856000  1.0 -0.0593492663
C  C22  1  0.54747000  0.61144000  0.28539000  1.0 -0.0593492663
C  C23  1  0.61144000  0.28539000  0.54747000  1.0 -0.0593492663
C  C24  1  0.28539000  0.54747000  0.61144000  1.0 -0.0593492663
C  C25  1  0.52131000  0.44984000  0.72315000  1.0 -0.010335046
C  C26  1  0.44984000  0.72315000  0.52131000  1.0 -0.010335046
C  C27  1  0.72315000  0.52131000  0.44984000  1.0 -0.010335046
C  C28  1  0.47869000  0.55016000  0.27685000  1.0 -0.010335046
C  C29  1  0.55016000  0.27685000  0.47869000  1.0 -0.010335046
C  C30  1  0.27685000  0.47869000  0.55016000  1.0 -0.010335046
C  C31  1  0.58700000  0.51870000  0.80340000  1.0 -0.1105241864
C  C32  1  0.51870000  0.80340000  0.58700000  1.0 -0.1105241864
C  C33  1  0.80340000  0.58700000  0.51870000  1.0 -0.1105241864
C  C34  1  0.41300000  0.48130000  0.19660000  1.0 -0.1105241864
C  C35  1  0.48130000  0.19660000  0.41300000  1.0 -0.1105241864
C  C36  1  0.19660000  0.41300000  0.48130000  1.0 -0.1105241864
C  C37  1  0.65454000  0.60540000  0.96026000  1.0 0.5473266075
C  C38  1  0.60540000  0.96026000  0.65454000  1.0 0.5473266075
C  C39  1  0.96026000  0.65454000  0.60540000  1.0 0.5473266075
C  C40  1  0.34546000  0.39460000  0.03974000  1.0 0.5473266075
C  C41  1  0.39460000  0.03974000  0.34546000  1.0 0.5473266075
C  C42  1  0.03974000  0.34546000  0.39460000  1.0 0.5473266075
C  C43  1  0.52424000  0.44590000  0.64796000  1.0 0.529298229
C  C44  1  0.44590000  0.64796000  0.52424000  1.0 0.529298229
C  C45  1  0.64796000  0.52424000  0.44590000  1.0 0.529298229
C  C46  1  0.47576000  0.55410000  0.35204000  1.0 0.529298229
C  C47  1  0.55410000  0.35204000  0.47576000  1.0 0.529298229
C  C48  1  0.35204000  0.47576000  0.55410000  1.0 0.529298229
C  C49  1  0.37047000  0.33340000  0.77383000  1.0 0.5766184757
C  C50  1  0.33340000  0.77383000  0.37047000  1.0 0.5766184757
C  C51  1  0.77383000  0.37047000  0.33340000  1.0 0.5766184757
C  C52  1  0.62953000  0.66666667  0.22617000  1.0 0.5766184757
C  C53  1  0.66666667  0.22617000  0.62953000  1.0 0.5766184757
C  C54  1  0.22617000  0.62953000  0.66666667  1.0 0.5766184757
C  C55  1  0.66809000  0.90539000  0.17082000  1.0 -0.0214317651
C  C56  1  0.90539000  0.17082000  0.66809000  1.0 -0.0214317651
C  C57  1  0.17082000  0.66809000  0.90539000  1.0 -0.0214317651
C  C58  1  0.33191000  0.09461000  0.82918000  1.0 -0.0214317651
C  C59  1  0.09461000  0.82918000  0.33191000  1.0 -0.0214317651
C  C60  1  0.82918000  0.33191000  0.09461000  1.0 -0.0214317651
C  C61  1  0.59477000  0.86213000  0.09180000  1.0 -0.1003541818
C  C62  1  0.86213000  0.09180000  0.59477000  1.0 -0.1003541818
C  C63  1  0.09180000  0.59477000  0.86213000  1.0 -0.1003541818
C  C64  1  0.40523000  0.13787000  0.90820000  1.0 -0.1003541818
C  C65  1  0.13787000  0.90820000  0.40523000  1.0 -0.1003541818
C  C66  1  0.90820000  0.40523000  0.13787000  1.0 -0.1003541818
C  C67  1  0.56290000  0.90580000  0.06440000  1.0 -0.010335046
C  C68  1  0.90580000  0.06440000  0.56290000  1.0 -0.010335046
C  C69  1  0.06440000  0.56290000  0.90580000  1.0 -0.010335046
C  C70  1  0.43710000  0.09420000  0.93560000  1.0 -0.010335046
C  C71  1  0.09420000  0.93560000  0.43710000  1.0 -0.010335046
C  C72  1  0.93560000  0.43710000  0.09420000  1.0 -0.010335046
C  C73  1  0.60942000  0.99374000  0.11264000  1.0 -0.0593492663
C  C74  1  0.99374000  0.11264000  0.60942000  1.0 -0.0593492663
C  C75  1  0.11264000  0.60942000  0.99374000  1.0 -0.0593492663
C  C76  1  0.39058000  0.00626000  0.88736000  1.0 -0.0593492663
C  C77  1  0.00626000  0.88736000  0.39058000  1.0 -0.0593492663
C  C78  1  0.88736000  0.39058000  0.00626000  1.0 -0.0593492663
C  C79  1  0.68500000  0.03760000  0.18970000  1.0 -0.010335046
C  C80  1  0.03760000  0.18970000  0.68500000  1.0 -0.010335046
C  C81  1  0.18970000  0.68500000  0.03760000  1.0 -0.010335046
C  C82  1  0.31500000  0.96240000  0.81030000  1.0 -0.010335046
C  C83  1  0.96240000  0.81030000  0.31500000  1.0 -0.010335046
C  C84  1  0.81030000  0.31500000  0.96240000  1.0 -0.010335046
C  C85  1  0.71181000  0.99233000  0.21977000  1.0 -0.1003541818
C  C86  1  0.99233000  0.21977000  0.71181000  1.0 -0.1003541818
C  C87  1  0.21977000  0.71181000  0.99233000  1.0 -0.1003541818
C  C88  1  0.28819000  0.00767000  0.78023000  1.0 -0.1003541818
C  C89  1  0.00767000  0.78023000  0.28819000  1.0 -0.1003541818
C  C90  1  0.78023000  0.28819000  0.00767000  1.0 -0.1003541818
C  C91  1  0.69828000  0.85591000  0.20079000  1.0 0.573193116
C  C92  1  0.85591000  0.20079000  0.69828000  1.0 0.573193116
C  C93  1  0.20079000  0.69828000  0.85591000  1.0 0.573193116
C  C94  1  0.30172000  0.14409000  0.79921000  1.0 0.573193116
C  C95  1  0.14409000  0.79921000  0.30172000  1.0 0.573193116
C  C96  1  0.79921000  0.30172000  0.14409000  1.0 0.573193116
C  C97  1  0.48134000  0.85848000  0.98259000  1.0 0.5380739301
C  C98  1  0.85848000  0.98259000  0.48134000  1.0 0.5380739301
C  C99  1  0.98259000  0.48134000  0.85848000  1.0 0.5380739301
C  C100  1  0.51866000  0.14152000  0.01741000  1.0 0.5380739301
C  C101  1  0.14152000  0.01741000  0.51866000  1.0 0.5380739301
C  C102  1  0.01741000  0.51866000  0.14152000  1.0 0.5380739301
C  C103  1  0.19730000  0.27560000  0.57790000  1.0 0.0573655943
C  C104  1  0.27560000  0.57790000  0.19730000  1.0 0.0573655943
C  C105  1  0.57790000  0.19730000  0.27560000  1.0 0.0573655943
C  C106  1  0.80270000  0.72440000  0.42210000  1.0 0.0573655943
C  C107  1  0.72440000  0.42210000  0.80270000  1.0 0.0573655943
C  C108  1  0.42210000  0.80270000  0.72440000  1.0 0.0573655943
C  C109  1  0.17260000  0.32760000  0.61990000  1.0 -0.4190970232
C  C110  1  0.32760000  0.61990000  0.17260000  1.0 -0.4190970232
C  C111  1  0.61990000  0.17260000  0.32760000  1.0 -0.4190970232
C  C112  1  0.82740000  0.67240000  0.38010000  1.0 -0.4190970232
C  C113  1  0.67240000  0.38010000  0.82740000  1.0 -0.4190970232
C  C114  1  0.38010000  0.82740000  0.67240000  1.0 -0.4190970232
C  C115  1  0.82970000  0.86040000  0.12680000  1.0 0.078409368
C  C116  1  0.86040000  0.12680000  0.82970000  1.0 0.078409368
C  C117  1  0.12680000  0.82970000  0.86040000  1.0 0.078409368
C  C118  1  0.17030000  0.13960000  0.87320000  1.0 0.078409368
C  C119  1  0.13960000  0.87320000  0.17030000  1.0 0.078409368
C  C120  1  0.87320000  0.17030000  0.13960000  1.0 0.078409368
C  C121  1  0.89520000  0.89030000  0.11030000  1.0 -0.3995177872
C  C122  1  0.89030000  0.11030000  0.89520000  1.0 -0.3995177872
C  C123  1  0.11030000  0.89520000  0.89030000  1.0 -0.3995177872
C  C124  1  0.10480000  0.10970000  0.88970000  1.0 -0.3995177872
C  C125  1  0.10970000  0.88970000  0.10480000  1.0 -0.3995177872
C  C126  1  0.88970000  0.10480000  0.10970000  1.0 -0.3995177872
C  C127  1  0.74088000  0.13142000  0.23710000  1.0 0.5587478707
C  C128  1  0.13142000  0.23710000  0.74088000  1.0 0.5587478707
C  C129  1  0.23710000  0.74088000  0.13142000  1.0 0.5587478707
C  C130  1  0.25912000  0.86858000  0.76290000  1.0 0.5587478707
C  C131  1  0.86858000  0.76290000  0.25912000  1.0 0.5587478707
C  C132  1  0.76290000  0.25912000  0.86858000  1.0 0.5587478707
C  C133  1  0.45040000  0.63340000  0.00310000  1.0 -0.0407337641
C  C134  1  0.44580000  0.68480000  0.07300000  1.0 -0.3929920122
C  C135  1  0.30830000  0.58940000  0.89520000  1.0 -0.0407337641
C  C136  1  0.26410000  0.50350000  0.88490000  1.0 -0.3929920122
C  C137  1  0.39730000  0.57220000  0.84800000  1.0 -0.0667517439
C  C138  1  0.43910000  0.60180000  0.82370000  1.0 -0.3074926307
C  C139  1  0.00310000  0.45040000  0.63340000  1.0 -0.0407337641
C  C140  1  0.07300000  0.44580000  0.68480000  1.0 -0.3929920122
C  C141  1  0.89520000  0.30830000  0.58940000  1.0 -0.0407337641
C  C142  1  0.88490000  0.26410000  0.50350000  1.0 -0.3929920122
C  C143  1  0.84800000  0.39730000  0.57220000  1.0 -0.0667517439
C  C144  1  0.82370000  0.43910000  0.60180000  1.0 -0.3074926307
C  C145  1  0.63340000  0.00310000  0.45040000  1.0 -0.0407337641
C  C146  1  0.68480000  0.07300000  0.44580000  1.0 -0.3929920122
C  C147  1  0.58940000  0.89520000  0.30830000  1.0 -0.0407337641
C  C148  1  0.50350000  0.88490000  0.26410000  1.0 -0.3995177872
C  C149  1  0.57220000  0.84800000  0.39730000  1.0 -0.0667517439
C  C150  1  0.60180000  0.82370000  0.43910000  1.0 -0.3074926307
C  C151  1  0.54960000  0.36660000  0.99690000  1.0 -0.0407337641
C  C152  1  0.55420000  0.31520000  0.92700000  1.0 -0.3929920122
C  C153  1  0.69170000  0.41060000  0.10480000  1.0 -0.0407337641
C  C154  1  0.73590000  0.49650000  0.11510000  1.0 -0.3929920122
C  C155  1  0.60270000  0.42780000  0.15200000  1.0 -0.0667517439
C  C156  1  0.56090000  0.39820000  0.17630000  1.0 -0.3074926307
C  C157  1  0.99690000  0.54960000  0.36660000  1.0 -0.0407337641
C  C158  1  0.92700000  0.55420000  0.31520000  1.0 -0.3929920122
C  C159  1  0.10480000  0.69170000  0.41060000  1.0 -0.0407337641
C  C160  1  0.11510000  0.73590000  0.49650000  1.0 -0.3929920122
C  C161  1  0.15200000  0.60270000  0.42780000  1.0 -0.0667517439
C  C162  1  0.17630000  0.56090000  0.39820000  1.0 -0.3074926307
C  C163  1  0.36660000  0.99690000  0.54960000  1.0 -0.0407337641
C  C164  1  0.31520000  0.92700000  0.55420000  1.0 -0.3929920122
C  C165  1  0.41060000  0.10480000  0.69170000  1.0 -0.0407337641
C  C166  1  0.49650000  0.11510000  0.73590000  1.0 -0.3929920122
C  C167  1  0.42780000  0.15200000  0.60270000  1.0 -0.0667517439
C  C168  1  0.39820000  0.17630000  0.56090000  1.0 -0.3074926307
C  C169  1  0.61900000  0.03820000  0.90490000  1.0 0.0228967547
C  C170  1  0.66570000  0.03050000  0.90520000  1.0 -0.2731844803
C  C171  1  0.90490000  0.61900000  0.03820000  1.0 0.0228967547
C  C172  1  0.90520000  0.66570000  0.03050000  1.0 -0.2731844803
C  C173  1  0.03820000  0.90490000  0.61900000  1.0 0.0228967547
C  C174  1  0.03050000  0.90520000  0.66570000  1.0 -0.2731844803
C  C175  1  0.38100000  0.96180000  0.09510000  1.0 0.0228967547
C  C176  1  0.33430000  0.96950000  0.09480000  1.0 -0.2731844803
C  C177  1  0.09510000  0.38100000  0.96180000  1.0 0.0228967547
C  C178  1  0.09480000  0.33430000  0.96950000  1.0 -0.2731844803
C  C179  1  0.96180000  0.09510000  0.38100000  1.0 0.0228967547
C  C180  1  0.96950000  0.09480000  0.33430000  1.0 -0.2731844803
N  N1  1  0.39590000  0.62380000  0.92230000  1.0 -0.0753992593
N  N2  1  0.92230000  0.39590000  0.62380000  1.0 -0.0667517439
N  N3  1  0.62380000  0.92230000  0.39590000  1.0 -0.0753992593
N  N4  1  0.60410000  0.37620000  0.07770000  1.0 -0.0753992593
N  N5  1  0.07770000  0.60410000  0.37620000  1.0 -0.0753992593
N  N6  1  0.37620000  0.07770000  0.60410000  1.0 -0.0753992593
O  O1  1  0.64644000  0.61380000  0.02149000  1.0 -0.5132354071
O  O2  1  0.61380000  0.02149000  0.64644000  1.0 -0.5132354071
O  O3  1  0.02149000  0.64644000  0.61380000  1.0 -0.5132354071
O  O4  1  0.35356000  0.38620000  0.97851000  1.0 -0.5132354071
O  O5  1  0.38620000  0.97851000  0.35356000  1.0 -0.5132354071
O  O6  1  0.97851000  0.35356000  0.38620000  1.0 -0.5132354071
O  O7  1  0.71502000  0.65540000  0.96348000  1.0 -0.5020060112
O  O8  1  0.65540000  0.96348000  0.71502000  1.0 -0.5020060112
O  O9  1  0.96348000  0.71502000  0.65540000  1.0 -0.5020060112
O  O10  1  0.28498000  0.34460000  0.03652000  1.0 -0.5020060112
O  O11  1  0.34460000  0.03652000  0.28498000  1.0 -0.5020060112
O  O12  1  0.03652000  0.28498000  0.34460000  1.0 -0.5020060112
O  O13  1  0.35328000  0.35893000  0.82897000  1.0 -0.5288780948
O  O14  1  0.35893000  0.82897000  0.35328000  1.0 -0.5288780948
O  O15  1  0.82897000  0.35328000  0.35893000  1.0 -0.5288780948
O  O16  1  0.64672000  0.64107000  0.17103000  1.0 -0.5288780948
O  O17  1  0.64107000  0.17103000  0.64672000  1.0 -0.5288780948
O  O18  1  0.17103000  0.64672000  0.64107000  1.0 -0.5288780948
O  O19  1  0.32955000  0.25985000  0.71040000  1.0 -0.5522047152
O  O20  1  0.25985000  0.71040000  0.32955000  1.0 -0.5522047152
O  O21  1  0.71040000  0.32955000  0.25985000  1.0 -0.5522047152
O  O22  1  0.67045000  0.74015000  0.28960000  1.0 -0.5522047152
O  O23  1  0.74015000  0.28960000  0.67045000  1.0 -0.5522047152
O  O24  1  0.28960000  0.67045000  0.74015000  1.0 -0.5522047152
O  O25  1  0.58061000  0.50910000  0.66009000  1.0 -0.3424638977
O  O26  1  0.50910000  0.66009000  0.58061000  1.0 -0.3424638977
O  O27  1  0.66009000  0.58061000  0.50910000  1.0 -0.3424638977
O  O28  1  0.41939000  0.49090000  0.33991000  1.0 -0.3424638977
O  O29  1  0.49090000  0.33991000  0.41939000  1.0 -0.3424638977
O  O30  1  0.33991000  0.41939000  0.49090000  1.0 -0.3424638977
O  O31  1  0.46897000  0.37960000  0.57873000  1.0 -0.4091450344
O  O32  1  0.37960000  0.57873000  0.46897000  1.0 -0.4091450344
O  O33  1  0.57873000  0.46897000  0.37960000  1.0 -0.4091450344
O  O34  1  0.53103000  0.62040000  0.42127000  1.0 -0.4091450344
O  O35  1  0.62040000  0.42127000  0.53103000  1.0 -0.4091450344
O  O36  1  0.42127000  0.53103000  0.62040000  1.0 -0.4091450344
O  O37  1  0.66947000  0.78163000  0.14506000  1.0 -0.5288780948
O  O38  1  0.78163000  0.14506000  0.66947000  1.0 -0.5288780948
O  O39  1  0.14506000  0.66947000  0.78163000  1.0 -0.5288780948
O  O40  1  0.33053000  0.21837000  0.85494000  1.0 -0.5288780948
O  O41  1  0.21837000  0.85494000  0.33053000  1.0 -0.5288780948
O  O42  1  0.85494000  0.33053000  0.21837000  1.0 -0.5288780948
O  O43  1  0.74771000  0.89279000  0.27837000  1.0 -0.5522047152
O  O44  1  0.89279000  0.27837000  0.74771000  1.0 -0.5522047152
O  O45  1  0.27837000  0.74771000  0.89279000  1.0 -0.5522047152
O  O46  1  0.25229000  0.10721000  0.72163000  1.0 -0.5522047152
O  O47  1  0.10721000  0.72163000  0.25229000  1.0 -0.5522047152
O  O48  1  0.72163000  0.25229000  0.10721000  1.0 -0.5522047152
O  O49  1  0.44731000  0.89713000  0.96408000  1.0 -0.4331295808
O  O50  1  0.89713000  0.96408000  0.44731000  1.0 -0.4331295808
O  O51  1  0.96408000  0.44731000  0.89713000  1.0 -0.4331295808
O  O52  1  0.55269000  0.10287000  0.03592000  1.0 -0.4331295808
O  O53  1  0.10287000  0.03592000  0.55269000  1.0 -0.4331295808
O  O54  1  0.03592000  0.55269000  0.10287000  1.0 -0.4331295808
O  O55  1  0.44626000  0.78039000  0.93262000  1.0 -0.5160904695
O  O56  1  0.78039000  0.93262000  0.44626000  1.0 -0.5160904695
O  O57  1  0.93262000  0.44626000  0.78039000  1.0 -0.5160904695
O  O58  1  0.55374000  0.21961000  0.06738000  1.0 -0.5160904695
O  O59  1  0.21961000  0.06738000  0.55374000  1.0 -0.5160904695
O  O60  1  0.06738000  0.55374000  0.21961000  1.0 -0.5160904695
O  O61  1  0.80317000  0.78087000  0.11331000  1.0 -0.4331295808
O  O62  1  0.78087000  0.11331000  0.80317000  1.0 -0.4331295808
O  O63  1  0.11331000  0.80317000  0.78087000  1.0 -0.4331295808
O  O64  1  0.19683000  0.21913000  0.88669000  1.0 -0.4331295808
O  O65  1  0.21913000  0.88669000  0.19683000  1.0 -0.4331295808
O  O66  1  0.88669000  0.19683000  0.21913000  1.0 -0.4331295808
O  O67  1  0.16403000  0.19550000  0.57220000  1.0 -0.4365135253
O  O68  1  0.19550000  0.57220000  0.16403000  1.0 -0.4365135253
O  O69  1  0.57220000  0.16403000  0.19550000  1.0 -0.4365135253
O  O70  1  0.83597000  0.80450000  0.42780000  1.0 -0.4365135253
O  O71  1  0.80450000  0.42780000  0.83597000  1.0 -0.4365135253
O  O72  1  0.42780000  0.83597000  0.80450000  1.0 -0.4365135253
O  O73  1  0.80504000  0.17067000  0.30838000  1.0 -0.4900840988
O  O74  1  0.17067000  0.30838000  0.80504000  1.0 -0.4900840988
O  O75  1  0.30838000  0.80504000  0.17067000  1.0 -0.4900840988
O  O76  1  0.19496000  0.82933000  0.69162000  1.0 -0.4900840988
O  O77  1  0.82933000  0.69162000  0.19496000  1.0 -0.4900840988
O  O78  1  0.69162000  0.19496000  0.82933000  1.0 -0.4900840988
O  O79  1  0.72675000  0.16988000  0.19993000  1.0 -0.5577000549
O  O80  1  0.16988000  0.19993000  0.72675000  1.0 -0.5577000549
O  O81  1  0.19993000  0.72675000  0.16988000  1.0 -0.5577000549
O  O82  1  0.27325000  0.83012000  0.80007000  1.0 -0.5577000549
O  O83  1  0.83012000  0.80007000  0.27325000  1.0 -0.5577000549
O  O84  1  0.80007000  0.27325000  0.83012000  1.0 -0.5577000549
O  O85  1  0.56550000  0.98950000  0.91740000  1.0 -0.1834453365
O  O86  1  0.91740000  0.56550000  0.98950000  1.0 -0.1834453365
O  O87  1  0.98950000  0.91740000  0.56550000  1.0 -0.1834453365
O  O88  1  0.43450000  0.01050000  0.08260000  1.0 -0.1834453365
O  O89  1  0.08260000  0.43450000  0.01050000  1.0 -0.1834453365
O  O90  1  0.01050000  0.08260000  0.43450000  1.0 -0.1834453365
