# DDEC6 charges by PACMAN v1.1 (https://github.com/mtap-research/PACMAN-charge/)
data_AVUHIJ_FSR_pacman
_symmetry_space_group_name_H-M   'P 1'
_cell_length_a   17.51900000
_cell_length_b   10.08000000
_cell_length_c   22.93100000
_cell_angle_alpha   90.00000000
_cell_angle_beta   98.72000000
_cell_angle_gamma   90.00000000
_symmetry_Int_Tables_number   1
_chemical_formula_structural   Co3H62C80(N9O7)2
_chemical_formula_sum   'Co6 H124 C160 N36 O28'
_cell_volume   4002.61300538
_cell_formula_units_Z   2
loop_
 _symmetry_equiv_pos_site_id
 _symmetry_equiv_pos_as_xyz
  1  'x, y, z'
loop_
 _atom_site_type_symbol
 _atom_site_label
 _atom_site_symmetry_multiplicity
 _atom_site_fract_x
 _atom_site_fract_y
 _atom_site_fract_z
 _atom_site_occupancy
 _atom_site_charge
Co  Co1  1  0.34066000  0.18983000  0.33983000  1.0 0.7957718726
Co  Co2  1  0.65934000  0.68983000  0.16017000  1.0 0.7957718726
Co  Co3  1  0.65934000  0.81017000  0.66017000  1.0 0.7957718726
Co  Co4  1  0.34066000  0.31017000  0.83983000  1.0 0.7957718726
Co  Co5  1  0.00000000  0.50000000  0.50000000  1.0 0.8194010015
Co  Co6  1  0.00000000  0.00000000  0.00000000  1.0 0.8194010015
H  H1  1  0.95530000  0.69470000  0.51460000  1.0 0.30686724
H  H2  1  0.04470000  0.19470000  0.98540000  1.0 0.30686724
H  H3  1  0.04470000  0.30530000  0.48540000  1.0 0.30686724
H  H4  1  0.95530000  0.80530000  0.01460000  1.0 0.30686724
H  H5  1  0.97210000  0.68790000  0.45760000  1.0 0.30686724
H  H6  1  0.02790000  0.18790000  0.04240000  1.0 0.30686724
H  H7  1  0.02790000  0.31210000  0.54240000  1.0 0.30686724
H  H8  1  0.97210000  0.81210000  0.95760000  1.0 0.30686724
H  H9  1  0.34470000  0.69170000  0.33440000  1.0 0.1195388396
H  H10  1  0.65530000  0.19170000  0.16560000  1.0 0.1195388396
H  H11  1  0.65530000  0.30830000  0.66560000  1.0 0.1195388396
H  H12  1  0.34470000  0.80830000  0.83440000  1.0 0.1195388396
H  H13  1  0.19060000  0.48940000  0.41140000  1.0 0.129302876
H  H14  1  0.80940000  0.98940000  0.08860000  1.0 0.129302876
H  H15  1  0.80940000  0.51060000  0.58860000  1.0 0.129302876
H  H16  1  0.19060000  0.01060000  0.91140000  1.0 0.129302876
H  H17  1  0.18590000  0.88630000  0.41010000  1.0 0.129302876
H  H18  1  0.81410000  0.38630000  0.08990000  1.0 0.129302876
H  H19  1  0.81410000  0.11370000  0.58990000  1.0 0.129302876
H  H20  1  0.18590000  0.61370000  0.91010000  1.0 0.129302876
H  H21  1  0.25950000  0.02550000  0.22610000  1.0 0.1195388396
H  H22  1  0.74050000  0.52550000  0.27390000  1.0 0.1195388396
H  H23  1  0.74050000  0.97450000  0.77390000  1.0 0.1195388396
H  H24  1  0.25950000  0.47450000  0.72610000  1.0 0.1195388396
H  H25  1  0.37270000  0.35200000  0.22210000  1.0 0.129302876
H  H26  1  0.62730000  0.85200000  0.27790000  1.0 0.129302876
H  H27  1  0.62730000  0.64800000  0.77790000  1.0 0.129302876
H  H28  1  0.37270000  0.14800000  0.72210000  1.0 0.129302876
H  H29  1  0.28130000  0.31660000  0.07680000  1.0 0.137970324
H  H30  1  0.71870000  0.81660000  0.42320000  1.0 0.137970324
H  H31  1  0.71870000  0.68340000  0.92320000  1.0 0.137970324
H  H32  1  0.28130000  0.18340000  0.57680000  1.0 0.137970324
H  H33  1  0.35430000  0.39020000  0.10970000  1.0 0.129302876
H  H34  1  0.64570000  0.89020000  0.39030000  1.0 0.129302876
H  H35  1  0.64570000  0.60980000  0.89030000  1.0 0.129302876
H  H36  1  0.35430000  0.10980000  0.60970000  1.0 0.129302876
H  H37  1  0.48260000  0.26360000  0.11720000  1.0 0.129302876
H  H38  1  0.51740000  0.76360000  0.38280000  1.0 0.129302876
H  H39  1  0.51740000  0.73640000  0.88280000  1.0 0.129302876
H  H40  1  0.48260000  0.23640000  0.61720000  1.0 0.129302876
H  H41  1  0.55750000  0.12260000  0.07410000  1.0 0.1195388396
H  H42  1  0.44250000  0.62260000  0.42590000  1.0 0.1195388396
H  H43  1  0.44250000  0.87740000  0.92590000  1.0 0.1195388396
H  H44  1  0.55750000  0.37740000  0.57410000  1.0 0.1195388396
H  H45  1  0.37460000  0.00340000  0.96580000  1.0 0.1105272719
H  H46  1  0.62540000  0.50340000  0.53420000  1.0 0.1105272719
H  H47  1  0.62540000  0.99660000  0.03420000  1.0 0.1105272719
H  H48  1  0.37460000  0.49660000  0.46580000  1.0 0.1105272719
H  H49  1  0.29860000  0.14450000  0.00990000  1.0 0.137970324
H  H50  1  0.70140000  0.64450000  0.49010000  1.0 0.137970324
H  H51  1  0.70140000  0.85550000  0.99010000  1.0 0.137970324
H  H52  1  0.29860000  0.35550000  0.50990000  1.0 0.137970324
H  H53  1  0.45420000  0.02550000  0.43770000  1.0 0.1195388396
H  H54  1  0.54580000  0.52550000  0.06230000  1.0 0.1195388396
H  H55  1  0.54580000  0.97450000  0.56230000  1.0 0.1195388396
H  H56  1  0.45420000  0.47450000  0.93770000  1.0 0.1195388396
H  H57  1  0.50900000  0.34020000  0.35770000  1.0 0.129302876
H  H58  1  0.49100000  0.84020000  0.14230000  1.0 0.129302876
H  H59  1  0.49100000  0.65980000  0.64230000  1.0 0.129302876
H  H60  1  0.50900000  0.15980000  0.85770000  1.0 0.129302876
H  H61  1  0.64900000  0.37030000  0.41100000  1.0 0.129302876
H  H62  1  0.35100000  0.87030000  0.08900000  1.0 0.129302876
H  H63  1  0.35100000  0.62970000  0.58900000  1.0 0.129302876
H  H64  1  0.64900000  0.12970000  0.91100000  1.0 0.129302876
H  H65  1  0.66850000  0.28470000  0.46840000  1.0 0.137970324
H  H66  1  0.33150000  0.78470000  0.03160000  1.0 0.137970324
H  H67  1  0.33150000  0.71530000  0.53160000  1.0 0.137970324
H  H68  1  0.66850000  0.21530000  0.96840000  1.0 0.137970324
H  H69  1  0.77060000  0.13670000  0.47120000  1.0 0.129302876
H  H70  1  0.22940000  0.63670000  0.02880000  1.0 0.129302876
H  H71  1  0.22940000  0.86330000  0.52880000  1.0 0.129302876
H  H72  1  0.77060000  0.36330000  0.97120000  1.0 0.129302876
H  H73  1  0.85750000  0.01810000  0.42820000  1.0 0.1195388396
H  H74  1  0.14250000  0.51810000  0.07180000  1.0 0.1195388396
H  H75  1  0.14250000  0.98190000  0.57180000  1.0 0.1195388396
H  H76  1  0.85750000  0.48190000  0.92820000  1.0 0.1195388396
H  H77  1  0.74230000  0.10640000  0.27030000  1.0 0.1105272719
H  H78  1  0.25770000  0.60640000  0.22970000  1.0 0.1105272719
H  H79  1  0.25770000  0.89360000  0.72970000  1.0 0.1105272719
H  H80  1  0.74230000  0.39360000  0.77030000  1.0 0.1105272719
H  H81  1  0.65660000  0.22590000  0.31410000  1.0 0.129302876
H  H82  1  0.34340000  0.72590000  0.18590000  1.0 0.129302876
H  H83  1  0.34340000  0.77410000  0.68590000  1.0 0.129302876
H  H84  1  0.65660000  0.27410000  0.81410000  1.0 0.129302876
H  H85  1  0.95640000  0.96920000  0.38530000  1.0 0.1195388396
H  H86  1  0.04360000  0.46920000  0.11470000  1.0 0.1195388396
H  H87  1  0.04360000  0.03080000  0.61470000  1.0 0.1195388396
H  H88  1  0.95640000  0.53080000  0.88530000  1.0 0.1195388396
H  H89  1  0.04550000  0.86190000  0.33570000  1.0 0.1195388396
H  H90  1  0.95450000  0.36190000  0.16430000  1.0 0.1195388396
H  H91  1  0.95450000  0.13810000  0.66430000  1.0 0.1195388396
H  H92  1  0.04550000  0.63810000  0.83570000  1.0 0.1195388396
H  H93  1  0.88640000  0.83110000  0.19380000  1.0 0.0988467568
H  H94  1  0.11360000  0.33110000  0.30620000  1.0 0.0988467568
H  H95  1  0.11360000  0.16890000  0.80620000  1.0 0.0988467568
H  H96  1  0.88640000  0.66890000  0.69380000  1.0 0.0988467568
H  H97  1  0.80080000  0.93850000  0.24260000  1.0 0.0916624882
H  H98  1  0.19920000  0.43850000  0.25740000  1.0 0.0916624882
H  H99  1  0.19920000  0.06150000  0.75740000  1.0 0.0916624882
H  H100  1  0.80080000  0.56150000  0.74260000  1.0 0.0916624882
H  H101  1  0.98150000  0.77570000  0.10340000  1.0 0.1105272719
H  H102  1  0.01850000  0.27570000  0.39660000  1.0 0.1105272719
H  H103  1  0.01850000  0.22430000  0.89660000  1.0 0.1105272719
H  H104  1  0.98150000  0.72430000  0.60340000  1.0 0.1105272719
H  H105  1  0.12630000  0.06450000  0.12070000  1.0 0.1105272719
H  H106  1  0.87370000  0.56450000  0.37930000  1.0 0.1105272719
H  H107  1  0.87370000  0.93550000  0.87930000  1.0 0.1105272719
H  H108  1  0.12630000  0.43550000  0.62070000  1.0 0.1105272719
H  H109  1  0.89430000  0.83810000  0.37260000  1.0 0.1105272719
H  H110  1  0.10570000  0.33810000  0.12740000  1.0 0.1105272719
H  H111  1  0.10570000  0.16190000  0.62740000  1.0 0.1105272719
H  H112  1  0.89430000  0.66190000  0.87260000  1.0 0.1105272719
H  H113  1  0.98960000  0.74000000  0.33030000  1.0 0.1105272719
H  H114  1  0.01040000  0.24000000  0.16970000  1.0 0.1105272719
H  H115  1  0.01040000  0.26000000  0.66970000  1.0 0.1105272719
H  H116  1  0.98960000  0.76000000  0.83030000  1.0 0.1105272719
H  H117  1  0.92340000  0.95320000  0.18370000  1.0 0.1105272719
H  H118  1  0.07660000  0.45320000  0.31630000  1.0 0.1105272719
H  H119  1  0.07660000  0.04680000  0.81630000  1.0 0.1105272719
H  H120  1  0.92340000  0.54680000  0.68370000  1.0 0.1105272719
H  H121  1  0.83290000  0.05850000  0.22950000  1.0 0.0988467568
H  H122  1  0.16710000  0.55850000  0.27050000  1.0 0.0988467568
H  H123  1  0.16710000  0.94150000  0.77050000  1.0 0.0988467568
H  H124  1  0.83290000  0.44150000  0.72950000  1.0 0.0988467568
C  C1  1  0.30470000  0.93800000  0.35510000  1.0 0.5273337717
C  C2  1  0.69530000  0.43800000  0.14490000  1.0 0.5273337717
C  C3  1  0.69530000  0.06200000  0.64490000  1.0 0.5273337717
C  C4  1  0.30470000  0.56200000  0.85510000  1.0 0.5273337717
C  C5  1  0.27060000  0.80970000  0.37050000  1.0 -0.0160162487
C  C6  1  0.72940000  0.30970000  0.12950000  1.0 -0.0160162487
C  C7  1  0.72940000  0.19030000  0.62950000  1.0 -0.0160162487
C  C8  1  0.27060000  0.69030000  0.87050000  1.0 -0.0160162487
C  C9  1  0.30280000  0.69050000  0.35490000  1.0 -0.1304088341
C  C10  1  0.69720000  0.19050000  0.14510000  1.0 -0.1304088341
C  C11  1  0.69720000  0.30950000  0.64510000  1.0 -0.1304088341
C  C12  1  0.30280000  0.80950000  0.85490000  1.0 -0.1304088341
C  C13  1  0.27250000  0.57110000  0.36988000  1.0 -0.0493182424
C  C14  1  0.72750000  0.07110000  0.13012000  1.0 -0.0493182424
C  C15  1  0.72750000  0.42890000  0.63012000  1.0 -0.0493182424
C  C16  1  0.27250000  0.92890000  0.86988000  1.0 -0.0493182424
C  C17  1  0.30690000  0.44340000  0.35360000  1.0 0.5273337717
C  C18  1  0.69310000  0.94340000  0.14640000  1.0 0.5273337717
C  C19  1  0.69310000  0.55660000  0.64640000  1.0 0.5273337717
C  C20  1  0.30690000  0.05660000  0.85360000  1.0 0.5273337717
C  C21  1  0.21050000  0.56990000  0.40080000  1.0 -0.1494482793
C  C22  1  0.78950000  0.06990000  0.09920000  1.0 -0.1494482793
C  C23  1  0.78950000  0.43010000  0.59920000  1.0 -0.1494482793
C  C24  1  0.21050000  0.93010000  0.90080000  1.0 -0.1494482793
C  C25  1  0.17780000  0.68780000  0.41610000  1.0 -0.0308002429
C  C26  1  0.82220000  0.18780000  0.08390000  1.0 -0.0308002429
C  C27  1  0.82220000  0.31220000  0.58390000  1.0 -0.0308002429
C  C28  1  0.17780000  0.81220000  0.91610000  1.0 -0.0308002429
C  C29  1  0.20800000  0.80710000  0.40040000  1.0 -0.1304088341
C  C30  1  0.79200000  0.30710000  0.09960000  1.0 -0.1304088341
C  C31  1  0.79200000  0.19290000  0.59960000  1.0 -0.1304088341
C  C32  1  0.20800000  0.69290000  0.90040000  1.0 -0.1304088341
C  C33  1  0.10890000  0.68370000  0.44860000  1.0 0.5406479593
C  C34  1  0.89110000  0.18370000  0.05140000  1.0 0.5406479593
C  C35  1  0.89110000  0.31630000  0.55140000  1.0 0.5406479593
C  C36  1  0.10890000  0.81630000  0.94860000  1.0 0.5406479593
C  C37  1  0.28250000  0.10030000  0.21260000  1.0 0.1533051673
C  C38  1  0.71750000  0.60030000  0.28740000  1.0 0.1533051673
C  C39  1  0.71750000  0.89970000  0.78740000  1.0 0.1533051673
C  C40  1  0.28250000  0.39970000  0.71260000  1.0 0.1533051673
C  C41  1  0.34380000  0.27620000  0.21130000  1.0 0.077081018
C  C42  1  0.65620000  0.77620000  0.28870000  1.0 0.077081018
C  C43  1  0.65620000  0.72380000  0.78870000  1.0 0.077081018
C  C44  1  0.34380000  0.22380000  0.71130000  1.0 0.077081018
C  C45  1  0.33070000  0.30380000  0.10160000  1.0 -0.1982989815
C  C46  1  0.66930000  0.80380000  0.39840000  1.0 -0.1982989815
C  C47  1  0.66930000  0.69620000  0.89840000  1.0 -0.1982989815
C  C48  1  0.33070000  0.19620000  0.60160000  1.0 -0.1982989815
C  C49  1  0.38250000  0.21830000  0.06910000  1.0 0.0988467568
C  C50  1  0.61750000  0.71830000  0.43090000  1.0 0.0988467568
C  C51  1  0.61750000  0.78170000  0.93090000  1.0 0.0988467568
C  C52  1  0.38250000  0.28170000  0.56910000  1.0 0.0988467568
C  C53  1  0.45970000  0.21000000  0.08640000  1.0 -0.1424941849
C  C54  1  0.54030000  0.71000000  0.41360000  1.0 -0.1424941849
C  C55  1  0.54030000  0.79000000  0.91360000  1.0 -0.1424941849
C  C56  1  0.45970000  0.29000000  0.58640000  1.0 -0.1424941849
C  C57  1  0.50490000  0.12580000  0.06020000  1.0 -0.1424941849
C  C58  1  0.49510000  0.62580000  0.43980000  1.0 -0.1424941849
C  C59  1  0.49510000  0.87420000  0.93980000  1.0 -0.1424941849
C  C60  1  0.50490000  0.37420000  0.56020000  1.0 -0.1424941849
C  C61  1  0.47570000  0.04590000  0.01410000  1.0 0.0601846557
C  C62  1  0.52430000  0.54590000  0.48590000  1.0 0.0601846557
C  C63  1  0.52430000  0.95410000  0.98590000  1.0 0.0601846557
C  C64  1  0.47570000  0.45410000  0.51410000  1.0 0.0601846557
C  C65  1  0.39750000  0.05600000  0.99690000  1.0 -0.1494482793
C  C66  1  0.60250000  0.55600000  0.50310000  1.0 -0.1494482793
C  C67  1  0.60250000  0.94400000  0.00310000  1.0 -0.1494482793
C  C68  1  0.39750000  0.44400000  0.49690000  1.0 -0.1494482793
C  C69  1  0.35130000  0.14070000  0.02340000  1.0 -0.1424941849
C  C70  1  0.64870000  0.64070000  0.47660000  1.0 -0.1424941849
C  C71  1  0.64870000  0.85930000  0.97660000  1.0 -0.1424941849
C  C72  1  0.35130000  0.35930000  0.52340000  1.0 -0.1424941849
C  C73  1  0.48240000  0.09560000  0.42540000  1.0 0.1533051673
C  C74  1  0.51760000  0.59560000  0.07460000  1.0 0.1533051673
C  C75  1  0.51760000  0.90440000  0.57460000  1.0 0.1533051673
C  C76  1  0.48240000  0.40440000  0.92540000  1.0 0.1533051673
C  C77  1  0.51080000  0.26560000  0.38170000  1.0 0.0916624882
C  C78  1  0.48920000  0.76560000  0.11830000  1.0 0.0916624882
C  C79  1  0.48920000  0.73440000  0.61830000  1.0 0.0916624882
C  C80  1  0.51080000  0.23440000  0.88170000  1.0 0.0916624882
C  C81  1  0.65020000  0.28050000  0.42640000  1.0 -0.1982989815
C  C82  1  0.34980000  0.78050000  0.07360000  1.0 -0.1982989815
C  C83  1  0.34980000  0.71950000  0.57360000  1.0 -0.1982989815
C  C84  1  0.65020000  0.21950000  0.92640000  1.0 -0.1982989815
C  C85  1  0.76530000  0.13260000  0.43030000  1.0 -0.1304088341
C  C86  1  0.23470000  0.63260000  0.06970000  1.0 -0.1304088341
C  C87  1  0.23470000  0.86740000  0.56970000  1.0 -0.1304088341
C  C88  1  0.76530000  0.36740000  0.93030000  1.0 -0.1304088341
C  C89  1  0.81700000  0.06040000  0.40450000  1.0 -0.1598208603
C  C90  1  0.18300000  0.56040000  0.09550000  1.0 -0.1598208603
C  C91  1  0.18300000  0.93960000  0.59550000  1.0 -0.1598208603
C  C92  1  0.81700000  0.43960000  0.90450000  1.0 -0.1598208603
C  C93  1  0.81050000  0.04880000  0.34330000  1.0 0.0140071415
C  C94  1  0.18950000  0.54880000  0.15670000  1.0 0.0140071415
C  C95  1  0.18950000  0.95120000  0.65670000  1.0 0.0140071415
C  C96  1  0.81050000  0.45120000  0.84330000  1.0 0.0140071415
C  C97  1  0.74930000  0.11250000  0.31130000  1.0 -0.1598208603
C  C98  1  0.25070000  0.61250000  0.18870000  1.0 -0.1598208603
C  C99  1  0.25070000  0.88750000  0.68870000  1.0 -0.1598208603
C  C100  1  0.74930000  0.38750000  0.81130000  1.0 -0.1598208603
C  C101  1  0.69790000  0.18510000  0.33760000  1.0 -0.1424941849
C  C102  1  0.30210000  0.68510000  0.16240000  1.0 -0.1424941849
C  C103  1  0.30210000  0.81490000  0.66240000  1.0 -0.1424941849
C  C104  1  0.69790000  0.31490000  0.83760000  1.0 -0.1424941849
C  C105  1  0.70570000  0.19900000  0.39720000  1.0 0.0916624882
C  C106  1  0.29430000  0.69900000  0.10280000  1.0 0.0916624882
C  C107  1  0.29430000  0.80100000  0.60280000  1.0 0.0916624882
C  C108  1  0.70570000  0.30100000  0.89720000  1.0 0.0916624882
C  C109  1  0.86630000  0.97060000  0.31510000  1.0 0.0179333821
C  C110  1  0.13370000  0.47060000  0.18490000  1.0 0.0179333821
C  C111  1  0.13370000  0.02940000  0.68490000  1.0 0.0179333821
C  C112  1  0.86630000  0.52940000  0.81510000  1.0 0.0179333821
C  C113  1  0.94280000  0.94400000  0.34610000  1.0 -0.0408284315
C  C114  1  0.05720000  0.44400000  0.15390000  1.0 -0.0408284315
C  C115  1  0.05720000  0.05600000  0.65390000  1.0 -0.0408284315
C  C116  1  0.94280000  0.55600000  0.84610000  1.0 -0.0408284315
C  C117  1  0.99580000  0.87900000  0.31650000  1.0 -0.0581181124
C  C118  1  0.00420000  0.37900000  0.18350000  1.0 -0.0581181124
C  C119  1  0.00420000  0.12100000  0.68350000  1.0 -0.0581181124
C  C120  1  0.99580000  0.62100000  0.81650000  1.0 -0.0581181124
C  C121  1  0.97410000  0.83790000  0.25650000  1.0 0.0344494879
C  C122  1  0.02590000  0.33790000  0.24350000  1.0 0.0344494879
C  C123  1  0.02590000  0.16210000  0.74350000  1.0 0.0344494879
C  C124  1  0.97410000  0.66210000  0.75650000  1.0 0.0344494879
C  C125  1  0.90280000  0.86000000  0.23220000  1.0 -0.0408284315
C  C126  1  0.09720000  0.36000000  0.26780000  1.0 -0.0408284315
C  C127  1  0.09720000  0.14000000  0.76780000  1.0 -0.0408284315
C  C128  1  0.90280000  0.64000000  0.73220000  1.0 -0.0408284315
C  C129  1  0.85070000  0.92600000  0.26230000  1.0 -0.0493182424
C  C130  1  0.14930000  0.42600000  0.23770000  1.0 -0.0493182424
C  C131  1  0.14930000  0.07400000  0.73770000  1.0 -0.0493182424
C  C132  1  0.85070000  0.57400000  0.76230000  1.0 -0.0493182424
C  C133  1  0.03250000  0.76410000  0.22590000  1.0 -0.2602670361
C  C134  1  0.96750000  0.26410000  0.27410000  1.0 -0.2602670361
C  C135  1  0.96750000  0.23590000  0.77410000  1.0 -0.2602670361
C  C136  1  0.03250000  0.73590000  0.72590000  1.0 -0.2602670361
C  C137  1  0.01830000  0.83770000  0.11900000  1.0 0.077081018
C  C138  1  0.98170000  0.33770000  0.38100000  1.0 0.077081018
C  C139  1  0.98170000  0.16230000  0.88100000  1.0 0.077081018
C  C140  1  0.01830000  0.66230000  0.61900000  1.0 0.077081018
C  C141  1  0.09610000  0.99320000  0.12930000  1.0 0.129302876
C  C142  1  0.90390000  0.49320000  0.37070000  1.0 0.129302876
C  C143  1  0.90390000  0.00680000  0.87070000  1.0 0.129302876
C  C144  1  0.09610000  0.50680000  0.62930000  1.0 0.129302876
C  C145  1  0.90400000  0.87100000  0.33670000  1.0 -0.0493182424
C  C146  1  0.09600000  0.37100000  0.16330000  1.0 -0.0493182424
C  C147  1  0.09600000  0.12900000  0.66330000  1.0 -0.0493182424
C  C148  1  0.90400000  0.62900000  0.83670000  1.0 -0.0493182424
C  C149  1  0.96060000  0.80700000  0.30970000  1.0 -0.0581181124
C  C150  1  0.03940000  0.30700000  0.19030000  1.0 -0.0581181124
C  C151  1  0.03940000  0.19300000  0.69030000  1.0 -0.0581181124
C  C152  1  0.96060000  0.69300000  0.80970000  1.0 -0.0581181124
C  C153  1  0.92040000  0.93600000  0.22320000  1.0 -0.0308002429
C  C154  1  0.07960000  0.43600000  0.27680000  1.0 -0.0308002429
C  C155  1  0.07960000  0.06400000  0.77680000  1.0 -0.0308002429
C  C156  1  0.92040000  0.56400000  0.72320000  1.0 -0.0308002429
C  C157  1  0.86770000  0.99900000  0.25010000  1.0 -0.0493182424
C  C158  1  0.13230000  0.49900000  0.24990000  1.0 -0.0493182424
C  C159  1  0.13230000  0.00100000  0.74990000  1.0 -0.0493182424
C  C160  1  0.86770000  0.50100000  0.75010000  1.0 -0.0493182424
N  N1  1  0.32280000  0.18950000  0.24910000  1.0 -0.320642287
N  N2  1  0.67720000  0.68950000  0.25090000  1.0 -0.320642287
N  N3  1  0.67720000  0.81050000  0.75090000  1.0 -0.320642287
N  N4  1  0.32280000  0.31050000  0.74910000  1.0 -0.320642287
N  N5  1  0.27880000  0.12850000  0.15660000  1.0 -0.2372865249
N  N6  1  0.72120000  0.62850000  0.34340000  1.0 -0.2372865249
N  N7  1  0.72120000  0.87150000  0.84340000  1.0 -0.2372865249
N  N8  1  0.27880000  0.37150000  0.65660000  1.0 -0.2372865249
N  N9  1  0.31880000  0.24180000  0.15670000  1.0 0.1627547796
N  N10  1  0.68120000  0.74180000  0.34330000  1.0 0.1627547796
N  N11  1  0.68120000  0.75820000  0.84330000  1.0 0.1627547796
N  N12  1  0.31880000  0.25820000  0.65670000  1.0 0.1627547796
N  N13  1  0.45130000  0.18570000  0.38480000  1.0 -0.3269576598
N  N14  1  0.54870000  0.68570000  0.11520000  1.0 -0.3269576598
N  N15  1  0.54870000  0.81430000  0.61520000  1.0 -0.3269576598
N  N16  1  0.45130000  0.31430000  0.88480000  1.0 -0.3269576598
N  N17  1  0.55450000  0.11510000  0.44560000  1.0 -0.2479357179
N  N18  1  0.44550000  0.61510000  0.05440000  1.0 -0.2479357179
N  N19  1  0.44550000  0.88490000  0.55440000  1.0 -0.2479357179
N  N20  1  0.55450000  0.38490000  0.94560000  1.0 -0.2479357179
N  N21  1  0.57170000  0.22590000  0.41670000  1.0 0.1661059464
N  N22  1  0.42830000  0.72590000  0.08330000  1.0 0.1661059464
N  N23  1  0.42830000  0.77410000  0.58330000  1.0 0.1661059464
N  N24  1  0.57170000  0.27410000  0.91670000  1.0 0.1661059464
N  N25  1  0.05030000  0.84210000  0.17530000  1.0 0.0988467568
N  N26  1  0.94970000  0.34210000  0.32470000  1.0 0.0988467568
N  N27  1  0.94970000  0.15790000  0.82470000  1.0 0.0988467568
N  N28  1  0.05030000  0.65790000  0.67530000  1.0 0.0988467568
N  N29  1  0.09970000  0.94350000  0.18310000  1.0 -0.2372865249
N  N30  1  0.90030000  0.44350000  0.31690000  1.0 -0.2372865249
N  N31  1  0.90030000  0.05650000  0.81690000  1.0 -0.2372865249
N  N32  1  0.09970000  0.55650000  0.68310000  1.0 -0.2372865249
N  N33  1  0.04530000  0.93190000  0.08790000  1.0 -0.320642287
N  N34  1  0.95470000  0.43190000  0.41210000  1.0 -0.320642287
N  N35  1  0.95470000  0.06810000  0.91210000  1.0 -0.320642287
N  N36  1  0.04530000  0.56810000  0.58790000  1.0 -0.320642287
O  O1  1  0.36160000  0.93950000  0.32950000  1.0 -0.5610862219
O  O2  1  0.63840000  0.43950000  0.17050000  1.0 -0.5610862219
O  O3  1  0.63840000  0.06050000  0.67050000  1.0 -0.5511888111
O  O4  1  0.36160000  0.56050000  0.82950000  1.0 -0.5511888111
O  O5  1  0.27510000  0.04540000  0.36924000  1.0 -0.5342104678
O  O6  1  0.72490000  0.54540000  0.13076000  1.0 -0.5342104678
O  O7  1  0.72490000  0.95460000  0.63076000  1.0 -0.5342104678
O  O8  1  0.27510000  0.45460000  0.86924000  1.0 -0.5342104678
O  O9  1  0.36420000  0.44210000  0.32724000  1.0 -0.5610862219
O  O10  1  0.63580000  0.94210000  0.17276000  1.0 -0.5610862219
O  O11  1  0.63580000  0.55790000  0.67276000  1.0 -0.5610862219
O  O12  1  0.36420000  0.05790000  0.82724000  1.0 -0.5610862219
O  O13  1  0.27751000  0.33570000  0.36906000  1.0 -0.5234604124
O  O14  1  0.72249000  0.83570000  0.13094000  1.0 -0.5234604124
O  O15  1  0.72249000  0.66430000  0.63094000  1.0 -0.5234604124
O  O16  1  0.27751000  0.16430000  0.86906000  1.0 -0.5234604124
O  O17  1  0.09230000  0.56980000  0.46540000  1.0 -0.5511888111
O  O18  1  0.90770000  0.06980000  0.03460000  1.0 -0.5511888111
O  O19  1  0.90770000  0.43020000  0.53460000  1.0 -0.5511888111
O  O20  1  0.09230000  0.93020000  0.96540000  1.0 -0.5511888111
O  O21  1  0.07390000  0.78780000  0.45569000  1.0 -0.5351144318
O  O22  1  0.92610000  0.28780000  0.04431000  1.0 -0.5351144318
O  O23  1  0.92610000  0.21220000  0.54431000  1.0 -0.5351144318
O  O24  1  0.07390000  0.71220000  0.95569000  1.0 -0.5351144318
O  O25  1  0.93640000  0.68100000  0.47870000  1.0 -0.6571689491
O  O26  1  0.06360000  0.18100000  0.02130000  1.0 -0.6571689491
O  O27  1  0.06360000  0.31900000  0.52130000  1.0 -0.6571689491
O  O28  1  0.93640000  0.81900000  0.97870000  1.0 -0.6571689491
