# DDEC6 charges by PACMAN v1.1 (https://github.com/mtap-research/PACMAN-charge/)
data_AVUPIR_FSR_pacman
_symmetry_space_group_name_H-M   'P 1'
_cell_length_a   11.94640000
_cell_length_b   11.94640000
_cell_length_c   11.94640000
_cell_angle_alpha   113.14000000
_cell_angle_beta   113.14000000
_cell_angle_gamma   113.14000000
_symmetry_Int_Tables_number   1
_chemical_formula_structural   ZrP3C9(NO3)3
_chemical_formula_sum   'Zr2 P6 C18 N6 O18'
_cell_volume   1098.76526286
_cell_formula_units_Z   2
loop_
 _symmetry_equiv_pos_site_id
 _symmetry_equiv_pos_as_xyz
  1  'x, y, z'
loop_
 _atom_site_type_symbol
 _atom_site_label
 _atom_site_symmetry_multiplicity
 _atom_site_fract_x
 _atom_site_fract_y
 _atom_site_fract_z
 _atom_site_occupancy
 _atom_site_charge
Zr  Zr1  1  0.00000000  0.00000000  0.00000000  1.0 2.3970435351
Zr  Zr2  1  0.50000000  0.50000000  0.50000000  1.0 2.3697207659
P  P1  1  0.22580000  0.38290000  0.13470000  1.0 1.3435250809
P  P2  1  0.38290000  0.13470000  0.22580000  1.0 1.3435250809
P  P3  1  0.13470000  0.22580000  0.38290000  1.0 1.3435250809
P  P4  1  0.77420000  0.61710000  0.86530000  1.0 1.3435250809
P  P5  1  0.61710000  0.86530000  0.77420000  1.0 1.3435250809
P  P6  1  0.86530000  0.77420000  0.61710000  1.0 1.3435250809
C  C1  1  0.26790000  0.31350000  0.00180000  1.0 -0.1893467516
C  C2  1  0.31350000  0.00180000  0.26790000  1.0 -0.1893467516
C  C3  1  0.00180000  0.26790000  0.31350000  1.0 -0.1893467516
C  C4  1  0.73210000  0.68650000  0.99820000  1.0 -0.1893467516
C  C5  1  0.68650000  0.99820000  0.73210000  1.0 -0.1893467516
C  C6  1  0.99820000  0.73210000  0.68650000  1.0 -0.1893467516
C  C7  1  0.31670000  0.34240000  0.83080000  1.0 0.2747390657
C  C8  1  0.34240000  0.83080000  0.31670000  1.0 0.2747390657
C  C9  1  0.83080000  0.31670000  0.34240000  1.0 0.2747390657
C  C10  1  0.68330000  0.65760000  0.16920000  1.0 0.2747390657
C  C11  1  0.65760000  0.16920000  0.68330000  1.0 0.2747390657
C  C12  1  0.16920000  0.68330000  0.65760000  1.0 0.2747390657
C  C13  1  0.53020000  0.57310000  0.14410000  1.0 0.0237162802
C  C14  1  0.57310000  0.14410000  0.53020000  1.0 0.0237162802
C  C15  1  0.14410000  0.53020000  0.57310000  1.0 0.0237162802
C  C16  1  0.46980000  0.42690000  0.85590000  1.0 0.0237162802
C  C17  1  0.42690000  0.85590000  0.46980000  1.0 0.0237162802
C  C18  1  0.85590000  0.46980000  0.42690000  1.0 0.0237162802
N  N1  1  0.37920000  0.41810000  0.99920000  1.0 0.1072316507
N  N2  1  0.41810000  0.99920000  0.37920000  1.0 0.1072316507
N  N3  1  0.99920000  0.37920000  0.41810000  1.0 0.1072316507
N  N4  1  0.62080000  0.58190000  0.00080000  1.0 0.1072316507
N  N5  1  0.58190000  0.00080000  0.62080000  1.0 0.1072316507
N  N6  1  0.00080000  0.62080000  0.58190000  1.0 0.1072316507
O  O1  1  0.36510000  0.45530000  0.30340000  1.0 -0.8195561624
O  O2  1  0.45530000  0.30340000  0.36510000  1.0 -0.8195561624
O  O3  1  0.30340000  0.36510000  0.45530000  1.0 -0.8195561624
O  O4  1  0.63490000  0.54470000  0.69660000  1.0 -0.8195561624
O  O5  1  0.54470000  0.69660000  0.63490000  1.0 -0.8195561624
O  O6  1  0.69660000  0.63490000  0.54470000  1.0 -0.8195561624
O  O7  1  0.19510000  0.49900000  0.12850000  1.0 -0.7139913549
O  O8  1  0.49900000  0.12850000  0.19510000  1.0 -0.7139913549
O  O9  1  0.12850000  0.19510000  0.49900000  1.0 -0.7139913549
O  O10  1  0.80490000  0.50100000  0.87150000  1.0 -0.7139913549
O  O11  1  0.50100000  0.87150000  0.80490000  1.0 -0.7139913549
O  O12  1  0.87150000  0.80490000  0.50100000  1.0 -0.7139913549
O  O13  1  0.08680000  0.21320000  0.07050000  1.0 -0.8195561624
O  O14  1  0.21320000  0.07050000  0.08680000  1.0 -0.8195561624
O  O15  1  0.07050000  0.08680000  0.21320000  1.0 -0.8195561624
O  O16  1  0.91320000  0.78680000  0.92950000  1.0 -0.8268903405
O  O17  1  0.78680000  0.92950000  0.91320000  1.0 -0.8195561624
O  O18  1  0.92950000  0.91320000  0.78680000  1.0 -0.8195561624
