# DDEC6 charges by PACMAN v1.1 (https://github.com/mtap-research/PACMAN-charge/)
data_AWAKEQ_ASR_pacman
_symmetry_space_group_name_H-M   'P 1'
_cell_length_a   10.10800000
_cell_length_b   13.66950000
_cell_length_c   28.86260000
_cell_angle_alpha   90.00000000
_cell_angle_beta   99.50200000
_cell_angle_gamma   90.00000000
_symmetry_Int_Tables_number   1
_chemical_formula_structural   CdH29C36N5O4
_chemical_formula_sum   'Cd4 H116 C144 N20 O16'
_cell_volume   3933.26736860
_cell_formula_units_Z   4
loop_
 _symmetry_equiv_pos_site_id
 _symmetry_equiv_pos_as_xyz
  1  'x, y, z'
loop_
 _atom_site_type_symbol
 _atom_site_label
 _atom_site_symmetry_multiplicity
 _atom_site_fract_x
 _atom_site_fract_y
 _atom_site_fract_z
 _atom_site_occupancy
 _atom_site_charge
Cd  Cd1  1  0.55659000  0.08175000  0.81774000  1.0 0.8224548096
Cd  Cd2  1  0.55659000  0.41825000  0.31774000  1.0 0.8224548096
Cd  Cd3  1  0.44341000  0.58175000  0.68226000  1.0 0.8224548096
Cd  Cd4  1  0.44341000  0.91825000  0.18226000  1.0 0.8224548096
H  H1  1  0.56710000  0.28990000  0.48030000  1.0 0.1216317523
H  H2  1  0.56710000  0.21010000  0.98030000  1.0 0.1216317523
H  H3  1  0.26700000  0.19930000  0.38300000  1.0 0.1107467482
H  H4  1  0.26700000  0.30070000  0.88300000  1.0 0.1107467482
H  H5  1  0.19130000  0.09890000  0.43640000  1.0 0.1107467482
H  H6  1  0.19130000  0.40110000  0.93640000  1.0 0.1107467482
H  H7  1  0.49980000  0.18400000  0.53400000  1.0 0.1107467482
H  H8  1  0.49980000  0.31600000  0.03400000  1.0 0.1107467482
H  H9  1  0.12020000  0.96660000  0.55890000  1.0 0.1216317523
H  H10  1  0.12020000  0.53340000  0.05890000  1.0 0.1216317523
H  H11  1  0.31670000  0.94530000  0.44980000  1.0 0.1216317523
H  H12  1  0.31670000  0.55470000  0.94980000  1.0 0.1216317523
H  H13  1  0.20060000  0.80410000  0.42640000  1.0 0.1107467482
H  H14  1  0.20060000  0.69590000  0.92640000  1.0 0.1107467482
H  H15  1  0.01220000  0.82040000  0.53660000  1.0 0.1107467482
H  H16  1  0.01220000  0.67960000  0.03660000  1.0 0.1107467482
H  H17  1  0.04930000  0.74010000  0.46910000  1.0 0.1107467482
H  H18  1  0.04930000  0.75990000  0.96910000  1.0 0.1107467482
H  H19  1  0.29740000  0.20380000  0.58110000  1.0 0.1292552578
H  H20  1  0.29740000  0.29620000  0.08110000  1.0 0.1292552578
H  H21  1  0.43320000  0.92940000  0.57800000  1.0 0.1216317523
H  H22  1  0.43320000  0.57060000  0.07800000  1.0 0.1216317523
H  H23  1  0.37600000  0.21040000  0.66070000  1.0 0.1216317523
H  H24  1  0.37600000  0.28960000  0.16070000  1.0 0.1216317523
H  H25  1  0.50940000  0.93540000  0.65830000  1.0 0.1216317523
H  H26  1  0.50940000  0.56460000  0.15830000  1.0 0.1216317523
H  H27  1  0.29660000  0.76370000  0.85510000  1.0 0.1411036639
H  H28  1  0.29660000  0.73630000  0.35510000  1.0 0.1411036639
H  H29  1  0.05460000  0.98330000  0.80730000  1.0 0.1292552578
H  H30  1  0.05460000  0.51670000  0.30730000  1.0 0.1292552578
H  H31  1  0.23820000  0.07750000  0.80340000  1.0 0.1107467482
H  H32  1  0.23820000  0.42250000  0.30340000  1.0 0.1107467482
H  H33  1  0.47640000  0.86260000  0.85050000  1.0 0.1107467482
H  H34  1  0.47640000  0.63740000  0.35050000  1.0 0.1107467482
H  H35  1  0.88050000  0.10920000  0.84840000  1.0 0.1028507458
H  H36  1  0.88050000  0.39080000  0.34840000  1.0 0.1028507458
H  H37  1  0.61870000  0.29480000  0.78640000  1.0 0.1216317523
H  H38  1  0.61870000  0.20520000  0.28640000  1.0 0.1216317523
H  H39  1  0.04990000  0.21840000  0.84580000  1.0 0.1411036639
H  H40  1  0.04990000  0.28160000  0.34580000  1.0 0.1411036639
H  H41  1  0.78040000  0.40900000  0.78180000  1.0 0.1411036639
H  H42  1  0.78040000  0.09100000  0.28180000  1.0 0.1411036639
H  H43  1  0.08170000  0.37700000  0.77740000  1.0 0.1292552578
H  H44  1  0.08170000  0.12300000  0.27740000  1.0 0.1292552578
H  H45  1  0.12280000  0.38380000  0.83210000  1.0 0.1292552578
H  H46  1  0.12280000  0.11620000  0.33210000  1.0 0.1292552578
H  H47  1  0.98520000  0.49560000  0.87620000  1.0 0.1107467482
H  H48  1  0.98520000  0.00440000  0.37620000  1.0 0.1107467482
H  H49  1  0.20020000  0.53080000  0.78370000  1.0 0.1216317523
H  H50  1  0.20020000  0.96920000  0.28370000  1.0 0.1216317523
H  H51  1  0.86830000  0.66540000  0.85320000  1.0 0.1107467482
H  H52  1  0.86830000  0.83460000  0.35320000  1.0 0.1107467482
H  H53  1  0.07490000  0.70170000  0.76170000  1.0 0.1028507458
H  H54  1  0.07490000  0.79830000  0.26170000  1.0 0.1028507458
H  H55  1  0.96210000  0.81690000  0.80960000  1.0 0.1216317523
H  H56  1  0.96210000  0.68310000  0.30960000  1.0 0.1216317523
H  H57  1  0.99990000  0.81640000  0.86450000  1.0 0.1292552578
H  H58  1  0.99990000  0.68360000  0.36450000  1.0 0.1292552578
H  H59  1  0.43290000  0.78990000  0.01970000  1.0 0.1216317523
H  H60  1  0.43290000  0.71010000  0.51970000  1.0 0.1216317523
H  H61  1  0.73300000  0.69930000  0.11700000  1.0 0.1107467482
H  H62  1  0.73300000  0.80070000  0.61700000  1.0 0.1107467482
H  H63  1  0.80870000  0.59890000  0.06360000  1.0 0.1107467482
H  H64  1  0.80870000  0.90110000  0.56360000  1.0 0.1107467482
H  H65  1  0.50020000  0.68400000  0.96600000  1.0 0.1107467482
H  H66  1  0.50020000  0.81600000  0.46600000  1.0 0.1107467482
H  H67  1  0.87980000  0.46660000  0.94110000  1.0 0.1216317523
H  H68  1  0.87980000  0.03340000  0.44110000  1.0 0.1216317523
H  H69  1  0.68330000  0.44530000  0.05020000  1.0 0.1216317523
H  H70  1  0.68330000  0.05470000  0.55020000  1.0 0.1216317523
H  H71  1  0.79940000  0.30410000  0.07360000  1.0 0.1107467482
H  H72  1  0.79940000  0.19590000  0.57360000  1.0 0.1107467482
H  H73  1  0.98780000  0.32040000  0.96340000  1.0 0.1107467482
H  H74  1  0.98780000  0.17960000  0.46340000  1.0 0.1107467482
H  H75  1  0.95070000  0.24010000  0.03090000  1.0 0.1107467482
H  H76  1  0.95070000  0.25990000  0.53090000  1.0 0.1107467482
H  H77  1  0.70260000  0.70380000  0.91890000  1.0 0.1292552578
H  H78  1  0.70260000  0.79620000  0.41890000  1.0 0.1292552578
H  H79  1  0.56680000  0.42940000  0.92200000  1.0 0.1216317523
H  H80  1  0.56680000  0.07060000  0.42200000  1.0 0.1216317523
H  H81  1  0.62400000  0.71040000  0.83930000  1.0 0.1107467482
H  H82  1  0.62400000  0.78960000  0.33930000  1.0 0.1216317523
H  H83  1  0.49060000  0.43540000  0.84170000  1.0 0.1216317523
H  H84  1  0.49060000  0.06460000  0.34170000  1.0 0.1216317523
H  H85  1  0.70340000  0.26370000  0.64490000  1.0 0.1411036639
H  H86  1  0.70340000  0.23630000  0.14490000  1.0 0.1411036639
H  H87  1  0.94540000  0.48330000  0.69270000  1.0 0.1292552578
H  H88  1  0.94540000  0.01670000  0.19270000  1.0 0.1292552578
H  H89  1  0.76180000  0.57750000  0.69660000  1.0 0.1107467482
H  H90  1  0.76180000  0.92250000  0.19660000  1.0 0.1107467482
H  H91  1  0.52360000  0.36260000  0.64950000  1.0 0.1107467482
H  H92  1  0.52360000  0.13740000  0.14950000  1.0 0.1107467482
H  H93  1  0.11950000  0.60920000  0.65160000  1.0 0.1028507458
H  H94  1  0.11950000  0.89080000  0.15160000  1.0 0.1028507458
H  H95  1  0.38130000  0.79480000  0.71360000  1.0 0.1216317523
H  H96  1  0.38130000  0.70520000  0.21360000  1.0 0.1216317523
H  H97  1  0.95010000  0.71840000  0.65420000  1.0 0.1411036639
H  H98  1  0.95010000  0.78160000  0.15420000  1.0 0.1411036639
H  H99  1  0.21960000  0.90900000  0.71820000  1.0 0.1411036639
H  H100  1  0.21960000  0.59100000  0.21820000  1.0 0.1411036639
H  H101  1  0.91830000  0.87700000  0.72260000  1.0 0.1292552578
H  H102  1  0.91830000  0.62300000  0.22260000  1.0 0.1292552578
H  H103  1  0.87720000  0.88380000  0.66790000  1.0 0.1292552578
H  H104  1  0.87720000  0.61620000  0.16790000  1.0 0.1292552578
H  H105  1  0.01480000  0.99560000  0.62380000  1.0 0.1107467482
H  H106  1  0.01480000  0.50440000  0.12380000  1.0 0.1107467482
H  H107  1  0.79980000  0.03080000  0.71630000  1.0 0.1216317523
H  H108  1  0.79980000  0.46920000  0.21630000  1.0 0.1216317523
H  H109  1  0.13170000  0.16540000  0.64680000  1.0 0.1107467482
H  H110  1  0.13170000  0.33460000  0.14680000  1.0 0.1107467482
H  H111  1  0.92510000  0.20170000  0.73830000  1.0 0.1028507458
H  H112  1  0.92510000  0.29830000  0.23830000  1.0 0.1028507458
H  H113  1  0.03790000  0.31690000  0.69040000  1.0 0.1216317523
H  H114  1  0.03790000  0.18310000  0.19040000  1.0 0.1216317523
H  H115  1  0.00010000  0.31640000  0.63550000  1.0 0.1292552578
H  H116  1  0.00010000  0.18360000  0.13550000  1.0 0.1292552578
C  C1  1  0.47850000  0.31400000  0.38874000  1.0 0.5417049969
C  C2  1  0.47850000  0.18600000  0.88874000  1.0 0.5417049969
C  C3  1  0.42760000  0.25320000  0.42549000  1.0 -0.0288311173
C  C4  1  0.42760000  0.24680000  0.92549000  1.0 -0.0288311173
C  C5  1  0.49360000  0.24940000  0.47107000  1.0 -0.0826781455
C  C6  1  0.49360000  0.25060000  0.97107000  1.0 -0.0826781455
C  C7  1  0.31420000  0.19620000  0.41348000  1.0 -0.1042900463
C  C8  1  0.31420000  0.30380000  0.91348000  1.0 -0.1042900463
C  C9  1  0.26940000  0.13500000  0.44526000  1.0 -0.2070548577
C  C10  1  0.26940000  0.36500000  0.94526000  1.0 -0.2070548577
C  C11  1  0.45240000  0.18630000  0.50357000  1.0 -0.1887446811
C  C12  1  0.45240000  0.31370000  0.00357000  1.0 -0.1887446811
C  C13  1  0.34100000  0.12670000  0.49101000  1.0 0.1921783979
C  C14  1  0.34100000  0.37330000  0.99101000  1.0 0.1921783979
C  C15  1  0.23220000  0.97070000  0.50685000  1.0 0.1815116624
C  C16  1  0.23220000  0.52930000  0.00685000  1.0 0.1815116624
C  C17  1  0.13850000  0.93340000  0.53250000  1.0 -0.1887446811
C  C18  1  0.13850000  0.56660000  0.03250000  1.0 -0.1887446811
C  C19  1  0.25450000  0.92120000  0.46732000  1.0 -0.1830996355
C  C20  1  0.25450000  0.57880000  0.96732000  1.0 -0.1830996355
C  C21  1  0.18520000  0.83590000  0.45349000  1.0 -0.0904753545
C  C22  1  0.18520000  0.66410000  0.95349000  1.0 -0.0904753545
C  C23  1  0.07240000  0.84630000  0.51870000  1.0 -0.0826781455
C  C24  1  0.07240000  0.65370000  0.01870000  1.0 -0.0826781455
C  C25  1  0.09490000  0.79770000  0.47860000  1.0 -0.1183074102
C  C26  1  0.09490000  0.70230000  0.97860000  1.0 -0.1183074102
C  C27  1  0.35410000  0.06460000  0.57196000  1.0 0.1733713443
C  C28  1  0.35410000  0.43540000  0.07196000  1.0 0.1733713443
C  C29  1  0.33910000  0.14950000  0.59657000  1.0 -0.2070548577
C  C30  1  0.33910000  0.35050000  0.09657000  1.0 -0.2070548577
C  C31  1  0.41990000  0.98550000  0.59485000  1.0 -0.1887446811
C  C32  1  0.41990000  0.51450000  0.09485000  1.0 -0.1887446811
C  C33  1  0.38640000  0.15320000  0.64429000  1.0 -0.1183074102
C  C34  1  0.38640000  0.34680000  0.14429000  1.0 -0.1183074102
C  C35  1  0.46640000  0.98940000  0.64292000  1.0 -0.0904753545
C  C36  1  0.46640000  0.51060000  0.14292000  1.0 -0.0904753545
C  C37  1  0.44880000  0.07370000  0.66802000  1.0 -0.0288311173
C  C38  1  0.44880000  0.42630000  0.16802000  1.0 -0.0288311173
C  C39  1  0.49060000  0.07630000  0.72064000  1.0 0.5343880052
C  C40  1  0.49060000  0.42370000  0.22064000  1.0 0.5343880052
C  C41  1  0.15340000  0.86220000  0.83236000  1.0 0.1465522195
C  C42  1  0.15340000  0.63780000  0.33236000  1.0 0.1465522195
C  C43  1  0.28230000  0.82770000  0.84453000  1.0 -0.1973254164
C  C44  1  0.28230000  0.67230000  0.34453000  1.0 -0.1973254164
C  C45  1  0.13980000  0.95700000  0.81636000  1.0 -0.222970028
C  C46  1  0.13980000  0.54300000  0.31636000  1.0 -0.222970028
C  C47  1  0.25070000  0.01320000  0.81364000  1.0 0.0853486552
C  C48  1  0.25070000  0.48680000  0.31364000  1.0 0.0853486552
C  C49  1  0.39030000  0.88720000  0.84124000  1.0 0.0853486552
C  C50  1  0.39030000  0.61280000  0.34124000  1.0 0.0853486552
C  C51  1  0.86000000  0.17000000  0.83456000  1.0 0.0675001866
C  C52  1  0.86000000  0.33000000  0.33456000  1.0 0.0675001866
C  C53  1  0.70740000  0.27900000  0.79825000  1.0 0.0853486552
C  C54  1  0.70740000  0.22100000  0.29825000  1.0 0.0853486552
C  C55  1  0.96240000  0.23540000  0.83292000  1.0 -0.222970028
C  C56  1  0.96240000  0.26460000  0.33292000  1.0 -0.222970028
C  C57  1  0.80380000  0.34820000  0.79518000  1.0 -0.1973254164
C  C58  1  0.80380000  0.15180000  0.29518000  1.0 -0.1973254164
C  C59  1  0.93650000  0.32620000  0.81232000  1.0 0.1411036639
C  C60  1  0.93650000  0.17380000  0.31232000  1.0 0.1411036639
C  C61  1  0.04950000  0.39390000  0.80628000  1.0 -0.1887446811
C  C62  1  0.04950000  0.10610000  0.30628000  1.0 -0.1887446811
C  C63  1  0.98280000  0.53400000  0.84947000  1.0 -0.1292963972
C  C64  1  0.98280000  0.96600000  0.34947000  1.0 -0.1292963972
C  C65  1  0.12000000  0.55580000  0.79049000  1.0 -0.1183074102
C  C66  1  0.12000000  0.94420000  0.29049000  1.0 -0.1292963972
C  C67  1  0.94880000  0.63920000  0.84731000  1.0 -0.0904753545
C  C68  1  0.94880000  0.86080000  0.34731000  1.0 -0.0826781455
C  C69  1  0.08240000  0.66280000  0.78842000  1.0 -0.1715798346
C  C70  1  0.08240000  0.83720000  0.28842000  1.0 -0.1715798346
C  C71  1  0.03240000  0.80070000  0.83559000  1.0 -0.1887446811
C  C72  1  0.03240000  0.69930000  0.33559000  1.0 -0.1887446811
C  C73  1  0.52150000  0.81400000  0.11126000  1.0 0.5417049969
C  C74  1  0.52150000  0.68600000  0.61126000  1.0 0.5417049969
C  C75  1  0.57240000  0.75320000  0.07451000  1.0 -0.0288311173
C  C76  1  0.57240000  0.74680000  0.57451000  1.0 -0.0288311173
C  C77  1  0.50640000  0.74940000  0.02893000  1.0 -0.0826781455
C  C78  1  0.50640000  0.75060000  0.52893000  1.0 -0.0826781455
C  C79  1  0.68580000  0.69620000  0.08652000  1.0 -0.1042900463
C  C80  1  0.68580000  0.80380000  0.58652000  1.0 -0.1042900463
C  C81  1  0.73060000  0.63500000  0.05474000  1.0 -0.2070548577
C  C82  1  0.73060000  0.86500000  0.55474000  1.0 -0.2070548577
C  C83  1  0.54760000  0.68630000  0.99643000  1.0 -0.1887446811
C  C84  1  0.54760000  0.81370000  0.49643000  1.0 -0.1887446811
C  C85  1  0.65900000  0.62670000  0.00899000  1.0 0.1921783979
C  C86  1  0.65900000  0.87330000  0.50899000  1.0 0.1921783979
C  C87  1  0.76780000  0.47070000  0.99315000  1.0 0.1815116624
C  C88  1  0.76780000  0.02930000  0.49315000  1.0 0.1815116624
C  C89  1  0.86150000  0.43340000  0.96750000  1.0 -0.1887446811
C  C90  1  0.86150000  0.06660000  0.46750000  1.0 -0.1887446811
C  C91  1  0.74550000  0.42120000  0.03268000  1.0 -0.1830996355
C  C92  1  0.74550000  0.07880000  0.53268000  1.0 -0.1830996355
C  C93  1  0.81480000  0.33590000  0.04651000  1.0 -0.0904753545
C  C94  1  0.81480000  0.16410000  0.54651000  1.0 -0.0904753545
C  C95  1  0.92760000  0.34630000  0.98130000  1.0 -0.0826781455
C  C96  1  0.92760000  0.15370000  0.48130000  1.0 -0.0826781455
C  C97  1  0.90510000  0.29770000  0.02140000  1.0 -0.1183074102
C  C98  1  0.90510000  0.20230000  0.52140000  1.0 -0.1183074102
C  C99  1  0.64590000  0.56460000  0.92804000  1.0 0.1733713443
C  C100  1  0.64590000  0.93540000  0.42804000  1.0 0.1733713443
C  C101  1  0.66090000  0.64950000  0.90343000  1.0 -0.2070548577
C  C102  1  0.66090000  0.85050000  0.40343000  1.0 -0.2070548577
C  C103  1  0.58010000  0.48550000  0.90515000  1.0 -0.1887446811
C  C104  1  0.58010000  0.01450000  0.40515000  1.0 -0.1887446811
C  C105  1  0.61360000  0.65320000  0.85571000  1.0 -0.1183074102
C  C106  1  0.61360000  0.84680000  0.35571000  1.0 -0.1183074102
C  C107  1  0.53360000  0.48940000  0.85708000  1.0 -0.0904753545
C  C108  1  0.53360000  0.01060000  0.35708000  1.0 -0.0904753545
C  C109  1  0.55120000  0.57370000  0.83198000  1.0 -0.0288311173
C  C110  1  0.55120000  0.92630000  0.33198000  1.0 -0.0288311173
C  C111  1  0.50940000  0.57630000  0.77936000  1.0 0.5343880052
C  C112  1  0.50940000  0.92370000  0.27936000  1.0 0.5343880052
C  C113  1  0.84660000  0.36220000  0.66764000  1.0 0.1465522195
C  C114  1  0.84660000  0.13780000  0.16764000  1.0 0.1465522195
C  C115  1  0.71770000  0.32770000  0.65547000  1.0 -0.1973254164
C  C116  1  0.71770000  0.17230000  0.15547000  1.0 -0.1973254164
C  C117  1  0.86020000  0.45700000  0.68364000  1.0 -0.222970028
C  C118  1  0.86020000  0.04300000  0.18364000  1.0 -0.222970028
C  C119  1  0.74930000  0.51320000  0.68636000  1.0 0.0853486552
C  C120  1  0.74930000  0.98680000  0.18636000  1.0 0.0853486552
C  C121  1  0.60970000  0.38720000  0.65876000  1.0 0.0853486552
C  C122  1  0.60970000  0.11280000  0.15876000  1.0 0.0853486552
C  C123  1  0.14000000  0.67000000  0.66544000  1.0 0.0675001866
C  C124  1  0.14000000  0.83000000  0.16544000  1.0 0.0675001866
C  C125  1  0.29260000  0.77900000  0.70175000  1.0 0.0853486552
C  C126  1  0.29260000  0.72100000  0.20175000  1.0 0.0853486552
C  C127  1  0.03760000  0.73540000  0.66708000  1.0 -0.222970028
C  C128  1  0.03760000  0.76460000  0.16708000  1.0 -0.222970028
C  C129  1  0.19620000  0.84820000  0.70482000  1.0 -0.1973254164
C  C130  1  0.19620000  0.65180000  0.20482000  1.0 -0.1973254164
C  C131  1  0.06350000  0.82620000  0.68768000  1.0 0.1411036639
C  C132  1  0.06350000  0.67380000  0.18768000  1.0 0.1411036639
C  C133  1  0.95050000  0.89390000  0.69372000  1.0 -0.1887446811
C  C134  1  0.95050000  0.60610000  0.19372000  1.0 -0.1887446811
C  C135  1  0.01720000  0.03400000  0.65053000  1.0 -0.1292963972
C  C136  1  0.01720000  0.46600000  0.15053000  1.0 -0.1292963972
C  C137  1  0.88000000  0.05580000  0.70951000  1.0 -0.1183074102
C  C138  1  0.88000000  0.44420000  0.20951000  1.0 -0.1183074102
C  C139  1  0.05120000  0.13920000  0.65269000  1.0 -0.0904753545
C  C140  1  0.05120000  0.36080000  0.15269000  1.0 -0.0904753545
C  C141  1  0.91760000  0.16280000  0.71158000  1.0 -0.1715798346
C  C142  1  0.91760000  0.33720000  0.21158000  1.0 -0.1715798346
C  C143  1  0.96760000  0.30070000  0.66441000  1.0 -0.1887446811
C  C144  1  0.96760000  0.19930000  0.16441000  1.0 -0.1887446811
N  N1  1  0.30290000  0.05800000  0.52292000  1.0 -0.1830996355
N  N2  1  0.30290000  0.44200000  0.02292000  1.0 -0.1830996355
N  N3  1  0.73290000  0.19020000  0.81717000  1.0 -0.2321444234
N  N4  1  0.73290000  0.30980000  0.31717000  1.0 -0.2321444234
N  N5  1  0.37560000  0.97940000  0.82515000  1.0 -0.2354971138
N  N6  1  0.37560000  0.52060000  0.32515000  1.0 -0.2354971138
N  N7  1  0.01220000  0.49700000  0.80464000  1.0 -0.0018910671
N  N8  1  0.01220000  0.00300000  0.30464000  1.0 -0.0018910671
N  N9  1  0.05970000  0.69620000  0.83461000  1.0 -0.0065032769
N  N10  1  0.05970000  0.80380000  0.33461000  1.0 -0.0065032769
N  N11  1  0.69710000  0.55800000  0.97708000  1.0 -0.1830996355
N  N12  1  0.69710000  0.94200000  0.47708000  1.0 -0.1830996355
N  N13  1  0.26710000  0.69020000  0.68283000  1.0 -0.2321444234
N  N14  1  0.26710000  0.80980000  0.18283000  1.0 -0.2321444234
N  N15  1  0.62440000  0.47940000  0.67485000  1.0 -0.2354971138
N  N16  1  0.62440000  0.02060000  0.17485000  1.0 -0.2354971138
N  N17  1  0.98780000  0.99700000  0.69536000  1.0 -0.0018910671
N  N18  1  0.98780000  0.50300000  0.19536000  1.0 -0.0018910671
N  N19  1  0.94030000  0.19620000  0.66539000  1.0 -0.0065032769
N  N20  1  0.94030000  0.30380000  0.16539000  1.0 -0.0018910671
O  O1  1  0.43060000  0.29630000  0.34673000  1.0 -0.5539126202
O  O2  1  0.43060000  0.20370000  0.84673000  1.0 -0.5539126202
O  O3  1  0.56390000  0.37880000  0.40083000  1.0 -0.5539126202
O  O4  1  0.56390000  0.12120000  0.90083000  1.0 -0.5539126202
O  O5  1  0.45500000  0.14770000  0.74298000  1.0 -0.5539126202
O  O6  1  0.45500000  0.35230000  0.24298000  1.0 -0.5539126202
O  O7  1  0.55750000  0.00760000  0.74112000  1.0 -0.5749570136
O  O8  1  0.55750000  0.49240000  0.24112000  1.0 -0.5749570136
O  O9  1  0.56940000  0.79630000  0.15327000  1.0 -0.5539126202
O  O10  1  0.56940000  0.70370000  0.65327000  1.0 -0.5539126202
O  O11  1  0.43610000  0.87880000  0.09917000  1.0 -0.5539126202
O  O12  1  0.43610000  0.62120000  0.59917000  1.0 -0.5539126202
O  O13  1  0.54500000  0.64770000  0.75702000  1.0 -0.5539126202
O  O14  1  0.54500000  0.85230000  0.25702000  1.0 -0.5539126202
O  O15  1  0.44250000  0.50760000  0.75888000  1.0 -0.5749570136
O  O16  1  0.44250000  0.99240000  0.25888000  1.0 -0.5749570136
