# DDEC6 charges by PACMAN v1.1 (https://github.com/mtap-research/PACMAN-charge/)
data_AWEJES_FSR_pacman
_symmetry_space_group_name_H-M   'P 1'
_cell_length_a   18.19990000
_cell_length_b   21.20900000
_cell_length_c   22.82500000
_cell_angle_alpha   90.00000000
_cell_angle_beta   90.00000000
_cell_angle_gamma   90.00000000
_symmetry_Int_Tables_number   1
_chemical_formula_structural   Zn7H49C63(NO14)2
_chemical_formula_sum   'Zn28 H196 C252 N8 O112'
_cell_volume   8810.48832546
_cell_formula_units_Z   4
loop_
 _symmetry_equiv_pos_site_id
 _symmetry_equiv_pos_as_xyz
  1  'x, y, z'
loop_
 _atom_site_type_symbol
 _atom_site_label
 _atom_site_symmetry_multiplicity
 _atom_site_fract_x
 _atom_site_fract_y
 _atom_site_fract_z
 _atom_site_occupancy
 _atom_site_charge
Zn  Zn1  1  0.50000000  0.89925000  0.54996000  1.0 0.8978751177
Zn  Zn2  1  0.50000000  0.10075000  0.45004000  1.0 0.8978751177
Zn  Zn3  1  0.00000000  0.39925000  0.95004000  1.0 0.8978751177
Zn  Zn4  1  0.00000000  0.60075000  0.04996000  1.0 0.8978751177
Zn  Zn5  1  0.58911000  0.88305000  0.66359000  1.0 0.9205955142
Zn  Zn6  1  0.58911000  0.11695000  0.33641000  1.0 0.9205955142
Zn  Zn7  1  0.91089000  0.38305000  0.83641000  1.0 0.9205955142
Zn  Zn8  1  0.91089000  0.61695000  0.16359000  1.0 0.9205955142
Zn  Zn9  1  0.41089000  0.11695000  0.33641000  1.0 0.9205955142
Zn  Zn10  1  0.41089000  0.88305000  0.66359000  1.0 0.9205955142
Zn  Zn11  1  0.08911000  0.61695000  0.16359000  1.0 0.9205955142
Zn  Zn12  1  0.08911000  0.38305000  0.83641000  1.0 0.9205955142
Zn  Zn13  1  0.50000000  0.00723000  0.66713000  1.0 0.8267771477
Zn  Zn14  1  0.50000000  0.99277000  0.33287000  1.0 0.8267771477
Zn  Zn15  1  0.00000000  0.50723000  0.83287000  1.0 0.8267771477
Zn  Zn16  1  0.00000000  0.49277000  0.16713000  1.0 0.8267771477
Zn  Zn17  1  0.50000000  0.23560000  0.69048000  1.0 0.8066343391
Zn  Zn18  1  0.50000000  0.76440000  0.30952000  1.0 0.8066343391
Zn  Zn19  1  0.00000000  0.73560000  0.80952000  1.0 0.8066343391
Zn  Zn20  1  0.00000000  0.26440000  0.19048000  1.0 0.8066343391
Zn  Zn21  1  0.91957000  0.19509000  0.31198000  1.0 0.860779124
Zn  Zn22  1  0.91957000  0.80491000  0.68802000  1.0 0.860779124
Zn  Zn23  1  0.58043000  0.69509000  0.18802000  1.0 0.860779124
Zn  Zn24  1  0.58043000  0.30491000  0.81198000  1.0 0.860779124
Zn  Zn25  1  0.08043000  0.80491000  0.68802000  1.0 0.860779124
Zn  Zn26  1  0.08043000  0.19509000  0.31198000  1.0 0.860779124
Zn  Zn27  1  0.41957000  0.30491000  0.81198000  1.0 0.860779124
Zn  Zn28  1  0.41957000  0.69509000  0.18802000  1.0 0.860779124
H  H1  1  0.78950000  0.86390000  0.58150000  1.0 0.1185806472
H  H2  1  0.78950000  0.13610000  0.41850000  1.0 0.1185806472
H  H3  1  0.71050000  0.36390000  0.91850000  1.0 0.1185806472
H  H4  1  0.71050000  0.63610000  0.08150000  1.0 0.1185806472
H  H5  1  0.21050000  0.13610000  0.41850000  1.0 0.1185806472
H  H6  1  0.21050000  0.86390000  0.58150000  1.0 0.1185806472
H  H7  1  0.28950000  0.63610000  0.08150000  1.0 0.1185806472
H  H8  1  0.28950000  0.36390000  0.91850000  1.0 0.1185806472
H  H9  1  0.90040000  0.88400000  0.53720000  1.0 0.1111420948
H  H10  1  0.90040000  0.11600000  0.46280000  1.0 0.1111420948
H  H11  1  0.59960000  0.38400000  0.96280000  1.0 0.1111420948
H  H12  1  0.59960000  0.61600000  0.03720000  1.0 0.1111420948
H  H13  1  0.09960000  0.11600000  0.46280000  1.0 0.1111420948
H  H14  1  0.09960000  0.88400000  0.53720000  1.0 0.1111420948
H  H15  1  0.40040000  0.61600000  0.03720000  1.0 0.1111420948
H  H16  1  0.40040000  0.38400000  0.96280000  1.0 0.1111420948
H  H17  1  0.79510000  0.95700000  0.39590000  1.0 0.1111420948
H  H18  1  0.79510000  0.04300000  0.60410000  1.0 0.1013876071
H  H19  1  0.70490000  0.45700000  0.10410000  1.0 0.1013876071
H  H20  1  0.70490000  0.54300000  0.89590000  1.0 0.1111420948
H  H21  1  0.20490000  0.04300000  0.60410000  1.0 0.1013876071
H  H22  1  0.20490000  0.95700000  0.39590000  1.0 0.1111420948
H  H23  1  0.29510000  0.54300000  0.89590000  1.0 0.1111420948
H  H24  1  0.29510000  0.45700000  0.10410000  1.0 0.1111420948
H  H25  1  0.68550000  0.93730000  0.44080000  1.0 0.1185806472
H  H26  1  0.68550000  0.06270000  0.55920000  1.0 0.1185806472
H  H27  1  0.81450000  0.43730000  0.05920000  1.0 0.1185806472
H  H28  1  0.81450000  0.56270000  0.94080000  1.0 0.1185806472
H  H29  1  0.31450000  0.06270000  0.55920000  1.0 0.1185806472
H  H30  1  0.31450000  0.93730000  0.44080000  1.0 0.1185806472
H  H31  1  0.18550000  0.56270000  0.94080000  1.0 0.1185806472
H  H32  1  0.18550000  0.43730000  0.05920000  1.0 0.1185806472
H  H33  1  0.00000000  0.88690000  0.48370000  1.0 0.1013876071
H  H34  1  0.00000000  0.11310000  0.51630000  1.0 0.1013876071
H  H35  1  0.50000000  0.38690000  0.01630000  1.0 0.1013876071
H  H36  1  0.50000000  0.61310000  0.98370000  1.0 0.1013876071
H  H37  1  0.88930000  0.01180000  0.38370000  1.0 0.1111420948
H  H38  1  0.88930000  0.98820000  0.61630000  1.0 0.1111420948
H  H39  1  0.61070000  0.51180000  0.11630000  1.0 0.1111420948
H  H40  1  0.61070000  0.48820000  0.88370000  1.0 0.1111420948
H  H41  1  0.11070000  0.98820000  0.61630000  1.0 0.1111420948
H  H42  1  0.11070000  0.01180000  0.38370000  1.0 0.1111420948
H  H43  1  0.38930000  0.48820000  0.88370000  1.0 0.1111420948
H  H44  1  0.38930000  0.51180000  0.11630000  1.0 0.1111420948
H  H45  1  0.19420000  0.60910000  0.80550000  1.0 0.1111420948
H  H46  1  0.19420000  0.39090000  0.19450000  1.0 0.1111420948
H  H47  1  0.30580000  0.10910000  0.69450000  1.0 0.1111420948
H  H48  1  0.30580000  0.89090000  0.30550000  1.0 0.1111420948
H  H49  1  0.80580000  0.39090000  0.19450000  1.0 0.1111420948
H  H50  1  0.80580000  0.60910000  0.80550000  1.0 0.1111420948
H  H51  1  0.69420000  0.89090000  0.30550000  1.0 0.1111420948
H  H52  1  0.69420000  0.10910000  0.69450000  1.0 0.1111420948
H  H53  1  0.30440000  0.66190000  0.78540000  1.0 0.1013876071
H  H54  1  0.30440000  0.33810000  0.21460000  1.0 0.1013876071
H  H55  1  0.19560000  0.16190000  0.71460000  1.0 0.1013876071
H  H56  1  0.19560000  0.83810000  0.28540000  1.0 0.1013876071
H  H57  1  0.69560000  0.33810000  0.21460000  1.0 0.1013876071
H  H58  1  0.69560000  0.66190000  0.78540000  1.0 0.1013876071
H  H59  1  0.80440000  0.83810000  0.28540000  1.0 0.1013876071
H  H60  1  0.80440000  0.16190000  0.71460000  1.0 0.1013876071
H  H61  1  0.39720000  0.49480000  0.74060000  1.0 0.1111420948
H  H62  1  0.39720000  0.50520000  0.25940000  1.0 0.1111420948
H  H63  1  0.10280000  0.99480000  0.75940000  1.0 0.1111420948
H  H64  1  0.10280000  0.00520000  0.24060000  1.0 0.1111420948
H  H65  1  0.60280000  0.50520000  0.25940000  1.0 0.1111420948
H  H66  1  0.60280000  0.49480000  0.74060000  1.0 0.1111420948
H  H67  1  0.89720000  0.00520000  0.24060000  1.0 0.1111420948
H  H68  1  0.89720000  0.99480000  0.75940000  1.0 0.1111420948
H  H69  1  0.28180000  0.44780000  0.75540000  1.0 0.1277223701
H  H70  1  0.28180000  0.55220000  0.24460000  1.0 0.1277223701
H  H71  1  0.21820000  0.94780000  0.74460000  1.0 0.1277223701
H  H72  1  0.21820000  0.05220000  0.25540000  1.0 0.1277223701
H  H73  1  0.71820000  0.55220000  0.24460000  1.0 0.1277223701
H  H74  1  0.71820000  0.44780000  0.75540000  1.0 0.1277223701
H  H75  1  0.78180000  0.05220000  0.25540000  1.0 0.1277223701
H  H76  1  0.78180000  0.94780000  0.74460000  1.0 0.1277223701
H  H77  1  0.50000000  0.54420000  0.77110000  1.0 0.1013876071
H  H78  1  0.50000000  0.45580000  0.22890000  1.0 0.1013876071
H  H79  1  0.00000000  0.04420000  0.72890000  1.0 0.1013876071
H  H80  1  0.00000000  0.95580000  0.27110000  1.0 0.1013876071
H  H81  1  0.38810000  0.70310000  0.73160000  1.0 0.1111420948
H  H82  1  0.38810000  0.29690000  0.26840000  1.0 0.1111420948
H  H83  1  0.11190000  0.20310000  0.76840000  1.0 0.1111420948
H  H84  1  0.11190000  0.79690000  0.23160000  1.0 0.1111420948
H  H85  1  0.61190000  0.29690000  0.26840000  1.0 0.1111420948
H  H86  1  0.61190000  0.70310000  0.73160000  1.0 0.1111420948
H  H87  1  0.88810000  0.79690000  0.23160000  1.0 0.1111420948
H  H88  1  0.88810000  0.20310000  0.76840000  1.0 0.1111420948
H  H89  1  0.21250000  0.33210000  0.72110000  1.0 0.1277223701
H  H90  1  0.21250000  0.66790000  0.27890000  1.0 0.1277223701
H  H91  1  0.28750000  0.83210000  0.77890000  1.0 0.1277223701
H  H92  1  0.28750000  0.16790000  0.22110000  1.0 0.1277223701
H  H93  1  0.78750000  0.66790000  0.27890000  1.0 0.1277223701
H  H94  1  0.78750000  0.33210000  0.72110000  1.0 0.1277223701
H  H95  1  0.71250000  0.16790000  0.22110000  1.0 0.1277223701
H  H96  1  0.71250000  0.83210000  0.77890000  1.0 0.1277223701
H  H97  1  0.10010000  0.31930000  0.67470000  1.0 0.1111420948
H  H98  1  0.10010000  0.68070000  0.32530000  1.0 0.1111420948
H  H99  1  0.39990000  0.81930000  0.82530000  1.0 0.1111420948
H  H100  1  0.39990000  0.18070000  0.17470000  1.0 0.1111420948
H  H101  1  0.89990000  0.68070000  0.32530000  1.0 0.1111420948
H  H102  1  0.89990000  0.31930000  0.67470000  1.0 0.1111420948
H  H103  1  0.60010000  0.18070000  0.17470000  1.0 0.1111420948
H  H104  1  0.60010000  0.81930000  0.82530000  1.0 0.1111420948
H  H105  1  0.19650000  0.20690000  0.55470000  1.0 0.1013876071
H  H106  1  0.19650000  0.79310000  0.44530000  1.0 0.1013876071
H  H107  1  0.30350000  0.70690000  0.94530000  1.0 0.1013876071
H  H108  1  0.30350000  0.29310000  0.05470000  1.0 0.1013876071
H  H109  1  0.80350000  0.79310000  0.44530000  1.0 0.1013876071
H  H110  1  0.80350000  0.20690000  0.55470000  1.0 0.1013876071
H  H111  1  0.69650000  0.29310000  0.05470000  1.0 0.1013876071
H  H112  1  0.69650000  0.70690000  0.94530000  1.0 0.1013876071
H  H113  1  0.30800000  0.21900000  0.60290000  1.0 0.1111420948
H  H114  1  0.30800000  0.78100000  0.39710000  1.0 0.1111420948
H  H115  1  0.19200000  0.71900000  0.89710000  1.0 0.1111420948
H  H116  1  0.19200000  0.28100000  0.10290000  1.0 0.1111420948
H  H117  1  0.69200000  0.78100000  0.39710000  1.0 0.1111420948
H  H118  1  0.69200000  0.21900000  0.60290000  1.0 0.1111420948
H  H119  1  0.80800000  0.28100000  0.10290000  1.0 0.1111420948
H  H120  1  0.80800000  0.71900000  0.89710000  1.0 0.1111420948
H  H121  1  0.00000000  0.25390000  0.64910000  1.0 0.1111420948
H  H122  1  0.00000000  0.74610000  0.35090000  1.0 0.1111420948
H  H123  1  0.50000000  0.75390000  0.85090000  1.0 0.1111420948
H  H124  1  0.50000000  0.24610000  0.14910000  1.0 0.1111420948
H  H125  1  0.10680000  0.24930000  0.49320000  1.0 0.1185806472
H  H126  1  0.10680000  0.75070000  0.50680000  1.0 0.1185806472
H  H127  1  0.39320000  0.74930000  0.00680000  1.0 0.1185806472
H  H128  1  0.39320000  0.25070000  0.99320000  1.0 0.1111420948
H  H129  1  0.89320000  0.75070000  0.50680000  1.0 0.1185806472
H  H130  1  0.89320000  0.24930000  0.49320000  1.0 0.1111420948
H  H131  1  0.60680000  0.25070000  0.99320000  1.0 0.1111420948
H  H132  1  0.60680000  0.74930000  0.00680000  1.0 0.1185806472
H  H133  1  0.00000000  0.26430000  0.29000000  1.0 0.3009668925
H  H134  1  0.00000000  0.73570000  0.71000000  1.0 0.3009668925
H  H135  1  0.50000000  0.76430000  0.21000000  1.0 0.3009668925
H  H136  1  0.50000000  0.23570000  0.79000000  1.0 0.2925045902
H  H137  1  0.53480000  0.79920000  0.48830000  1.0 0.246047976
H  H138  1  0.53480000  0.20080000  0.51170000  1.0 0.246047976
H  H139  1  0.96520000  0.29920000  0.01170000  1.0 0.246047976
H  H140  1  0.96520000  0.70080000  0.98830000  1.0 0.246047976
H  H141  1  0.46520000  0.20080000  0.51170000  1.0 0.246047976
H  H142  1  0.46520000  0.79920000  0.48830000  1.0 0.246047976
H  H143  1  0.03480000  0.70080000  0.98830000  1.0 0.246047976
H  H144  1  0.03480000  0.29920000  0.01170000  1.0 0.246047976
H  H145  1  0.46750000  0.34860000  0.66680000  1.0 0.1500102529
H  H146  1  0.46750000  0.65140000  0.33320000  1.0 0.1500102529
H  H147  1  0.03250000  0.84860000  0.83320000  1.0 0.1500102529
H  H148  1  0.03250000  0.15140000  0.16680000  1.0 0.1500102529
H  H149  1  0.53250000  0.65140000  0.33320000  1.0 0.1500102529
H  H150  1  0.53250000  0.34860000  0.66680000  1.0 0.1500102529
H  H151  1  0.96750000  0.15140000  0.16680000  1.0 0.1500102529
H  H152  1  0.96750000  0.84860000  0.83320000  1.0 0.1500102529
H  H153  1  0.54400000  0.12830000  0.73590000  1.0 0.1500102529
H  H154  1  0.54400000  0.87170000  0.26410000  1.0 0.1500102529
H  H155  1  0.95600000  0.62830000  0.76410000  1.0 0.1500102529
H  H156  1  0.95600000  0.37170000  0.23590000  1.0 0.1500102529
H  H157  1  0.45600000  0.87170000  0.26410000  1.0 0.1500102529
H  H158  1  0.45600000  0.12830000  0.73590000  1.0 0.1500102529
H  H159  1  0.04400000  0.37170000  0.23590000  1.0 0.1500102529
H  H160  1  0.04400000  0.62830000  0.76410000  1.0 0.1500102529
H  H161  1  0.81840000  0.26070000  0.32820000  1.0 0.3009668925
H  H162  1  0.81840000  0.73930000  0.67180000  1.0 0.3009668925
H  H163  1  0.68160000  0.76070000  0.17180000  1.0 0.3009668925
H  H164  1  0.68160000  0.23930000  0.82820000  1.0 0.3009668925
H  H165  1  0.18160000  0.73930000  0.67180000  1.0 0.3009668925
H  H166  1  0.18160000  0.26070000  0.32820000  1.0 0.3009668925
H  H167  1  0.31840000  0.23930000  0.82820000  1.0 0.3009668925
H  H168  1  0.31840000  0.76070000  0.17180000  1.0 0.3009668925
H  H169  1  0.85660000  0.25890000  0.37870000  1.0 0.3261363158
H  H170  1  0.85660000  0.74110000  0.62130000  1.0 0.3261363158
H  H171  1  0.64340000  0.75890000  0.12130000  1.0 0.3261363158
H  H172  1  0.64340000  0.24110000  0.87870000  1.0 0.3261363158
H  H173  1  0.14340000  0.74110000  0.62130000  1.0 0.3261363158
H  H174  1  0.14340000  0.25890000  0.37870000  1.0 0.3261363158
H  H175  1  0.35660000  0.24110000  0.87870000  1.0 0.3261363158
H  H176  1  0.35660000  0.75890000  0.12130000  1.0 0.3261363158
H  H177  1  0.49340000  0.32280000  0.61490000  1.0 0.3229230741
H  H178  1  0.49340000  0.67720000  0.38510000  1.0 0.3229230741
H  H179  1  0.00660000  0.82280000  0.88510000  1.0 0.3229230741
H  H180  1  0.00660000  0.17720000  0.11490000  1.0 0.3229230741
H  H181  1  0.50660000  0.67720000  0.38510000  1.0 0.3229230741
H  H182  1  0.50660000  0.32280000  0.61490000  1.0 0.3229230741
H  H183  1  0.99340000  0.17720000  0.11490000  1.0 0.3229230741
H  H184  1  0.99340000  0.82280000  0.88510000  1.0 0.3229230741
H  H185  1  0.52250000  0.11490000  0.70890000  1.0 0.1013876071
H  H186  1  0.52250000  0.88510000  0.29110000  1.0 0.1013876071
H  H187  1  0.97750000  0.61490000  0.79110000  1.0 0.1013876071
H  H188  1  0.97750000  0.38510000  0.20890000  1.0 0.1013876071
H  H189  1  0.47750000  0.88510000  0.29110000  1.0 0.1013876071
H  H190  1  0.47750000  0.11490000  0.70890000  1.0 0.1013876071
H  H191  1  0.02250000  0.38510000  0.20890000  1.0 0.1013876071
H  H192  1  0.02250000  0.61490000  0.79110000  1.0 0.1013876071
H  H193  1  0.50000000  0.76230000  0.20640000  1.0 0.2925045902
H  H194  1  0.50000000  0.23770000  0.79360000  1.0 0.2925045902
H  H195  1  0.00000000  0.26230000  0.29360000  1.0 0.2925045902
H  H196  1  0.00000000  0.73770000  0.70640000  1.0 0.2925045902
C  C1  1  0.65230000  0.89190000  0.54550000  1.0 0.5707487935
C  C2  1  0.65230000  0.10810000  0.45450000  1.0 0.5707487935
C  C3  1  0.84770000  0.39190000  0.95450000  1.0 0.5707487935
C  C4  1  0.84770000  0.60810000  0.04550000  1.0 0.5707487935
C  C5  1  0.34770000  0.10810000  0.45450000  1.0 0.5707487935
C  C6  1  0.34770000  0.89190000  0.54550000  1.0 0.5707487935
C  C7  1  0.15230000  0.60810000  0.04550000  1.0 0.5707487935
C  C8  1  0.15230000  0.39190000  0.95450000  1.0 0.5707487935
C  C9  1  0.72490000  0.90160000  0.51610000  1.0 -0.0375484586
C  C10  1  0.72490000  0.09840000  0.48390000  1.0 -0.0375484586
C  C11  1  0.77510000  0.40160000  0.98390000  1.0 -0.0375484586
C  C12  1  0.77510000  0.59840000  0.01610000  1.0 -0.0375484586
C  C13  1  0.27510000  0.09840000  0.48390000  1.0 -0.0375484586
C  C14  1  0.27510000  0.90160000  0.51610000  1.0 -0.0375484586
C  C15  1  0.22490000  0.59840000  0.01610000  1.0 -0.0375484586
C  C16  1  0.22490000  0.40160000  0.98390000  1.0 -0.0375484586
C  C17  1  0.79100000  0.88350000  0.54510000  1.0 -0.1111768092
C  C18  1  0.79100000  0.11650000  0.45490000  1.0 -0.1111768092
C  C19  1  0.70900000  0.38350000  0.95490000  1.0 -0.1111768092
C  C20  1  0.70900000  0.61650000  0.04510000  1.0 -0.1111768092
C  C21  1  0.20900000  0.11650000  0.45490000  1.0 -0.1111768092
C  C22  1  0.20900000  0.88350000  0.54510000  1.0 -0.1111768092
C  C23  1  0.29100000  0.61650000  0.04510000  1.0 -0.1111768092
C  C24  1  0.29100000  0.38350000  0.95490000  1.0 -0.1111768092
C  C25  1  0.85760000  0.89580000  0.51786000  1.0 -0.1603108182
C  C26  1  0.85760000  0.10420000  0.48214000  1.0 -0.1603108182
C  C27  1  0.64240000  0.39580000  0.98214000  1.0 -0.1603108182
C  C28  1  0.64240000  0.60420000  0.01786000  1.0 -0.1603108182
C  C29  1  0.14240000  0.10420000  0.48214000  1.0 -0.1603108182
C  C30  1  0.14240000  0.89580000  0.51786000  1.0 -0.1603108182
C  C31  1  0.35760000  0.60420000  0.01786000  1.0 -0.1603108182
C  C32  1  0.35760000  0.39580000  0.98214000  1.0 -0.1603108182
C  C33  1  0.86430000  0.92465000  0.46326000  1.0 0.0711798026
C  C34  1  0.86430000  0.07535000  0.53674000  1.0 0.0711798026
C  C35  1  0.63570000  0.42465000  0.03674000  1.0 0.0711798026
C  C36  1  0.63570000  0.57535000  0.96326000  1.0 0.0711798026
C  C37  1  0.13570000  0.07535000  0.53674000  1.0 0.0711798026
C  C38  1  0.13570000  0.92465000  0.46326000  1.0 0.0711798026
C  C39  1  0.36430000  0.57535000  0.96326000  1.0 0.0711798026
C  C40  1  0.36430000  0.42465000  0.03674000  1.0 0.0711798026
C  C41  1  0.79440000  0.93960000  0.43330000  1.0 -0.1513705311
C  C42  1  0.79440000  0.06040000  0.56670000  1.0 -0.1513705311
C  C43  1  0.70560000  0.43960000  0.06670000  1.0 -0.1513705311
C  C44  1  0.70560000  0.56040000  0.93330000  1.0 -0.1513705311
C  C45  1  0.20560000  0.06040000  0.56670000  1.0 -0.1513705311
C  C46  1  0.20560000  0.93960000  0.43330000  1.0 -0.1513705311
C  C47  1  0.29440000  0.56040000  0.93330000  1.0 -0.1513705311
C  C48  1  0.29440000  0.43960000  0.06670000  1.0 -0.1513705311
C  C49  1  0.72890000  0.92760000  0.46038000  1.0 -0.0997774356
C  C50  1  0.72890000  0.07240000  0.53962000  1.0 -0.0997774356
C  C51  1  0.77110000  0.42760000  0.03962000  1.0 -0.0997774356
C  C52  1  0.77110000  0.57240000  0.96038000  1.0 -0.0997774356
C  C53  1  0.27110000  0.07240000  0.53962000  1.0 -0.0997774356
C  C54  1  0.27110000  0.92760000  0.46038000  1.0 -0.0997774356
C  C55  1  0.22890000  0.57240000  0.96038000  1.0 -0.0997774356
C  C56  1  0.22890000  0.42760000  0.03962000  1.0 -0.0997774356
C  C57  1  0.00000000  0.92090000  0.45780000  1.0 -0.1882184596
C  C58  1  0.00000000  0.07910000  0.54220000  1.0 -0.1882184596
C  C59  1  0.50000000  0.42090000  0.04220000  1.0 -0.1882184596
C  C60  1  0.50000000  0.57910000  0.95780000  1.0 -0.1882184596
C  C61  1  0.93210000  0.94680000  0.43800000  1.0 0.0633180203
C  C62  1  0.93210000  0.05320000  0.56200000  1.0 0.0633180203
C  C63  1  0.56790000  0.44680000  0.06200000  1.0 0.0633180203
C  C64  1  0.56790000  0.55320000  0.93800000  1.0 0.0633180203
C  C65  1  0.06790000  0.05320000  0.56200000  1.0 0.0633180203
C  C66  1  0.06790000  0.94680000  0.43800000  1.0 0.0633180203
C  C67  1  0.43210000  0.55320000  0.93800000  1.0 0.0633180203
C  C68  1  0.43210000  0.44680000  0.06200000  1.0 0.0633180203
C  C69  1  0.93310000  0.99540000  0.39820000  1.0 -0.1513705311
C  C70  1  0.93310000  0.00460000  0.60180000  1.0 -0.1513705311
C  C71  1  0.56690000  0.49540000  0.10180000  1.0 -0.1513705311
C  C72  1  0.56690000  0.50460000  0.89820000  1.0 -0.1513705311
C  C73  1  0.06690000  0.00460000  0.60180000  1.0 -0.1513705311
C  C74  1  0.06690000  0.99540000  0.39820000  1.0 -0.1513705311
C  C75  1  0.43310000  0.50460000  0.89820000  1.0 -0.1513705311
C  C76  1  0.43310000  0.49540000  0.10180000  1.0 -0.1513705311
C  C77  1  0.00000000  0.01980000  0.37960000  1.0 -0.0276683417
C  C78  1  0.00000000  0.98020000  0.62040000  1.0 -0.0276683417
C  C79  1  0.50000000  0.51980000  0.12040000  1.0 -0.0276683417
C  C80  1  0.50000000  0.48020000  0.87960000  1.0 -0.0276683417
C  C81  1  0.00000000  0.07760000  0.34070000  1.0 0.5623887653
C  C82  1  0.00000000  0.92240000  0.65930000  1.0 0.5623887653
C  C83  1  0.50000000  0.57760000  0.15930000  1.0 0.5623887653
C  C84  1  0.50000000  0.42240000  0.84070000  1.0 0.5623887653
C  C85  1  0.16310000  0.48820000  0.79850000  1.0 0.5707487935
C  C86  1  0.16310000  0.51180000  0.20150000  1.0 0.5707487935
C  C87  1  0.33690000  0.98820000  0.70150000  1.0 0.5707487935
C  C88  1  0.33690000  0.01180000  0.29850000  1.0 0.5707487935
C  C89  1  0.83690000  0.51180000  0.20150000  1.0 0.5707487935
C  C90  1  0.83690000  0.48820000  0.79850000  1.0 0.5707487935
C  C91  1  0.66310000  0.01180000  0.29850000  1.0 0.5707487935
C  C92  1  0.66310000  0.98820000  0.70150000  1.0 0.5707487935
C  C93  1  0.22910000  0.52380000  0.78360000  1.0 -0.0579650229
C  C94  1  0.22910000  0.47620000  0.21640000  1.0 -0.0579650229
C  C95  1  0.27090000  0.02380000  0.71640000  1.0 -0.0579650229
C  C96  1  0.27090000  0.97620000  0.28360000  1.0 -0.0579650229
C  C97  1  0.77090000  0.47620000  0.21640000  1.0 -0.0579650229
C  C98  1  0.77090000  0.52380000  0.78360000  1.0 -0.0579650229
C  C99  1  0.72910000  0.97620000  0.28360000  1.0 -0.0579650229
C  C100  1  0.72910000  0.02380000  0.71640000  1.0 -0.0579650229
C  C101  1  0.23460000  0.58660000  0.79190000  1.0 -0.0997774356
C  C102  1  0.23460000  0.41340000  0.20810000  1.0 -0.0997774356
C  C103  1  0.26540000  0.08660000  0.70810000  1.0 -0.0997774356
C  C104  1  0.26540000  0.91340000  0.29190000  1.0 -0.0997774356
C  C105  1  0.76540000  0.41340000  0.20810000  1.0 -0.0997774356
C  C106  1  0.76540000  0.58660000  0.79190000  1.0 -0.0997774356
C  C107  1  0.73460000  0.91340000  0.29190000  1.0 -0.0997774356
C  C108  1  0.73460000  0.08660000  0.70810000  1.0 -0.0997774356
C  C109  1  0.30130000  0.61860000  0.77998000  1.0 -0.1603108182
C  C110  1  0.30130000  0.38140000  0.22002000  1.0 -0.1603108182
C  C111  1  0.19870000  0.11860000  0.72002000  1.0 -0.1603108182
C  C112  1  0.19870000  0.88140000  0.27998000  1.0 -0.1603108182
C  C113  1  0.69870000  0.38140000  0.22002000  1.0 -0.1603108182
C  C114  1  0.69870000  0.61860000  0.77998000  1.0 -0.1603108182
C  C115  1  0.80130000  0.88140000  0.27998000  1.0 -0.1603108182
C  C116  1  0.80130000  0.11860000  0.72002000  1.0 -0.1603108182
C  C117  1  0.36160000  0.58560000  0.76040000  1.0 0.0711798026
C  C118  1  0.36160000  0.41440000  0.23960000  1.0 0.0711798026
C  C119  1  0.13840000  0.08560000  0.73960000  1.0 0.0711798026
C  C120  1  0.13840000  0.91440000  0.26040000  1.0 0.0711798026
C  C121  1  0.63840000  0.41440000  0.23960000  1.0 0.0711798026
C  C122  1  0.63840000  0.58560000  0.76040000  1.0 0.0711798026
C  C123  1  0.86160000  0.91440000  0.26040000  1.0 0.0711798026
C  C124  1  0.86160000  0.08560000  0.73960000  1.0 0.0711798026
C  C125  1  0.35680000  0.51860000  0.75230000  1.0 -0.1513705311
C  C126  1  0.35680000  0.48140000  0.24770000  1.0 -0.1513705311
C  C127  1  0.14320000  0.01860000  0.74770000  1.0 -0.1513705311
C  C128  1  0.14320000  0.98140000  0.25230000  1.0 -0.1513705311
C  C129  1  0.64320000  0.48140000  0.24770000  1.0 -0.1513705311
C  C130  1  0.64320000  0.51860000  0.75230000  1.0 -0.1513705311
C  C131  1  0.85680000  0.98140000  0.25230000  1.0 -0.1513705311
C  C132  1  0.85680000  0.01860000  0.74770000  1.0 -0.1513705311
C  C133  1  0.28760000  0.49060000  0.76290000  1.0 -0.0922162509
C  C134  1  0.28760000  0.50940000  0.23710000  1.0 -0.0922162509
C  C135  1  0.21240000  0.99060000  0.73710000  1.0 -0.0922162509
C  C136  1  0.21240000  0.00940000  0.26290000  1.0 -0.0922162509
C  C137  1  0.71240000  0.50940000  0.23710000  1.0 -0.0922162509
C  C138  1  0.71240000  0.49060000  0.76290000  1.0 -0.0922162509
C  C139  1  0.78760000  0.00940000  0.26290000  1.0 -0.0922162509
C  C140  1  0.78760000  0.99060000  0.73710000  1.0 -0.0922162509
C  C141  1  0.50000000  0.58620000  0.75920000  1.0 -0.1969141638
C  C142  1  0.50000000  0.41380000  0.24080000  1.0 -0.1969141638
C  C143  1  0.00000000  0.08620000  0.74080000  1.0 -0.1969141638
C  C144  1  0.00000000  0.91380000  0.25920000  1.0 -0.1969141638
C  C145  1  0.43280000  0.61680000  0.75060000  1.0 0.0789591172
C  C146  1  0.43280000  0.38320000  0.24940000  1.0 0.0789591172
C  C147  1  0.06720000  0.11680000  0.74940000  1.0 0.0789591172
C  C148  1  0.06720000  0.88320000  0.25060000  1.0 0.0789591172
C  C149  1  0.56720000  0.38320000  0.24940000  1.0 0.0789591172
C  C150  1  0.56720000  0.61680000  0.75060000  1.0 0.0789591172
C  C151  1  0.93280000  0.88320000  0.25060000  1.0 0.0789591172
C  C152  1  0.93280000  0.11680000  0.74940000  1.0 0.0789591172
C  C153  1  0.43220000  0.68160000  0.73660000  1.0 -0.1882184596
C  C154  1  0.43220000  0.31840000  0.26340000  1.0 -0.1882184596
C  C155  1  0.06780000  0.18160000  0.76340000  1.0 -0.1882184596
C  C156  1  0.06780000  0.81840000  0.23660000  1.0 -0.1882184596
C  C157  1  0.56780000  0.31840000  0.26340000  1.0 -0.1882184596
C  C158  1  0.56780000  0.68160000  0.73660000  1.0 -0.1882184596
C  C159  1  0.93220000  0.81840000  0.23660000  1.0 -0.1882184596
C  C160  1  0.93220000  0.18160000  0.76340000  1.0 -0.1882184596
C  C161  1  0.50000000  0.71300000  0.73030000  1.0 -0.0276683417
C  C162  1  0.50000000  0.28700000  0.26970000  1.0 -0.0276683417
C  C163  1  0.00000000  0.21300000  0.76970000  1.0 -0.0276683417
C  C164  1  0.00000000  0.78700000  0.23030000  1.0 -0.0276683417
C  C165  1  0.50000000  0.78140000  0.71160000  1.0 0.5825643415
C  C166  1  0.50000000  0.21860000  0.28840000  1.0 0.5825643415
C  C167  1  0.00000000  0.28140000  0.78840000  1.0 0.5825643415
C  C168  1  0.00000000  0.71860000  0.21160000  1.0 0.5825643415
C  C169  1  0.34290000  0.28090000  0.69830000  1.0 0.5346114511
C  C170  1  0.34290000  0.71910000  0.30170000  1.0 0.5346114511
C  C171  1  0.15710000  0.78090000  0.80170000  1.0 0.5346114511
C  C172  1  0.15710000  0.21910000  0.19830000  1.0 0.5346114511
C  C173  1  0.65710000  0.71910000  0.30170000  1.0 0.5346114511
C  C174  1  0.65710000  0.28090000  0.69830000  1.0 0.5346114511
C  C175  1  0.84290000  0.21910000  0.19830000  1.0 0.5346114511
C  C176  1  0.84290000  0.78090000  0.80170000  1.0 0.5346114511
C  C177  1  0.27110000  0.27690000  0.66666667  1.0 -0.0375484586
C  C178  1  0.27110000  0.72310000  0.33333333  1.0 -0.0375484586
C  C179  1  0.22890000  0.77690000  0.83333000  1.0 -0.0375484586
C  C180  1  0.22890000  0.22310000  0.16667000  1.0 -0.0375484586
C  C181  1  0.72890000  0.72310000  0.33333333  1.0 -0.0375484586
C  C182  1  0.72890000  0.27690000  0.66666667  1.0 -0.0375484586
C  C183  1  0.77110000  0.22310000  0.16667000  1.0 -0.0375484586
C  C184  1  0.77110000  0.77690000  0.83333000  1.0 -0.0375484586
C  C185  1  0.20910000  0.30680000  0.68790000  1.0 -0.0997774356
C  C186  1  0.20910000  0.69320000  0.31210000  1.0 -0.0997774356
C  C187  1  0.29090000  0.80680000  0.81210000  1.0 -0.0997774356
C  C188  1  0.29090000  0.19320000  0.18790000  1.0 -0.0997774356
C  C189  1  0.79090000  0.69320000  0.31210000  1.0 -0.0997774356
C  C190  1  0.79090000  0.30680000  0.68790000  1.0 -0.0997774356
C  C191  1  0.70910000  0.19320000  0.18790000  1.0 -0.0997774356
C  C192  1  0.70910000  0.80680000  0.81210000  1.0 -0.0997774356
C  C193  1  0.14170000  0.29950000  0.65990000  1.0 -0.1424774615
C  C194  1  0.14170000  0.70050000  0.34010000  1.0 -0.1424774615
C  C195  1  0.35830000  0.79950000  0.84010000  1.0 -0.1424774615
C  C196  1  0.35830000  0.20050000  0.15990000  1.0 -0.1424774615
C  C197  1  0.85830000  0.70050000  0.34010000  1.0 -0.1424774615
C  C198  1  0.85830000  0.29950000  0.65990000  1.0 -0.1424774615
C  C199  1  0.64170000  0.20050000  0.15990000  1.0 -0.1424774615
C  C200  1  0.64170000  0.79950000  0.84010000  1.0 -0.1424774615
C  C201  1  0.13680000  0.26240000  0.60980000  1.0 0.0633180203
C  C202  1  0.13680000  0.73760000  0.39020000  1.0 0.0633180203
C  C203  1  0.36320000  0.76240000  0.89020000  1.0 0.0633180203
C  C204  1  0.36320000  0.23760000  0.10980000  1.0 0.0633180203
C  C205  1  0.86320000  0.73760000  0.39020000  1.0 0.0633180203
C  C206  1  0.86320000  0.26240000  0.60980000  1.0 0.0633180203
C  C207  1  0.63680000  0.23760000  0.10980000  1.0 0.0633180203
C  C208  1  0.63680000  0.76240000  0.89020000  1.0 0.0633180203
C  C209  1  0.19950000  0.23190000  0.58810000  1.0 -0.1424774615
C  C210  1  0.19950000  0.76810000  0.41190000  1.0 -0.1424774615
C  C211  1  0.30050000  0.73190000  0.91190000  1.0 -0.1424774615
C  C212  1  0.30050000  0.26810000  0.08810000  1.0 -0.1424774615
C  C213  1  0.80050000  0.76810000  0.41190000  1.0 -0.1424774615
C  C214  1  0.80050000  0.23190000  0.58810000  1.0 -0.1424774615
C  C215  1  0.69950000  0.26810000  0.08810000  1.0 -0.1424774615
C  C216  1  0.69950000  0.73190000  0.91190000  1.0 -0.1424774615
C  C217  1  0.26630000  0.23930000  0.61700000  1.0 -0.1111768092
C  C218  1  0.26630000  0.76070000  0.38300000  1.0 -0.1111768092
C  C219  1  0.23370000  0.73930000  0.88300000  1.0 -0.1111768092
C  C220  1  0.23370000  0.26070000  0.11700000  1.0 -0.1111768092
C  C221  1  0.73370000  0.76070000  0.38300000  1.0 -0.1111768092
C  C222  1  0.73370000  0.23930000  0.61700000  1.0 -0.1111768092
C  C223  1  0.76630000  0.26070000  0.11700000  1.0 -0.1111768092
C  C224  1  0.76630000  0.73930000  0.88300000  1.0 -0.1111768092
C  C225  1  0.00000000  0.25750000  0.60850000  1.0 -0.2109730368
C  C226  1  0.00000000  0.74250000  0.39150000  1.0 -0.2109730368
C  C227  1  0.50000000  0.75750000  0.89150000  1.0 -0.2109730368
C  C228  1  0.50000000  0.24250000  0.10850000  1.0 -0.2109730368
C  C229  1  0.06730000  0.26040000  0.57640000  1.0 0.0789591172
C  C230  1  0.06730000  0.73960000  0.42360000  1.0 0.0789591172
C  C231  1  0.43270000  0.76040000  0.92360000  1.0 0.0789591172
C  C232  1  0.43270000  0.23960000  0.07640000  1.0 0.0789591172
C  C233  1  0.93270000  0.73960000  0.42360000  1.0 0.0789591172
C  C234  1  0.93270000  0.26040000  0.57640000  1.0 0.0789591172
C  C235  1  0.56730000  0.23960000  0.07640000  1.0 0.0789591172
C  C236  1  0.56730000  0.76040000  0.92360000  1.0 0.0789591172
C  C237  1  0.06320000  0.25240000  0.51420000  1.0 -0.1686141094
C  C238  1  0.06320000  0.74760000  0.48580000  1.0 -0.1686141094
C  C239  1  0.43680000  0.75240000  0.98580000  1.0 -0.1686141094
C  C240  1  0.43680000  0.24760000  0.01420000  1.0 -0.1686141094
C  C241  1  0.93680000  0.74760000  0.48580000  1.0 -0.1686141094
C  C242  1  0.93680000  0.25240000  0.51420000  1.0 -0.1686141094
C  C243  1  0.56320000  0.24760000  0.01420000  1.0 -0.1686141094
C  C244  1  0.56320000  0.75240000  0.98580000  1.0 -0.1686141094
C  C245  1  0.00000000  0.24930000  0.48490000  1.0 -0.0579650229
C  C246  1  0.00000000  0.75070000  0.51510000  1.0 -0.0579650229
C  C247  1  0.50000000  0.74930000  0.01510000  1.0 -0.0579650229
C  C248  1  0.50000000  0.25070000  0.98490000  1.0 -0.0579650229
C  C249  1  0.00000000  0.23990000  0.42320000  1.0 0.5496269042
C  C250  1  0.00000000  0.76010000  0.57680000  1.0 0.5496269042
C  C251  1  0.50000000  0.73990000  0.07680000  1.0 0.5496269042
C  C252  1  0.50000000  0.26010000  0.92320000  1.0 0.5496269042
N  N1  1  0.53980000  0.12480000  0.59400000  1.0 0.1185806472
N  N2  1  0.53980000  0.87520000  0.40600000  1.0 0.1185806472
N  N3  1  0.96020000  0.62480000  0.90600000  1.0 0.1185806472
N  N4  1  0.96020000  0.37520000  0.09400000  1.0 0.1185806472
N  N5  1  0.46020000  0.87520000  0.40600000  1.0 0.1185806472
N  N6  1  0.46020000  0.12480000  0.59400000  1.0 0.1185806472
N  N7  1  0.03980000  0.37520000  0.09400000  1.0 0.1185806472
N  N8  1  0.03980000  0.62480000  0.90600000  1.0 0.1185806472
O  O1  1  0.65440000  0.86726000  0.59601000  1.0 -0.5553410774
O  O2  1  0.65440000  0.13274000  0.40399000  1.0 -0.5553410774
O  O3  1  0.84560000  0.36726000  0.90399000  1.0 -0.5553410774
O  O4  1  0.84560000  0.63274000  0.09601000  1.0 -0.5553410774
O  O5  1  0.34560000  0.13274000  0.40399000  1.0 -0.5553410774
O  O6  1  0.34560000  0.86726000  0.59601000  1.0 -0.5553410774
O  O7  1  0.15440000  0.63274000  0.09601000  1.0 -0.5553410774
O  O8  1  0.15440000  0.36726000  0.90399000  1.0 -0.5553410774
O  O9  1  0.59923000  0.91558000  0.52121000  1.0 -0.5279692715
O  O10  1  0.59923000  0.08442000  0.47879000  1.0 -0.5279692715
O  O11  1  0.90077000  0.41558000  0.97879000  1.0 -0.5279692715
O  O12  1  0.90077000  0.58442000  0.02121000  1.0 -0.5279692715
O  O13  1  0.40077000  0.08442000  0.47879000  1.0 -0.5279692715
O  O14  1  0.40077000  0.91558000  0.52121000  1.0 -0.5279692715
O  O15  1  0.09923000  0.58442000  0.02121000  1.0 -0.5279692715
O  O16  1  0.09923000  0.41558000  0.97879000  1.0 -0.5279692715
O  O17  1  0.94051000  0.10247000  0.32639000  1.0 -0.5279692715
O  O18  1  0.94051000  0.89753000  0.67361000  1.0 -0.5279692715
O  O19  1  0.55949000  0.60247000  0.17361000  1.0 -0.5279692715
O  O20  1  0.55949000  0.39753000  0.82639000  1.0 -0.5279692715
O  O21  1  0.05949000  0.89753000  0.67361000  1.0 -0.5279692715
O  O22  1  0.05949000  0.10247000  0.32639000  1.0 -0.5279692715
O  O23  1  0.44051000  0.39753000  0.82639000  1.0 -0.5279692715
O  O24  1  0.44051000  0.60247000  0.17361000  1.0 -0.5279692715
O  O25  1  0.15634000  0.43091000  0.78861000  1.0 -0.5122275278
O  O26  1  0.15634000  0.56909000  0.21139000  1.0 -0.5122275278
O  O27  1  0.34366000  0.93091000  0.71139000  1.0 -0.5122275278
O  O28  1  0.34366000  0.06909000  0.28861000  1.0 -0.5122275278
O  O29  1  0.84366000  0.56909000  0.21139000  1.0 -0.5122275278
O  O30  1  0.84366000  0.43091000  0.78861000  1.0 -0.5122275278
O  O31  1  0.65634000  0.06909000  0.28861000  1.0 -0.5122275278
O  O32  1  0.65634000  0.93091000  0.71139000  1.0 -0.5122275278
O  O33  1  0.10949000  0.52091000  0.81396000  1.0 -0.5705412831
O  O34  1  0.10949000  0.47909000  0.18604000  1.0 -0.5705412831
O  O35  1  0.39051000  0.02091000  0.68604000  1.0 -0.5705412831
O  O36  1  0.39051000  0.97909000  0.31396000  1.0 -0.5705412831
O  O37  1  0.89051000  0.47909000  0.18604000  1.0 -0.5705412831
O  O38  1  0.89051000  0.52091000  0.81396000  1.0 -0.5705412831
O  O39  1  0.60949000  0.97909000  0.31396000  1.0 -0.5705412831
O  O40  1  0.60949000  0.02091000  0.68604000  1.0 -0.5705412831
O  O41  1  0.56185000  0.80646000  0.70206000  1.0 -0.550398705
O  O42  1  0.56185000  0.19354000  0.29794000  1.0 -0.550398705
O  O43  1  0.93815000  0.30646000  0.79794000  1.0 -0.550398705
O  O44  1  0.93815000  0.69354000  0.20206000  1.0 -0.550398705
O  O45  1  0.43815000  0.19354000  0.29794000  1.0 -0.550398705
O  O46  1  0.43815000  0.80646000  0.70206000  1.0 -0.550398705
O  O47  1  0.06185000  0.69354000  0.20206000  1.0 -0.550398705
O  O48  1  0.06185000  0.30646000  0.79794000  1.0 -0.550398705
O  O49  1  0.39252000  0.24722000  0.68660000  1.0 -0.5122275278
O  O50  1  0.39252000  0.75278000  0.31340000  1.0 -0.5122275278
O  O51  1  0.10748000  0.74722000  0.81340000  1.0 -0.5122275278
O  O52  1  0.10748000  0.25278000  0.18660000  1.0 -0.5122275278
O  O53  1  0.60748000  0.75278000  0.31340000  1.0 -0.5122275278
O  O54  1  0.60748000  0.24722000  0.68660000  1.0 -0.5122275278
O  O55  1  0.89252000  0.25278000  0.18660000  1.0 -0.5122275278
O  O56  1  0.89252000  0.74722000  0.81340000  1.0 -0.5122275278
O  O57  1  0.34783000  0.32281000  0.73773000  1.0 -0.5246516591
O  O58  1  0.34783000  0.67719000  0.26227000  1.0 -0.5279692715
O  O59  1  0.15217000  0.82281000  0.76227000  1.0 -0.5279692715
O  O60  1  0.15217000  0.17719000  0.23773000  1.0 -0.5246516591
O  O61  1  0.65217000  0.67719000  0.26227000  1.0 -0.5279692715
O  O62  1  0.65217000  0.32281000  0.73773000  1.0 -0.5246516591
O  O63  1  0.84783000  0.17719000  0.23773000  1.0 -0.5246516591
O  O64  1  0.84783000  0.82281000  0.76227000  1.0 -0.5279692715
O  O65  1  0.94057000  0.23237000  0.39472000  1.0 -0.5122275278
O  O66  1  0.94057000  0.76763000  0.60528000  1.0 -0.5122275278
O  O67  1  0.55943000  0.73237000  0.10528000  1.0 -0.5122275278
O  O68  1  0.55943000  0.26763000  0.89472000  1.0 -0.5122275278
O  O69  1  0.05943000  0.76763000  0.60528000  1.0 -0.5122275278
O  O70  1  0.05943000  0.23237000  0.39472000  1.0 -0.5122275278
O  O71  1  0.44057000  0.26763000  0.89472000  1.0 -0.5122275278
O  O72  1  0.44057000  0.73237000  0.10528000  1.0 -0.5122275278
O  O73  1  0.50000000  0.92204000  0.63437000  1.0 -0.9735121554
O  O74  1  0.50000000  0.07796000  0.36563000  1.0 -0.9735121554
O  O75  1  0.00000000  0.42204000  0.86563000  1.0 -0.9735121554
O  O76  1  0.00000000  0.57796000  0.13437000  1.0 -0.9735121554
O  O77  1  0.50000000  0.17520000  0.61070000  1.0 -0.3328971243
O  O78  1  0.50000000  0.82480000  0.38930000  1.0 -0.3328971243
O  O79  1  0.00000000  0.67520000  0.88930000  1.0 -0.3328971243
O  O80  1  0.00000000  0.32480000  0.11070000  1.0 -0.3328971243
O  O81  1  0.00000000  0.22790000  0.27460000  1.0 -0.6998845166
O  O82  1  0.00000000  0.77210000  0.72540000  1.0 -0.6998845166
O  O83  1  0.50000000  0.72790000  0.22540000  1.0 -0.6998845166
O  O84  1  0.50000000  0.27210000  0.77460000  1.0 -0.6998845166
O  O85  1  0.50000000  0.80265000  0.51290000  1.0 -0.6500963098
O  O86  1  0.50000000  0.19735000  0.48710000  1.0 -0.6500963098
O  O87  1  0.00000000  0.30265000  0.98710000  1.0 -0.6500963098
O  O88  1  0.00000000  0.69735000  0.01290000  1.0 -0.6500963098
O  O89  1  0.50000000  0.32490000  0.65172000  1.0 -0.4944605356
O  O90  1  0.50000000  0.67510000  0.34828000  1.0 -0.4944605356
O  O91  1  0.00000000  0.82490000  0.84828000  1.0 -0.4944605356
O  O92  1  0.00000000  0.17510000  0.15172000  1.0 -0.4993081277
O  O93  1  0.50000000  0.14070000  0.73111000  1.0 -0.4993081277
O  O94  1  0.50000000  0.85930000  0.26889000  1.0 -0.4993081277
O  O95  1  0.00000000  0.64070000  0.76889000  1.0 -0.4993081277
O  O96  1  0.00000000  0.35930000  0.23111000  1.0 -0.4993081277
O  O97  1  0.83490000  0.23547000  0.35395000  1.0 -0.5705412831
O  O98  1  0.83490000  0.76453000  0.64605000  1.0 -0.5705412831
O  O99  1  0.66510000  0.73547000  0.14605000  1.0 -0.5705412831
O  O100  1  0.66510000  0.26453000  0.85395000  1.0 -0.5705412831
O  O101  1  0.16510000  0.76453000  0.64605000  1.0 -0.5705412831
O  O102  1  0.16510000  0.23547000  0.35395000  1.0 -0.5705412831
O  O103  1  0.33490000  0.26453000  0.85395000  1.0 -0.5705412831
O  O104  1  0.33490000  0.73547000  0.14605000  1.0 -0.5750684267
O  O105  1  0.49100000  0.07240000  0.59940000  1.0 -0.1513705311
O  O106  1  0.49100000  0.92760000  0.40060000  1.0 -0.1513705311
O  O107  1  0.00900000  0.57240000  0.90060000  1.0 -0.1513705311
O  O108  1  0.00900000  0.42760000  0.09940000  1.0 -0.1513705311
O  O109  1  0.50900000  0.92760000  0.40060000  1.0 -0.1513705311
O  O110  1  0.50900000  0.07240000  0.59940000  1.0 -0.1513705311
O  O111  1  0.99100000  0.42760000  0.09940000  1.0 -0.1603108182
O  O112  1  0.99100000  0.57240000  0.90060000  1.0 -0.1513705311
