# DDEC6 charges by PACMAN v1.1 (https://github.com/mtap-research/PACMAN-charge/)
data_AWEVIJ_ion_pacman
_symmetry_space_group_name_H-M   'P 1'
_cell_length_a   28.86370000
_cell_length_b   28.86370000
_cell_length_c   38.53100000
_cell_angle_alpha   49.55250000
_cell_angle_beta   130.44800000
_cell_angle_gamma   137.67600000
_symmetry_Int_Tables_number   1
_chemical_formula_structural   Zn2H88C106N9Cl2O19
_chemical_formula_sum   'Zn8 H352 C424 N36 Cl8 O76'
_cell_volume   15526.78760832
_cell_formula_units_Z   4
loop_
 _symmetry_equiv_pos_site_id
 _symmetry_equiv_pos_as_xyz
  1  'x, y, z'
loop_
 _atom_site_type_symbol
 _atom_site_label
 _atom_site_symmetry_multiplicity
 _atom_site_fract_x
 _atom_site_fract_y
 _atom_site_fract_z
 _atom_site_occupancy
 _atom_site_charge
Zn  Zn1  1  0.23041000  0.91911000  0.92916000  1.0 0.6571851602
Zn  Zn2  1  0.91911000  0.23041000  0.57084000  1.0 0.6571851602
Zn  Zn3  1  0.76959000  0.08089000  0.07084000  1.0 0.6571851602
Zn  Zn4  1  0.08089000  0.76959000  0.42916000  1.0 0.6571851602
Zn  Zn5  1  0.11279000  0.16455000  0.87913000  1.0 0.6890558233
Zn  Zn6  1  0.16455000  0.11279000  0.62087000  1.0 0.6890558233
Zn  Zn7  1  0.88721000  0.83545000  0.12087000  1.0 0.6890558233
Zn  Zn8  1  0.83545000  0.88721000  0.37913000  1.0 0.6890558233
H  H1  1  0.55890000  0.58250000  0.79810000  1.0 0.1097169522
H  H2  1  0.58250000  0.55890000  0.70190000  1.0 0.1097169522
H  H3  1  0.44110000  0.41750000  0.20190000  1.0 0.1097169522
H  H4  1  0.41750000  0.44110000  0.29810000  1.0 0.1097169522
H  H5  1  0.48950000  0.53050000  0.83990000  1.0 0.1196594392
H  H6  1  0.53050000  0.48950000  0.66010000  1.0 0.1196594392
H  H7  1  0.51050000  0.46950000  0.16010000  1.0 0.1196594392
H  H8  1  0.46950000  0.51050000  0.33990000  1.0 0.1196594392
H  H9  1  0.50140000  0.55860000  0.72770000  1.0 0.1097169522
H  H10  1  0.55860000  0.50140000  0.77230000  1.0 0.1097169522
H  H11  1  0.49860000  0.44140000  0.27230000  1.0 0.1097169522
H  H12  1  0.44140000  0.49860000  0.22770000  1.0 0.1097169522
H  H13  1  0.28270000  0.33530000  0.73990000  1.0 0.1097169522
H  H14  1  0.33530000  0.28270000  0.76010000  1.0 0.1097169522
H  H15  1  0.71730000  0.66470000  0.26010000  1.0 0.1097169522
H  H16  1  0.66470000  0.71730000  0.23990000  1.0 0.1097169522
H  H17  1  0.31660000  0.33320000  0.79400000  1.0 0.102068358
H  H18  1  0.33320000  0.31660000  0.70600000  1.0 0.102068358
H  H19  1  0.68340000  0.66680000  0.20600000  1.0 0.102068358
H  H20  1  0.66680000  0.68340000  0.29400000  1.0 0.102068358
H  H21  1  0.14810000  0.23910000  0.71230000  1.0 0.1299459543
H  H22  1  0.23910000  0.14810000  0.78770000  1.0 0.1299459543
H  H23  1  0.85190000  0.76090000  0.28770000  1.0 0.1299459543
H  H24  1  0.76090000  0.85190000  0.21230000  1.0 0.1299459543
H  H25  1  0.03630000  0.14870000  0.72420000  1.0 0.1299459543
H  H26  1  0.14870000  0.03630000  0.77580000  1.0 0.1299459543
H  H27  1  0.96370000  0.85130000  0.27580000  1.0 0.1299459543
H  H28  1  0.85130000  0.96370000  0.22420000  1.0 0.1299459543
H  H29  1  0.02490000  0.12690000  0.78880000  1.0 0.1097169522
H  H30  1  0.12690000  0.02490000  0.71120000  1.0 0.1097169522
H  H31  1  0.97510000  0.87310000  0.21120000  1.0 0.1097169522
H  H32  1  0.87310000  0.97510000  0.28880000  1.0 0.1097169522
H  H33  1  0.23660000  0.27940000  0.83140000  1.0 0.1196594392
H  H34  1  0.27940000  0.23660000  0.66860000  1.0 0.1196594392
H  H35  1  0.76340000  0.72060000  0.16860000  1.0 0.1196594392
H  H36  1  0.72060000  0.76340000  0.33140000  1.0 0.1196594392
H  H37  1  0.39100000  0.47260000  0.68150000  1.0 0.1196594392
H  H38  1  0.47260000  0.39100000  0.81850000  1.0 0.1196594392
H  H39  1  0.60900000  0.52740000  0.31850000  1.0 0.1196594392
H  H40  1  0.52740000  0.60900000  0.18150000  1.0 0.1196594392
H  H41  1  0.31300000  0.44200000  0.67600000  1.0 0.1196594392
H  H42  1  0.44200000  0.31300000  0.82400000  1.0 0.1196594392
H  H43  1  0.68700000  0.55800000  0.32400000  1.0 0.1196594392
H  H44  1  0.55800000  0.68700000  0.17600000  1.0 0.1196594392
H  H45  1  0.47770000  0.70670000  0.57650000  1.0 0.1097169522
H  H46  1  0.70670000  0.47770000  0.92350000  1.0 0.1097169522
H  H47  1  0.52230000  0.29330000  0.42350000  1.0 0.1097169522
H  H48  1  0.29330000  0.52230000  0.07650000  1.0 0.1097169522
H  H49  1  0.46300000  0.59500000  0.63600000  1.0 0.1196594392
H  H50  1  0.59500000  0.46300000  0.86400000  1.0 0.1196594392
H  H51  1  0.53700000  0.40500000  0.36400000  1.0 0.1196594392
H  H52  1  0.40500000  0.53700000  0.13600000  1.0 0.1196594392
H  H53  1  0.39330000  0.73110000  0.54450000  1.0 0.1196594392
H  H54  1  0.73110000  0.39330000  0.95550000  1.0 0.1196594392
H  H55  1  0.60670000  0.26890000  0.45550000  1.0 0.1196594392
H  H56  1  0.26890000  0.60670000  0.04450000  1.0 0.1196594392
H  H57  1  0.08170000  0.33370000  0.70780000  1.0 0.1299459543
H  H58  1  0.33370000  0.08170000  0.79220000  1.0 0.1299459543
H  H59  1  0.91830000  0.66630000  0.29220000  1.0 0.1196594392
H  H60  1  0.66630000  0.91830000  0.20780000  1.0 0.1196594392
H  H61  1  0.17910000  0.43690000  0.67880000  1.0 0.139083622
H  H62  1  0.43690000  0.17910000  0.82120000  1.0 0.139083622
H  H63  1  0.82090000  0.56310000  0.32120000  1.0 0.139083622
H  H64  1  0.56310000  0.82090000  0.17880000  1.0 0.139083622
H  H65  1  0.07870000  0.36770000  0.57240000  1.0 0.1196594392
H  H66  1  0.36770000  0.07870000  0.92760000  1.0 0.1196594392
H  H67  1  0.92130000  0.63230000  0.42760000  1.0 0.1196594392
H  H68  1  0.63230000  0.92130000  0.07240000  1.0 0.1196594392
H  H69  1  0.98250000  0.24810000  0.66810000  1.0 0.1196594392
H  H70  1  0.24810000  0.98250000  0.83190000  1.0 0.1196594392
H  H71  1  0.01750000  0.75190000  0.33190000  1.0 0.1196594392
H  H72  1  0.75190000  0.01750000  0.16810000  1.0 0.1196594392
H  H73  1  0.18550000  0.50110000  0.56960000  1.0 0.102068358
H  H74  1  0.50110000  0.18550000  0.93040000  1.0 0.102068358
H  H75  1  0.81450000  0.49890000  0.43040000  1.0 0.102068358
H  H76  1  0.49890000  0.81450000  0.06960000  1.0 0.102068358
H  H77  1  0.21970000  0.45350000  0.60210000  1.0 0.1097169522
H  H78  1  0.45350000  0.21970000  0.89790000  1.0 0.1097169522
H  H79  1  0.78030000  0.54650000  0.39790000  1.0 0.1097169522
H  H80  1  0.54650000  0.78030000  0.10210000  1.0 0.1097169522
H  H81  1  0.27730000  0.69030000  0.53250000  1.0 0.1196594392
H  H82  1  0.69030000  0.27730000  0.96750000  1.0 0.1196594392
H  H83  1  0.72270000  0.30970000  0.46750000  1.0 0.1196594392
H  H84  1  0.30970000  0.72270000  0.03250000  1.0 0.1196594392
H  H85  1  0.22570000  0.60890000  0.56120000  1.0 0.1097169522
H  H86  1  0.60890000  0.22570000  0.93880000  1.0 0.1097169522
H  H87  1  0.77430000  0.39110000  0.43880000  1.0 0.1097169522
H  H88  1  0.39110000  0.77430000  0.06120000  1.0 0.1097169522
H  H89  1  0.41380000  0.83320000  0.62140000  1.0 0.1097169522
H  H90  1  0.83320000  0.41380000  0.87860000  1.0 0.1196594392
H  H91  1  0.58620000  0.16680000  0.37860000  1.0 0.1196594392
H  H92  1  0.16680000  0.58620000  0.12140000  1.0 0.1097169522
H  H93  1  0.37550000  0.78270000  0.57190000  1.0 0.1196594392
H  H94  1  0.78270000  0.37550000  0.92810000  1.0 0.1196594392
H  H95  1  0.62450000  0.21730000  0.42810000  1.0 0.1196594392
H  H96  1  0.21730000  0.62450000  0.07190000  1.0 0.1196594392
H  H97  1  0.35380000  0.76260000  0.67570000  1.0 0.1196594392
H  H98  1  0.76260000  0.35380000  0.82430000  1.0 0.1196594392
H  H99  1  0.64620000  0.23740000  0.32430000  1.0 0.1196594392
H  H100  1  0.23740000  0.64620000  0.17570000  1.0 0.1196594392
H  H101  1  0.13500000  0.59300000  0.61460000  1.0 0.0942087552
H  H102  1  0.59300000  0.13500000  0.88540000  1.0 0.0942087552
H  H103  1  0.86500000  0.40700000  0.38540000  1.0 0.0942087552
H  H104  1  0.40700000  0.86500000  0.11460000  1.0 0.0942087552
H  H105  1  0.09130000  0.51070000  0.61920000  1.0 0.1097169522
H  H106  1  0.51070000  0.09130000  0.88080000  1.0 0.1097169522
H  H107  1  0.90870000  0.48930000  0.38080000  1.0 0.1196594392
H  H108  1  0.48930000  0.90870000  0.11920000  1.0 0.1097169522
H  H109  1  0.08260000  0.50460000  0.54890000  1.0 0.1196594392
H  H110  1  0.50460000  0.08260000  0.95110000  1.0 0.1196594392
H  H111  1  0.91740000  0.49540000  0.45110000  1.0 0.1196594392
H  H112  1  0.49540000  0.91740000  0.04890000  1.0 0.1196594392
H  H113  1  0.07470000  0.55590000  0.46780000  1.0 0.1299459543
H  H114  1  0.55590000  0.07470000  0.03220000  1.0 0.1299459543
H  H115  1  0.92530000  0.44410000  0.53220000  1.0 0.1299459543
H  H116  1  0.44410000  0.92530000  0.96780000  1.0 0.1299459543
H  H117  1  0.06970000  0.66530000  0.42000000  1.0 0.102068358
H  H118  1  0.66530000  0.06970000  0.08000000  1.0 0.102068358
H  H119  1  0.93030000  0.33470000  0.58000000  1.0 0.102068358
H  H120  1  0.33470000  0.93030000  0.92000000  1.0 0.102068358
H  H121  1  0.12220000  0.67920000  0.53930000  1.0 0.1097169522
H  H122  1  0.67920000  0.12220000  0.96070000  1.0 0.1097169522
H  H123  1  0.87780000  0.32080000  0.46070000  1.0 0.1097169522
H  H124  1  0.32080000  0.87780000  0.03930000  1.0 0.1097169522
H  H125  1  0.24710000  0.65070000  0.70280000  1.0 0.1196594392
H  H126  1  0.65070000  0.24710000  0.79720000  1.0 0.1196594392
H  H127  1  0.75290000  0.34930000  0.29720000  1.0 0.1196594392
H  H128  1  0.34930000  0.75290000  0.20280000  1.0 0.1196594392
H  H129  1  0.20490000  0.57890000  0.69360000  1.0 0.1097169522
H  H130  1  0.57890000  0.20490000  0.80640000  1.0 0.1097169522
H  H131  1  0.79510000  0.42110000  0.30640000  1.0 0.1097169522
H  H132  1  0.42110000  0.79510000  0.19360000  1.0 0.1097169522
H  H133  1  0.46550000  0.66930000  0.83010000  1.0 0.1196594392
H  H134  1  0.66930000  0.46550000  0.66990000  1.0 0.1196594392
H  H135  1  0.53450000  0.33070000  0.16990000  1.0 0.1196594392
H  H136  1  0.33070000  0.53450000  0.33010000  1.0 0.1196594392
H  H137  1  0.37710000  0.69550000  0.76450000  1.0 0.1196594392
H  H138  1  0.69550000  0.37710000  0.73550000  1.0 0.1196594392
H  H139  1  0.62290000  0.30450000  0.23550000  1.0 0.1196594392
H  H140  1  0.30450000  0.62290000  0.26450000  1.0 0.1196594392
H  H141  1  0.44840000  0.56120000  0.85280000  1.0 0.1196594392
H  H142  1  0.56120000  0.44840000  0.64720000  1.0 0.1196594392
H  H143  1  0.55160000  0.43880000  0.14720000  1.0 0.1196594392
H  H144  1  0.43880000  0.55160000  0.35280000  1.0 0.1196594392
H  H145  1  0.12500000  0.41300000  0.74070000  1.0 0.1097169522
H  H146  1  0.41300000  0.12500000  0.75930000  1.0 0.1097169522
H  H147  1  0.87500000  0.58700000  0.25930000  1.0 0.1097169522
H  H148  1  0.58700000  0.87500000  0.24070000  1.0 0.1097169522
H  H149  1  0.17100000  0.47860000  0.75820000  1.0 0.102068358
H  H150  1  0.47860000  0.17100000  0.74180000  1.0 0.102068358
H  H151  1  0.82900000  0.52140000  0.24180000  1.0 0.102068358
H  H152  1  0.52140000  0.82900000  0.25820000  1.0 0.102068358
H  H153  1  0.25040000  0.47060000  0.84320000  1.0 0.1196594392
H  H154  1  0.47060000  0.25040000  0.65680000  1.0 0.1196594392
H  H155  1  0.74960000  0.52940000  0.15680000  1.0 0.1196594392
H  H156  1  0.52940000  0.74960000  0.34320000  1.0 0.1196594392
H  H157  1  0.28520000  0.39160000  0.92340000  1.0 0.1196594392
H  H158  1  0.39160000  0.28520000  0.57660000  1.0 0.1196594392
H  H159  1  0.71480000  0.60840000  0.07660000  1.0 0.1196594392
H  H160  1  0.60840000  0.71480000  0.42340000  1.0 0.1196594392
H  H161  1  0.22500000  0.27320000  0.93270000  1.0 0.102068358
H  H162  1  0.27320000  0.22500000  0.56730000  1.0 0.102068358
H  H163  1  0.77500000  0.72680000  0.06730000  1.0 0.102068358
H  H164  1  0.72680000  0.77500000  0.43270000  1.0 0.102068358
H  H165  1  0.11750000  0.30490000  0.79580000  1.0 0.1097169522
H  H166  1  0.30490000  0.11750000  0.70420000  1.0 0.1097169522
H  H167  1  0.88250000  0.69510000  0.20420000  1.0 0.1097169522
H  H168  1  0.69510000  0.88250000  0.29580000  1.0 0.1097169522
H  H169  1  0.29650000  0.41630000  0.80450000  1.0 0.1196594392
H  H170  1  0.41630000  0.29650000  0.69550000  1.0 0.1196594392
H  H171  1  0.70350000  0.58370000  0.19550000  1.0 0.1196594392
H  H172  1  0.58370000  0.70350000  0.30450000  1.0 0.1196594392
H  H173  1  0.36690000  0.43610000  0.85100000  1.0 0.1299459543
H  H174  1  0.43610000  0.36690000  0.64900000  1.0 0.1299459543
H  H175  1  0.63310000  0.56390000  0.14900000  1.0 0.1299459543
H  H176  1  0.56390000  0.63310000  0.35100000  1.0 0.1299459543
H  H177  1  0.55810000  0.67950000  0.80880000  1.0 0.1097169522
H  H178  1  0.67950000  0.55810000  0.69120000  1.0 0.1097169522
H  H179  1  0.44190000  0.32050000  0.19120000  1.0 0.1097169522
H  H180  1  0.32050000  0.44190000  0.30880000  1.0 0.1097169522
H  H181  1  0.61600000  0.69740000  0.88170000  1.0 0.1196594392
H  H182  1  0.69740000  0.61600000  0.61830000  1.0 0.1196594392
H  H183  1  0.38400000  0.30260000  0.11830000  1.0 0.1196594392
H  H184  1  0.30260000  0.38400000  0.38170000  1.0 0.1196594392
H  H185  1  0.62740000  0.72460000  0.76970000  1.0 0.1196594392
H  H186  1  0.72460000  0.62740000  0.73030000  1.0 0.1196594392
H  H187  1  0.37260000  0.27540000  0.23030000  1.0 0.1196594392
H  H188  1  0.27540000  0.37260000  0.26970000  1.0 0.1196594392
H  H189  1  0.85140000  0.90340000  0.87520000  1.0 0.1097169522
H  H190  1  0.90340000  0.85140000  0.62480000  1.0 0.1097169522
H  H191  1  0.14860000  0.09660000  0.12480000  1.0 0.1097169522
H  H192  1  0.09660000  0.14860000  0.37520000  1.0 0.1097169522
H  H193  1  0.85650000  0.91410000  0.83120000  1.0 0.1097169522
H  H194  1  0.91410000  0.85650000  0.66880000  1.0 0.1097169522
H  H195  1  0.14350000  0.08590000  0.16880000  1.0 0.1097169522
H  H196  1  0.08590000  0.14350000  0.33120000  1.0 0.1097169522
H  H197  1  0.96140000  0.85120000  0.92770000  1.0 0.1299459543
H  H198  1  0.85120000  0.96140000  0.57230000  1.0 0.1299459543
H  H199  1  0.03860000  0.14880000  0.07230000  1.0 0.1299459543
H  H200  1  0.14880000  0.03860000  0.42770000  1.0 0.1299459543
H  H201  1  0.08740000  0.91900000  0.96020000  1.0 0.1299459543
H  H202  1  0.91900000  0.08740000  0.53980000  1.0 0.1299459543
H  H203  1  0.91260000  0.08100000  0.03980000  1.0 0.1299459543
H  H204  1  0.08100000  0.91260000  0.46020000  1.0 0.1299459543
H  H205  1  0.14660000  0.04800000  0.93440000  1.0 0.1097169522
H  H206  1  0.04800000  0.14660000  0.56560000  1.0 0.1097169522
H  H207  1  0.85340000  0.95200000  0.06560000  1.0 0.1097169522
H  H208  1  0.95200000  0.85340000  0.43440000  1.0 0.1097169522
H  H209  1  0.95900000  0.02800000  0.85380000  1.0 0.1196594392
H  H210  1  0.02800000  0.95900000  0.64620000  1.0 0.1196594392
H  H211  1  0.04100000  0.97200000  0.14620000  1.0 0.1196594392
H  H212  1  0.97200000  0.04100000  0.35380000  1.0 0.1196594392
H  H213  1  0.82230000  0.83930000  0.80230000  1.0 0.1196594392
H  H214  1  0.83930000  0.82230000  0.69770000  1.0 0.1196594392
H  H215  1  0.17770000  0.16070000  0.19770000  1.0 0.1196594392
H  H216  1  0.16070000  0.17770000  0.30230000  1.0 0.1196594392
H  H217  1  0.74970000  0.80470000  0.76090000  1.0 0.1196594392
H  H218  1  0.80470000  0.74970000  0.73910000  1.0 0.1196594392
H  H219  1  0.25030000  0.19530000  0.23910000  1.0 0.1196594392
H  H220  1  0.19530000  0.25030000  0.26090000  1.0 0.1196594392
H  H221  1  0.69470000  0.56770000  0.82310000  1.0 0.1097169522
H  H222  1  0.56770000  0.69470000  0.67690000  1.0 0.1097169522
H  H223  1  0.30530000  0.43230000  0.17690000  1.0 0.1097169522
H  H224  1  0.43230000  0.30530000  0.32310000  1.0 0.1097169522
H  H225  1  0.68010000  0.66210000  0.78510000  1.0 0.1097169522
H  H226  1  0.66210000  0.68010000  0.71490000  1.0 0.1097169522
H  H227  1  0.31990000  0.33790000  0.21490000  1.0 0.1097169522
H  H228  1  0.33790000  0.31990000  0.28510000  1.0 0.1097169522
H  H229  1  0.80680000  0.58100000  0.88020000  1.0 0.1196594392
H  H230  1  0.58100000  0.80680000  0.61980000  1.0 0.1196594392
H  H231  1  0.19320000  0.41900000  0.11980000  1.0 0.1196594392
H  H232  1  0.41900000  0.19320000  0.38020000  1.0 0.1196594392
H  H233  1  0.91790000  0.87730000  0.79220000  1.0 0.102068358
H  H234  1  0.87730000  0.91790000  0.70780000  1.0 0.102068358
H  H235  1  0.08210000  0.12270000  0.20780000  1.0 0.102068358
H  H236  1  0.12270000  0.08210000  0.29220000  1.0 0.102068358
H  H237  1  0.93930000  0.82430000  0.81180000  1.0 0.1097169522
H  H238  1  0.82430000  0.93930000  0.68820000  1.0 0.1097169522
H  H239  1  0.06070000  0.17570000  0.18820000  1.0 0.1097169522
H  H240  1  0.17570000  0.06070000  0.31180000  1.0 0.1097169522
H  H241  1  0.01540000  0.99660000  0.80670000  1.0 0.1299459543
H  H242  1  0.99660000  0.01540000  0.69330000  1.0 0.1299459543
H  H243  1  0.98460000  0.00340000  0.19330000  1.0 0.1299459543
H  H244  1  0.00340000  0.98460000  0.30670000  1.0 0.1299459543
H  H245  1  0.13780000  0.08140000  0.83300000  1.0 0.1299459543
H  H246  1  0.08140000  0.13780000  0.66700000  1.0 0.1299459543
H  H247  1  0.86220000  0.91860000  0.16700000  1.0 0.1299459543
H  H248  1  0.91860000  0.86220000  0.33300000  1.0 0.1299459543
H  H249  1  0.22270000  0.05190000  0.87980000  1.0 0.1097169522
H  H250  1  0.05190000  0.22270000  0.62020000  1.0 0.1097169522
H  H251  1  0.77730000  0.94810000  0.12020000  1.0 0.1097169522
H  H252  1  0.94810000  0.77730000  0.37980000  1.0 0.1097169522
H  H253  1  0.05990000  0.84190000  0.87950000  1.0 0.1196594392
H  H254  1  0.84190000  0.05990000  0.62050000  1.0 0.1196594392
H  H255  1  0.94010000  0.15810000  0.12050000  1.0 0.1196594392
H  H256  1  0.15810000  0.94010000  0.37950000  1.0 0.1196594392
H  H257  1  0.96830000  0.73370000  0.92400000  1.0 0.1196594392
H  H258  1  0.73370000  0.96830000  0.57600000  1.0 0.1196594392
H  H259  1  0.03170000  0.26630000  0.07600000  1.0 0.1196594392
H  H260  1  0.26630000  0.03170000  0.42400000  1.0 0.1196594392
H  H261  1  0.94760000  0.67000000  0.91760000  1.0 0.1196594392
H  H262  1  0.67000000  0.94760000  0.58240000  1.0 0.1196594392
H  H263  1  0.05240000  0.33000000  0.08240000  1.0 0.1196594392
H  H264  1  0.33000000  0.05240000  0.41760000  1.0 0.1196594392
H  H265  1  0.81220000  0.45560000  0.02810000  1.0 0.1196594392
H  H266  1  0.45560000  0.81220000  0.47190000  1.0 0.1196594392
H  H267  1  0.18780000  0.54440000  0.97190000  1.0 0.1196594392
H  H268  1  0.54440000  0.18780000  0.52810000  1.0 0.1196594392
H  H269  1  0.85620000  0.53280000  0.96360000  1.0 0.1196594392
H  H270  1  0.53280000  0.85620000  0.53640000  1.0 0.1196594392
H  H271  1  0.14380000  0.46720000  0.03640000  1.0 0.1196594392
H  H272  1  0.46720000  0.14380000  0.46360000  1.0 0.1196594392
H  H273  1  0.83640000  0.50500000  0.07180000  1.0 0.1196594392
H  H274  1  0.50500000  0.83640000  0.42820000  1.0 0.1196594392
H  H275  1  0.16360000  0.49500000  0.92820000  1.0 0.1196594392
H  H276  1  0.49500000  0.16360000  0.57180000  1.0 0.1196594392
H  H277  1  0.04000000  0.72520000  0.05590000  1.0 0.102068358
H  H278  1  0.72520000  0.04000000  0.44410000  1.0 0.102068358
H  H279  1  0.96000000  0.27480000  0.94410000  1.0 0.102068358
H  H280  1  0.27480000  0.96000000  0.55590000  1.0 0.102068358
H  H281  1  0.06690000  0.80710000  0.01910000  1.0 0.1196594392
H  H282  1  0.80710000  0.06690000  0.48090000  1.0 0.1196594392
H  H283  1  0.93310000  0.19290000  0.98090000  1.0 0.1196594392
H  H284  1  0.19290000  0.93310000  0.51910000  1.0 0.1196594392
H  H285  1  0.05040000  0.64120000  0.05280000  1.0 0.1196594392
H  H286  1  0.64120000  0.05040000  0.44720000  1.0 0.1196594392
H  H287  1  0.94960000  0.35880000  0.94720000  1.0 0.1196594392
H  H288  1  0.35880000  0.94960000  0.55280000  1.0 0.1196594392
H  H289  1  0.11450000  0.65570000  0.02650000  1.0 0.1299459543
H  H290  1  0.65570000  0.11450000  0.47350000  1.0 0.1299459543
H  H291  1  0.88550000  0.34430000  0.97350000  1.0 0.1299459543
H  H292  1  0.34430000  0.88550000  0.52650000  1.0 0.1299459543
H  H293  1  0.17860000  0.75740000  0.97950000  1.0 0.1196594392
H  H294  1  0.75740000  0.17860000  0.52050000  1.0 0.1196594392
H  H295  1  0.82140000  0.24260000  0.02050000  1.0 0.1196594392
H  H296  1  0.24260000  0.82140000  0.47950000  1.0 0.1196594392
H  H297  1  0.14070000  0.86510000  0.97830000  1.0 0.102068358
H  H298  1  0.86510000  0.14070000  0.52170000  1.0 0.102068358
H  H299  1  0.85930000  0.13490000  0.02170000  1.0 0.102068358
H  H300  1  0.13490000  0.85930000  0.47830000  1.0 0.102068358
H  H301  1  0.94550000  0.68730000  0.06200000  1.0 0.1097169522
H  H302  1  0.68730000  0.94550000  0.43800000  1.0 0.1097169522
H  H303  1  0.05450000  0.31270000  0.93800000  1.0 0.1097169522
H  H304  1  0.31270000  0.05450000  0.56200000  1.0 0.1097169522
H  H305  1  0.90390000  0.60490000  0.09510000  1.0 0.1196594392
H  H306  1  0.60490000  0.90390000  0.40490000  1.0 0.1196594392
H  H307  1  0.09610000  0.39510000  0.90490000  1.0 0.1196594392
H  H308  1  0.39510000  0.09610000  0.59510000  1.0 0.1196594392
H  H309  1  0.66320000  0.52380000  0.03160000  1.0 0.1196594392
H  H310  1  0.52380000  0.66320000  0.46840000  1.0 0.1196594392
H  H311  1  0.33680000  0.47620000  0.96840000  1.0 0.1196594392
H  H312  1  0.47620000  0.33680000  0.53160000  1.0 0.1196594392
H  H313  1  0.77370000  0.53310000  0.07320000  1.0 0.1196594392
H  H314  1  0.53310000  0.77370000  0.42680000  1.0 0.1196594392
H  H315  1  0.22630000  0.46690000  0.92680000  1.0 0.1196594392
H  H316  1  0.46690000  0.22630000  0.57320000  1.0 0.1196594392
H  H317  1  0.65800000  0.62660000  0.97210000  1.0 0.1196594392
H  H318  1  0.62660000  0.65800000  0.52790000  1.0 0.1196594392
H  H319  1  0.34200000  0.37340000  0.02790000  1.0 0.1196594392
H  H320  1  0.37340000  0.34200000  0.47210000  1.0 0.1196594392
H  H321  1  0.93830000  0.92090000  0.95890000  1.0 0.1299459543
H  H322  1  0.92090000  0.93830000  0.54110000  1.0 0.1299459543
H  H323  1  0.06170000  0.07910000  0.04110000  1.0 0.1299459543
H  H324  1  0.07910000  0.06170000  0.45890000  1.0 0.1299459543
H  H325  1  0.92490000  0.79470000  0.09010000  1.0 0.1196594392
H  H326  1  0.79470000  0.92490000  0.40990000  1.0 0.1196594392
H  H327  1  0.07510000  0.20530000  0.90990000  1.0 0.1196594392
H  H328  1  0.20530000  0.07510000  0.59010000  1.0 0.1196594392
H  H329  1  0.88060000  0.94580000  0.01440000  1.0 0.1196594392
H  H330  1  0.94580000  0.88060000  0.48560000  1.0 0.1196594392
H  H331  1  0.11940000  0.05420000  0.98560000  1.0 0.1196594392
H  H332  1  0.05420000  0.11940000  0.51440000  1.0 0.1196594392
H  H333  1  0.80710000  0.80710000  0.93640000  1.0 0.1196594392
H  H334  1  0.80710000  0.80710000  0.56360000  1.0 0.1196594392
H  H335  1  0.19290000  0.19290000  0.06360000  1.0 0.1196594392
H  H336  1  0.19290000  0.19290000  0.43640000  1.0 0.1196594392
H  H337  1  0.73000000  0.76600000  0.93830000  1.0 0.1196594392
H  H338  1  0.76600000  0.73000000  0.56170000  1.0 0.1196594392
H  H339  1  0.27000000  0.23400000  0.06170000  1.0 0.1196594392
H  H340  1  0.23400000  0.27000000  0.43830000  1.0 0.1196594392
H  H341  1  0.29370000  0.00310000  0.04720000  1.0 0.139083622
H  H342  1  0.00310000  0.29370000  0.45280000  1.0 0.139083622
H  H343  1  0.70630000  0.99690000  0.95280000  1.0 0.139083622
H  H344  1  0.99690000  0.70630000  0.54720000  1.0 0.139083622
H  H345  1  0.36840000  0.06880000  0.03540000  1.0 0.161222898
H  H346  1  0.06880000  0.36840000  0.46460000  1.0 0.161222898
H  H347  1  0.63160000  0.93120000  0.96460000  1.0 0.161222898
H  H348  1  0.93120000  0.63160000  0.53540000  1.0 0.161222898
H  H349  1  0.29750000  0.07210000  0.99930000  1.0 0.1717759227
H  H350  1  0.07210000  0.29750000  0.50070000  1.0 0.1717759227
H  H351  1  0.70250000  0.92790000  0.00070000  1.0 0.1717759227
H  H352  1  0.92790000  0.70250000  0.49930000  1.0 0.1717759227
C  C1  1  0.50730000  0.55170000  0.78650000  1.0 -0.1208809143
C  C2  1  0.55170000  0.50730000  0.71350000  1.0 -0.1208809143
C  C3  1  0.49270000  0.44830000  0.21350000  1.0 -0.1208809143
C  C4  1  0.44830000  0.49270000  0.28650000  1.0 -0.1208809143
C  C5  1  0.46610000  0.52070000  0.81140000  1.0 -0.157697081
C  C6  1  0.52070000  0.46610000  0.68860000  1.0 -0.157697081
C  C7  1  0.53390000  0.47930000  0.18860000  1.0 -0.157697081
C  C8  1  0.47930000  0.53390000  0.31140000  1.0 -0.157697081
C  C9  1  0.39060000  0.47560000  0.79440000  1.0 0.0408316648
C  C10  1  0.47560000  0.39060000  0.70560000  1.0 0.0408316648
C  C11  1  0.60940000  0.52440000  0.20560000  1.0 0.0408316648
C  C12  1  0.52440000  0.60940000  0.29440000  1.0 0.0408316648
C  C13  1  0.35640000  0.46140000  0.75260000  1.0 0.1299459543
C  C14  1  0.46140000  0.35640000  0.74740000  1.0 0.1299459543
C  C15  1  0.64360000  0.53860000  0.24740000  1.0 0.1299459543
C  C16  1  0.53860000  0.64360000  0.25260000  1.0 0.1299459543
C  C17  1  0.39770000  0.49230000  0.72780000  1.0 0.0501365962
C  C18  1  0.49230000  0.39770000  0.77220000  1.0 0.0501365962
C  C19  1  0.60230000  0.50770000  0.27220000  1.0 0.0501365962
C  C20  1  0.50770000  0.60230000  0.22780000  1.0 0.0501365962
C  C21  1  0.47310000  0.53750000  0.74470000  1.0 -0.1691844585
C  C22  1  0.53750000  0.47310000  0.75530000  1.0 -0.1691844585
C  C23  1  0.52690000  0.46250000  0.25530000  1.0 -0.1691844585
C  C24  1  0.46250000  0.52690000  0.24470000  1.0 -0.1691844585
C  C25  1  0.27810000  0.33710000  0.76230000  1.0 -0.0531411985
C  C26  1  0.33710000  0.27810000  0.73770000  1.0 -0.0531411985
C  C27  1  0.72190000  0.66290000  0.23770000  1.0 -0.0531411985
C  C28  1  0.66290000  0.72190000  0.26230000  1.0 -0.0531411985
C  C29  1  0.20000000  0.27220000  0.76830000  1.0 0.0693212083
C  C30  1  0.27220000  0.20000000  0.73170000  1.0 0.0693212083
C  C31  1  0.80000000  0.72780000  0.23170000  1.0 0.0693212083
C  C32  1  0.72780000  0.80000000  0.26830000  1.0 0.0693212083
C  C33  1  0.14200000  0.23000000  0.73800000  1.0 -0.0892435921
C  C34  1  0.23000000  0.14200000  0.76200000  1.0 -0.0892435921
C  C35  1  0.85800000  0.77000000  0.26200000  1.0 -0.0892435921
C  C36  1  0.77000000  0.85800000  0.23800000  1.0 -0.0892435921
C  C37  1  0.07730000  0.17630000  0.74550000  1.0 -0.1208809143
C  C38  1  0.17630000  0.07730000  0.75450000  1.0 -0.1208809143
C  C39  1  0.92270000  0.82370000  0.25450000  1.0 -0.1208809143
C  C40  1  0.82370000  0.92270000  0.24550000  1.0 -0.1208809143
C  C41  1  0.07170000  0.16210000  0.78530000  1.0 0.0693212083
C  C42  1  0.16210000  0.07170000  0.71470000  1.0 0.0693212083
C  C43  1  0.92830000  0.83790000  0.21470000  1.0 0.0693212083
C  C44  1  0.83790000  0.92830000  0.28530000  1.0 0.0693212083
C  C45  1  0.19500000  0.25320000  0.80950000  1.0 -0.0110860815
C  C46  1  0.25320000  0.19500000  0.69050000  1.0 -0.0110860815
C  C47  1  0.80500000  0.74680000  0.19050000  1.0 -0.0110860815
C  C48  1  0.74680000  0.80500000  0.30950000  1.0 -0.0110860815
C  C49  1  0.36470000  0.48330000  0.68080000  1.0 -0.2876274058
C  C50  1  0.48330000  0.36470000  0.81920000  1.0 -0.2876274058
C  C51  1  0.63530000  0.51670000  0.31920000  1.0 -0.2876274058
C  C52  1  0.51670000  0.63530000  0.18080000  1.0 -0.2876274058
C  C53  1  0.43750000  0.67130000  0.58770000  1.0 -0.1105293931
C  C54  1  0.67130000  0.43750000  0.91230000  1.0 -0.1105293931
C  C55  1  0.56250000  0.32870000  0.41230000  1.0 -0.1105293931
C  C56  1  0.32870000  0.56250000  0.08770000  1.0 -0.1105293931
C  C57  1  0.42870000  0.60490000  0.62300000  1.0 -0.157697081
C  C58  1  0.60490000  0.42870000  0.87700000  1.0 -0.157697081
C  C59  1  0.57130000  0.39510000  0.37700000  1.0 -0.157697081
C  C60  1  0.39510000  0.57130000  0.12300000  1.0 -0.157697081
C  C61  1  0.36980000  0.55320000  0.63930000  1.0 0.0501365962
C  C62  1  0.55320000  0.36980000  0.86070000  1.0 0.0501365962
C  C63  1  0.63020000  0.44680000  0.36070000  1.0 0.0501365962
C  C64  1  0.44680000  0.63020000  0.13930000  1.0 0.0501365962
C  C65  1  0.31960000  0.56760000  0.62040000  1.0 0.139083622
C  C66  1  0.56760000  0.31960000  0.87960000  1.0 0.139083622
C  C67  1  0.68040000  0.43240000  0.37960000  1.0 0.139083622
C  C68  1  0.43240000  0.68040000  0.12040000  1.0 0.139083622
C  C69  1  0.32840000  0.63400000  0.58500000  1.0 0.0408316648
C  C70  1  0.63400000  0.32840000  0.91500000  1.0 0.0408316648
C  C71  1  0.67160000  0.36600000  0.41500000  1.0 0.0408316648
C  C72  1  0.36600000  0.67160000  0.08500000  1.0 0.0408316648
C  C73  1  0.38740000  0.68580000  0.56870000  1.0 -0.1777497897
C  C74  1  0.68580000  0.38740000  0.93130000  1.0 -0.1777497897
C  C75  1  0.61260000  0.31420000  0.43130000  1.0 -0.1777497897
C  C76  1  0.31420000  0.61260000  0.06870000  1.0 -0.1777497897
C  C77  1  0.08150000  0.34070000  0.68000000  1.0 -0.1372138418
C  C78  1  0.34070000  0.08150000  0.82000000  1.0 -0.1372138418
C  C79  1  0.91850000  0.65930000  0.32000000  1.0 -0.1372138418
C  C80  1  0.65930000  0.91850000  0.18000000  1.0 -0.1372138418
C  C81  1  0.13930000  0.40050000  0.66370000  1.0 -0.0710323981
C  C82  1  0.40050000  0.13930000  0.83630000  1.0 -0.0710323981
C  C83  1  0.86070000  0.59950000  0.33630000  1.0 -0.0710323981
C  C84  1  0.59950000  0.86070000  0.16370000  1.0 -0.0710323981
C  C85  1  0.13850000  0.40650000  0.62630000  1.0 0.0593814299
C  C86  1  0.40650000  0.13850000  0.87370000  1.0 0.0593814299
C  C87  1  0.86150000  0.59350000  0.37370000  1.0 0.0501365962
C  C88  1  0.59350000  0.86150000  0.12630000  1.0 0.0593814299
C  C89  1  0.07880000  0.35880000  0.60090000  1.0 -0.0235972618
C  C90  1  0.35880000  0.07880000  0.89910000  1.0 -0.0235972618
C  C91  1  0.92120000  0.64120000  0.39910000  1.0 -0.0235972618
C  C92  1  0.64120000  0.92120000  0.10090000  1.0 -0.0235972618
C  C93  1  0.02200000  0.28980000  0.65590000  1.0 0.0795165334
C  C94  1  0.28980000  0.02200000  0.84410000  1.0 0.0795165334
C  C95  1  0.97800000  0.71020000  0.34410000  1.0 0.0795165334
C  C96  1  0.71020000  0.97800000  0.15590000  1.0 0.0795165334
C  C97  1  0.20260000  0.47240000  0.60290000  1.0 -0.0710323981
C  C98  1  0.47240000  0.20260000  0.89710000  1.0 -0.0710323981
C  C99  1  0.79740000  0.52760000  0.39710000  1.0 -0.0710323981
C  C100  1  0.52760000  0.79740000  0.10290000  1.0 -0.0710323981
C  C101  1  0.27590000  0.65290000  0.56510000  1.0 -0.2782478103
C  C102  1  0.65290000  0.27590000  0.93490000  1.0 -0.2782478103
C  C103  1  0.72410000  0.34710000  0.43490000  1.0 -0.2782478103
C  C104  1  0.34710000  0.72410000  0.06510000  1.0 -0.2782478103
C  C105  1  0.37400000  0.78400000  0.62350000  1.0 -0.1208809143
C  C106  1  0.78400000  0.37400000  0.87650000  1.0 -0.1208809143
C  C107  1  0.62600000  0.21600000  0.37650000  1.0 -0.1208809143
C  C108  1  0.21600000  0.62600000  0.12350000  1.0 -0.1208809143
C  C109  1  0.35120000  0.75400000  0.59400000  1.0 -0.1777497897
C  C110  1  0.75400000  0.35120000  0.90600000  1.0 -0.1777497897
C  C111  1  0.64880000  0.24600000  0.40600000  1.0 -0.1777497897
C  C112  1  0.24600000  0.64880000  0.09400000  1.0 -0.1777497897
C  C113  1  0.29300000  0.68200000  0.59700000  1.0 0.0501365962
C  C114  1  0.68200000  0.29300000  0.90300000  1.0 0.0501365962
C  C115  1  0.70700000  0.31800000  0.40300000  1.0 0.0501365962
C  C116  1  0.31800000  0.70700000  0.09700000  1.0 0.0501365962
C  C117  1  0.25750000  0.64010000  0.62930000  1.0 0.1196594392
C  C118  1  0.64010000  0.25750000  0.87070000  1.0 0.1196594392
C  C119  1  0.74250000  0.35990000  0.37070000  1.0 0.1196594392
C  C120  1  0.35990000  0.74250000  0.12930000  1.0 0.1196594392
C  C121  1  0.28010000  0.67010000  0.65860000  1.0 0.0408316648
C  C122  1  0.67010000  0.28010000  0.84140000  1.0 0.0408316648
C  C123  1  0.71990000  0.32990000  0.34140000  1.0 0.0408316648
C  C124  1  0.32990000  0.71990000  0.15860000  1.0 0.0408316648
C  C125  1  0.33840000  0.74200000  0.65570000  1.0 -0.1777497897
C  C126  1  0.74200000  0.33840000  0.84430000  1.0 -0.1777497897
C  C127  1  0.66160000  0.25800000  0.34430000  1.0 -0.1777497897
C  C128  1  0.25800000  0.66160000  0.15570000  1.0 -0.1777497897
C  C129  1  0.12920000  0.56200000  0.60680000  1.0 -0.0800442802
C  C130  1  0.56200000  0.12920000  0.89320000  1.0 -0.0800442802
C  C131  1  0.87080000  0.43800000  0.39320000  1.0 -0.0800442802
C  C132  1  0.43800000  0.87080000  0.10680000  1.0 -0.0800442802
C  C133  1  0.10570000  0.58530000  0.55220000  1.0 0.0501365962
C  C134  1  0.58530000  0.10570000  0.94780000  1.0 0.0501365962
C  C135  1  0.89430000  0.41470000  0.44780000  1.0 0.0501365962
C  C136  1  0.41470000  0.89430000  0.05220000  1.0 0.0501365962
C  C137  1  0.08910000  0.55110000  0.53020000  1.0 -0.1032869388
C  C138  1  0.55110000  0.08910000  0.96980000  1.0 -0.1032869388
C  C139  1  0.91090000  0.44890000  0.46980000  1.0 -0.1032869388
C  C140  1  0.44890000  0.91090000  0.03020000  1.0 -0.1032869388
C  C141  1  0.08030000  0.57810000  0.48170000  1.0 -0.1372138418
C  C142  1  0.57810000  0.08030000  0.01830000  1.0 -0.1372138418
C  C143  1  0.91970000  0.42190000  0.51830000  1.0 -0.1372138418
C  C144  1  0.42190000  0.91970000  0.98170000  1.0 -0.1372138418
C  C145  1  0.08070000  0.64590000  0.45390000  1.0 0.0501365962
C  C146  1  0.64590000  0.08070000  0.04610000  1.0 0.0501365962
C  C147  1  0.91930000  0.35410000  0.54610000  1.0 0.0501365962
C  C148  1  0.35410000  0.91930000  0.95390000  1.0 0.0501365962
C  C149  1  0.11000000  0.65420000  0.52400000  1.0 0.0260728547
C  C150  1  0.65420000  0.11000000  0.97600000  1.0 0.0260728547
C  C151  1  0.89000000  0.34580000  0.47600000  1.0 0.0260728547
C  C152  1  0.34580000  0.89000000  0.02400000  1.0 0.0260728547
C  C153  1  0.25310000  0.62390000  0.69990000  1.0 -0.2704664463
C  C154  1  0.62390000  0.25310000  0.80010000  1.0 -0.2704664463
C  C155  1  0.74690000  0.37610000  0.30010000  1.0 -0.2704664463
C  C156  1  0.37610000  0.74690000  0.19990000  1.0 -0.2704664463
C  C157  1  0.42270000  0.63610000  0.81270000  1.0 -0.1208809143
C  C158  1  0.63610000  0.42270000  0.68730000  1.0 -0.1208809143
C  C159  1  0.57730000  0.36390000  0.18730000  1.0 -0.1208809143
C  C160  1  0.36390000  0.57730000  0.31270000  1.0 -0.1208809143
C  C161  1  0.37020000  0.65160000  0.77380000  1.0 -0.1777497897
C  C162  1  0.65160000  0.37020000  0.72620000  1.0 -0.1777497897
C  C163  1  0.62980000  0.34840000  0.22620000  1.0 -0.1777497897
C  C164  1  0.34840000  0.62980000  0.27380000  1.0 -0.1777497897
C  C165  1  0.30750000  0.60310000  0.74820000  1.0 0.0408316648
C  C166  1  0.60310000  0.30750000  0.75180000  1.0 0.0408316648
C  C167  1  0.69250000  0.39690000  0.25180000  1.0 0.0408316648
C  C168  1  0.39690000  0.69250000  0.24820000  1.0 0.0408316648
C  C169  1  0.29750000  0.53890000  0.76180000  1.0 0.1299459543
C  C170  1  0.53890000  0.29750000  0.73820000  1.0 0.1299459543
C  C171  1  0.70250000  0.46110000  0.23820000  1.0 0.1299459543
C  C172  1  0.46110000  0.70250000  0.26180000  1.0 0.1299459543
C  C173  1  0.34990000  0.52330000  0.80070000  1.0 0.0501365962
C  C174  1  0.52330000  0.34990000  0.69930000  1.0 0.0501365962
C  C175  1  0.65010000  0.47670000  0.19930000  1.0 0.0501365962
C  C176  1  0.47670000  0.65010000  0.30070000  1.0 0.0501365962
C  C177  1  0.41250000  0.57190000  0.82610000  1.0 -0.1777497897
C  C178  1  0.57190000  0.41250000  0.67390000  1.0 -0.1777497897
C  C179  1  0.58750000  0.42810000  0.17390000  1.0 -0.1777497897
C  C180  1  0.42810000  0.58750000  0.32610000  1.0 -0.1777497897
C  C181  1  0.17280000  0.44360000  0.76070000  1.0 -0.0892435921
C  C182  1  0.44360000  0.17280000  0.73930000  1.0 -0.0892435921
C  C183  1  0.82720000  0.55640000  0.23930000  1.0 -0.0892435921
C  C184  1  0.55640000  0.82720000  0.26070000  1.0 -0.0892435921
C  C185  1  0.18790000  0.39950000  0.80900000  1.0 0.0408316648
C  C186  1  0.39950000  0.18790000  0.69100000  1.0 0.0408316648
C  C187  1  0.81210000  0.60050000  0.19100000  1.0 0.0408316648
C  C188  1  0.60050000  0.81210000  0.30900000  1.0 0.0408316648
C  C189  1  0.23210000  0.42350000  0.84790000  1.0 -0.1032869388
C  C190  1  0.42350000  0.23210000  0.65210000  1.0 -0.1032869388
C  C191  1  0.76790000  0.57650000  0.15210000  1.0 -0.1032869388
C  C192  1  0.57650000  0.76790000  0.34790000  1.0 -0.1032869388
C  C193  1  0.25030000  0.37510000  0.89630000  1.0 -0.1482741504
C  C194  1  0.37510000  0.25030000  0.60370000  1.0 -0.1482741504
C  C195  1  0.74970000  0.62490000  0.10370000  1.0 -0.1482741504
C  C196  1  0.62490000  0.74970000  0.39630000  1.0 -0.1482741504
C  C197  1  0.21510000  0.30510000  0.90100000  1.0 0.0501365962
C  C198  1  0.30510000  0.21510000  0.59900000  1.0 0.0501365962
C  C199  1  0.78490000  0.69490000  0.09900000  1.0 0.0501365962
C  C200  1  0.69490000  0.78490000  0.40100000  1.0 0.0501365962
C  C201  1  0.15440000  0.32420000  0.82160000  1.0 0.0101116625
C  C202  1  0.32420000  0.15440000  0.67840000  1.0 0.0101116625
C  C203  1  0.84560000  0.67580000  0.17840000  1.0 0.0101116625
C  C204  1  0.67580000  0.84560000  0.32160000  1.0 0.0101116625
C  C205  1  0.34770000  0.45550000  0.81540000  1.0 -0.2704664463
C  C206  1  0.45550000  0.34770000  0.68460000  1.0 -0.2704664463
C  C207  1  0.65230000  0.54450000  0.18460000  1.0 -0.2704664463
C  C208  1  0.54450000  0.65230000  0.31540000  1.0 -0.2704664463
C  C209  1  0.60980000  0.70500000  0.82260000  1.0 -0.1105293931
C  C210  1  0.70500000  0.60980000  0.67740000  1.0 -0.1105293931
C  C211  1  0.39020000  0.29500000  0.17740000  1.0 -0.1105293931
C  C212  1  0.29500000  0.39020000  0.32260000  1.0 -0.1105293931
C  C213  1  0.64420000  0.71560000  0.86590000  1.0 -0.1777497897
C  C214  1  0.71560000  0.64420000  0.63410000  1.0 -0.1777497897
C  C215  1  0.35580000  0.28440000  0.13410000  1.0 -0.1777497897
C  C216  1  0.28440000  0.35580000  0.36590000  1.0 -0.1777497897
C  C217  1  0.71960000  0.75300000  0.88600000  1.0 0.0501365962
C  C218  1  0.75300000  0.71960000  0.61400000  1.0 0.0501365962
C  C219  1  0.28040000  0.24700000  0.11400000  1.0 0.0501365962
C  C220  1  0.24700000  0.28040000  0.38600000  1.0 0.0501365962
C  C221  1  0.76080000  0.77980000  0.86280000  1.0 0.1196594392
C  C222  1  0.77980000  0.76080000  0.63720000  1.0 0.1196594392
C  C223  1  0.23920000  0.22020000  0.13720000  1.0 0.1196594392
C  C224  1  0.22020000  0.23920000  0.36280000  1.0 0.1196594392
C  C225  1  0.72640000  0.76920000  0.81940000  1.0 0.0593814299
C  C226  1  0.76920000  0.72640000  0.68060000  1.0 0.0593814299
C  C227  1  0.27360000  0.23080000  0.18060000  1.0 0.0593814299
C  C228  1  0.23080000  0.27360000  0.31940000  1.0 0.0593814299
C  C229  1  0.65090000  0.73190000  0.79930000  1.0 -0.1691844585
C  C230  1  0.73190000  0.65090000  0.70070000  1.0 -0.1691844585
C  C231  1  0.34910000  0.26810000  0.20070000  1.0 -0.1691844585
C  C232  1  0.26810000  0.34910000  0.29930000  1.0 -0.1691844585
C  C233  1  0.87000000  0.89480000  0.86680000  1.0 -0.0710323981
C  C234  1  0.89480000  0.87000000  0.63320000  1.0 -0.0710323981
C  C235  1  0.13000000  0.10520000  0.13320000  1.0 -0.0710323981
C  C236  1  0.10520000  0.13000000  0.36680000  1.0 -0.0710323981
C  C237  1  0.94600000  0.93080000  0.88810000  1.0 0.0408316648
C  C238  1  0.93080000  0.94600000  0.61190000  1.0 0.0408316648
C  C239  1  0.05400000  0.06920000  0.11190000  1.0 0.0408316648
C  C240  1  0.06920000  0.05400000  0.38810000  1.0 0.0408316648
C  C241  1  0.98640000  0.90220000  0.91880000  1.0 -0.0638914615
C  C242  1  0.90220000  0.98640000  0.58120000  1.0 -0.0638914615
C  C243  1  0.01360000  0.09780000  0.08120000  1.0 -0.0638914615
C  C244  1  0.09780000  0.01360000  0.41880000  1.0 -0.0638914615
C  C245  1  0.06060000  0.94120000  0.93810000  1.0 -0.1482741504
C  C246  1  0.94120000  0.06060000  0.56190000  1.0 -0.1482741504
C  C247  1  0.93940000  0.05880000  0.06190000  1.0 -0.1482741504
C  C248  1  0.05880000  0.93940000  0.43810000  1.0 -0.1482741504
C  C249  1  0.09490000  0.01790000  0.92270000  1.0 0.0693212083
C  C250  1  0.01790000  0.09490000  0.57730000  1.0 0.0693212083
C  C251  1  0.90510000  0.98210000  0.07730000  1.0 0.0693212083
C  C252  1  0.98210000  0.90510000  0.42270000  1.0 0.0693212083
C  C253  1  0.98580000  0.00580000  0.87600000  1.0 0.0101116625
C  C254  1  0.00580000  0.98580000  0.62400000  1.0 0.0101116625
C  C255  1  0.01420000  0.99420000  0.12400000  1.0 0.0101116625
C  C256  1  0.99420000  0.01420000  0.37600000  1.0 0.0101116625
C  C257  1  0.77410000  0.79430000  0.79630000  1.0 -0.2603861427
C  C258  1  0.79430000  0.77410000  0.70370000  1.0 -0.2603861427
C  C259  1  0.22590000  0.20570000  0.20370000  1.0 -0.2603861427
C  C260  1  0.20570000  0.22590000  0.29630000  1.0 -0.2603861427
C  C261  1  0.73430000  0.61150000  0.83080000  1.0 -0.1105293931
C  C262  1  0.61150000  0.73430000  0.66920000  1.0 -0.1105293931
C  C263  1  0.26570000  0.38850000  0.16920000  1.0 -0.1105293931
C  C264  1  0.38850000  0.26570000  0.33080000  1.0 -0.1105293931
C  C265  1  0.72560000  0.66760000  0.80820000  1.0 -0.1777497897
C  C266  1  0.66760000  0.72560000  0.69180000  1.0 -0.1777497897
C  C267  1  0.27440000  0.33240000  0.19180000  1.0 -0.1777497897
C  C268  1  0.33240000  0.27440000  0.30820000  1.0 -0.1777497897
C  C269  1  0.78350000  0.73170000  0.81940000  1.0 0.0693212083
C  C270  1  0.73170000  0.78350000  0.68060000  1.0 0.0693212083
C  C271  1  0.21650000  0.26830000  0.18060000  1.0 0.0693212083
C  C272  1  0.26830000  0.21650000  0.31940000  1.0 0.0693212083
C  C273  1  0.85010000  0.73970000  0.85330000  1.0 0.1196594392
C  C274  1  0.73970000  0.85010000  0.64670000  1.0 0.1196594392
C  C275  1  0.14990000  0.26030000  0.14670000  1.0 0.1196594392
C  C276  1  0.26030000  0.14990000  0.35330000  1.0 0.1196594392
C  C277  1  0.85880000  0.68360000  0.87590000  1.0 0.0593814299
C  C278  1  0.68360000  0.85880000  0.62410000  1.0 0.0593814299
C  C279  1  0.14120000  0.31640000  0.12410000  1.0 0.0593814299
C  C280  1  0.31640000  0.14120000  0.37590000  1.0 0.0593814299
C  C281  1  0.80090000  0.61950000  0.86470000  1.0 -0.1691844585
C  C282  1  0.61950000  0.80090000  0.63530000  1.0 -0.1691844585
C  C283  1  0.19910000  0.38050000  0.13530000  1.0 -0.1691844585
C  C284  1  0.38050000  0.19910000  0.36470000  1.0 -0.1691844585
C  C285  1  0.94480000  0.85380000  0.82080000  1.0 -0.0892435921
C  C286  1  0.85380000  0.94480000  0.67920000  1.0 -0.0892435921
C  C287  1  0.05520000  0.14620000  0.17920000  1.0 -0.0892435921
C  C288  1  0.14620000  0.05520000  0.32080000  1.0 -0.0892435921
C  C289  1  0.02160000  0.90840000  0.83820000  1.0 0.0795165334
C  C290  1  0.90840000  0.02160000  0.66180000  1.0 0.0795165334
C  C291  1  0.97840000  0.09160000  0.16180000  1.0 0.0795165334
C  C292  1  0.09160000  0.97840000  0.33820000  1.0 0.0795165334
C  C293  1  0.04900000  0.98280000  0.82610000  1.0 -0.0892435921
C  C294  1  0.98280000  0.04900000  0.67390000  1.0 -0.0892435921
C  C295  1  0.95100000  0.01720000  0.17390000  1.0 -0.0892435921
C  C296  1  0.01720000  0.95100000  0.32610000  1.0 -0.0892435921
C  C297  1  0.12190000  0.03330000  0.84180000  1.0 -0.1296645733
C  C298  1  0.03330000  0.12190000  0.65820000  1.0 -0.1296645733
C  C299  1  0.87810000  0.96670000  0.15820000  1.0 -0.1296645733
C  C300  1  0.96670000  0.87810000  0.34180000  1.0 -0.1296645733
C  C301  1  0.17230000  0.01590000  0.86980000  1.0 0.0408316648
C  C302  1  0.01590000  0.17230000  0.63020000  1.0 0.0408316648
C  C303  1  0.82770000  0.98410000  0.13020000  1.0 0.0408316648
C  C304  1  0.98410000  0.82770000  0.36980000  1.0 0.0408316648
C  C305  1  0.07460000  0.89020000  0.86900000  1.0 -0.0110860815
C  C306  1  0.89020000  0.07460000  0.63100000  1.0 -0.0110860815
C  C307  1  0.92540000  0.10980000  0.13100000  1.0 -0.0110860815
C  C308  1  0.10980000  0.92540000  0.36900000  1.0 -0.0110860815
C  C309  1  0.92920000  0.68420000  0.92150000  1.0 -0.2603861427
C  C310  1  0.68420000  0.92920000  0.57850000  1.0 -0.2603861427
C  C311  1  0.07080000  0.31580000  0.07850000  1.0 -0.2603861427
C  C312  1  0.31580000  0.07080000  0.42150000  1.0 -0.2603861427
C  C313  1  0.83980000  0.50700000  0.01960000  1.0 -0.1105293931
C  C314  1  0.50700000  0.83980000  0.48040000  1.0 -0.1105293931
C  C315  1  0.16020000  0.49300000  0.98040000  1.0 -0.1105293931
C  C316  1  0.49300000  0.16020000  0.51960000  1.0 -0.1105293931
C  C317  1  0.86600000  0.55280000  0.98130000  1.0 -0.1903276512
C  C318  1  0.55280000  0.86600000  0.51870000  1.0 -0.1903276512
C  C319  1  0.13400000  0.44720000  0.01870000  1.0 -0.1903276512
C  C320  1  0.44720000  0.13400000  0.48130000  1.0 -0.1903276512
C  C321  1  0.90660000  0.62800000  0.96900000  1.0 0.0501365962
C  C322  1  0.62800000  0.90660000  0.53100000  1.0 0.0501365962
C  C323  1  0.09340000  0.37200000  0.03100000  1.0 0.0501365962
C  C324  1  0.37200000  0.09340000  0.46900000  1.0 0.0501365962
C  C325  1  0.92090000  0.65730000  0.99500000  1.0 0.1196594392
C  C326  1  0.65730000  0.92090000  0.50500000  1.0 0.1196594392
C  C327  1  0.07910000  0.34270000  0.00500000  1.0 0.1196594392
C  C328  1  0.34270000  0.07910000  0.49500000  1.0 0.1196594392
C  C329  1  0.89470000  0.61150000  0.03330000  1.0 0.0408316648
C  C330  1  0.61150000  0.89470000  0.46670000  1.0 0.0408316648
C  C331  1  0.10530000  0.38850000  0.96670000  1.0 0.0408316648
C  C332  1  0.38850000  0.10530000  0.53330000  1.0 0.0408316648
C  C333  1  0.85430000  0.53630000  0.04560000  1.0 -0.1691844585
C  C334  1  0.53630000  0.85430000  0.45440000  1.0 -0.1691844585
C  C335  1  0.14570000  0.46370000  0.95440000  1.0 -0.1691844585
C  C336  1  0.46370000  0.14570000  0.54560000  1.0 -0.1691844585
C  C337  1  0.04150000  0.75650000  0.02250000  1.0 -0.1105293931
C  C338  1  0.75650000  0.04150000  0.47750000  1.0 -0.1105293931
C  C339  1  0.95850000  0.24350000  0.97750000  1.0 -0.1105293931
C  C340  1  0.24350000  0.95850000  0.52250000  1.0 -0.1105293931
C  C341  1  0.07970000  0.75430000  0.01490000  1.0 0.0408316648
C  C342  1  0.75430000  0.07970000  0.48510000  1.0 0.0408316648
C  C343  1  0.92030000  0.24570000  0.98510000  1.0 0.0408316648
C  C344  1  0.24570000  0.92030000  0.51490000  1.0 0.0408316648
C  C345  1  0.07750000  0.68710000  0.03230000  1.0 -0.0800442802
C  C346  1  0.68710000  0.07750000  0.46770000  1.0 -0.0800442802
C  C347  1  0.92250000  0.31290000  0.96770000  1.0 -0.0800442802
C  C348  1  0.31290000  0.92250000  0.53230000  1.0 -0.0800442802
C  C349  1  0.11680000  0.69720000  0.01650000  1.0 -0.1208809143
C  C350  1  0.69720000  0.11680000  0.48350000  1.0 -0.1208809143
C  C351  1  0.88320000  0.30280000  0.98350000  1.0 -0.1208809143
C  C352  1  0.30280000  0.88320000  0.51650000  1.0 -0.1208809143
C  C353  1  0.15610000  0.75730000  0.98970000  1.0 0.0101116625
C  C354  1  0.75730000  0.15610000  0.51030000  1.0 0.0101116625
C  C355  1  0.84390000  0.24270000  0.01030000  1.0 0.0101116625
C  C356  1  0.24270000  0.84390000  0.48970000  1.0 0.0101116625
C  C357  1  0.13210000  0.82030000  0.98760000  1.0 0.0693212083
C  C358  1  0.82030000  0.13210000  0.51240000  1.0 0.0693212083
C  C359  1  0.86790000  0.17970000  0.01240000  1.0 0.0693212083
C  C360  1  0.17970000  0.86790000  0.48760000  1.0 0.0693212083
C  C361  1  0.90030000  0.63830000  0.06130000  1.0 -0.2511215492
C  C362  1  0.63830000  0.90030000  0.43870000  1.0 -0.2511215492
C  C363  1  0.09970000  0.36170000  0.93870000  1.0 -0.2603861427
C  C364  1  0.36170000  0.09970000  0.56130000  1.0 -0.2511215492
C  C365  1  0.70590000  0.56930000  0.02430000  1.0 -0.1032869388
C  C366  1  0.56930000  0.70590000  0.47570000  1.0 -0.1032869388
C  C367  1  0.29410000  0.43070000  0.97570000  1.0 -0.1032869388
C  C368  1  0.43070000  0.29410000  0.52430000  1.0 -0.1032869388
C  C369  1  0.77160000  0.57480000  0.04900000  1.0 -0.1691844585
C  C370  1  0.57480000  0.77160000  0.45100000  1.0 -0.1691844585
C  C371  1  0.22840000  0.42520000  0.95100000  1.0 -0.1691844585
C  C372  1  0.42520000  0.22840000  0.54900000  1.0 -0.1691844585
C  C373  1  0.83410000  0.64150000  0.03820000  1.0 0.0501365962
C  C374  1  0.64150000  0.83410000  0.46180000  1.0 0.0501365962
C  C375  1  0.16590000  0.35850000  0.96180000  1.0 0.0501365962
C  C376  1  0.35850000  0.16590000  0.53820000  1.0 0.0501365962
C  C377  1  0.83100000  0.70260000  0.00280000  1.0 0.1299459543
C  C378  1  0.70260000  0.83100000  0.49720000  1.0 0.1299459543
C  C379  1  0.16900000  0.29740000  0.99720000  1.0 0.1299459543
C  C380  1  0.29740000  0.16900000  0.50280000  1.0 0.1299459543
C  C381  1  0.76540000  0.69700000  0.97820000  1.0 0.0593814299
C  C382  1  0.69700000  0.76540000  0.52180000  1.0 0.0593814299
C  C383  1  0.23460000  0.30300000  0.02180000  1.0 0.0593814299
C  C384  1  0.30300000  0.23460000  0.47820000  1.0 0.0593814299
C  C385  1  0.70280000  0.63040000  0.98890000  1.0 -0.1691844585
C  C386  1  0.63040000  0.70280000  0.51110000  1.0 -0.1691844585
C  C387  1  0.29720000  0.36960000  0.01110000  1.0 -0.1691844585
C  C388  1  0.36960000  0.29720000  0.48890000  1.0 -0.1691844585
C  C389  1  0.94500000  0.80220000  0.02900000  1.0 -0.0638914615
C  C390  1  0.80220000  0.94500000  0.47100000  1.0 -0.0638914615
C  C391  1  0.05500000  0.19780000  0.97100000  1.0 -0.0638914615
C  C392  1  0.19780000  0.05500000  0.52900000  1.0 -0.0638914615
C  C393  1  0.90780000  0.94040000  0.98060000  1.0 0.0101116625
C  C394  1  0.94040000  0.90780000  0.51940000  1.0 0.0101116625
C  C395  1  0.09220000  0.05960000  0.01940000  1.0 0.0101116625
C  C396  1  0.05960000  0.09220000  0.48060000  1.0 0.0101116625
C  C397  1  0.92780000  0.90540000  0.98480000  1.0 -0.1372138418
C  C398  1  0.90540000  0.92780000  0.51520000  1.0 -0.1372138418
C  C399  1  0.07220000  0.09460000  0.01520000  1.0 -0.1372138418
C  C400  1  0.09460000  0.07220000  0.48480000  1.0 -0.1372138418
C  C401  1  0.93300000  0.84780000  0.02600000  1.0 0.0260728547
C  C402  1  0.84780000  0.93300000  0.47400000  1.0 0.0260728547
C  C403  1  0.06700000  0.15220000  0.97400000  1.0 0.0260728547
C  C404  1  0.15220000  0.06700000  0.52600000  1.0 0.0260728547
C  C405  1  0.92110000  0.83350000  0.06160000  1.0 -0.0110860815
C  C406  1  0.83350000  0.92110000  0.43840000  1.0 -0.0110860815
C  C407  1  0.07890000  0.16650000  0.93840000  1.0 -0.0110860815
C  C408  1  0.16650000  0.07890000  0.56160000  1.0 -0.0110860815
C  C409  1  0.89530000  0.92170000  0.01840000  1.0 0.0101116625
C  C410  1  0.92170000  0.89530000  0.48160000  1.0 0.0101116625
C  C411  1  0.10470000  0.07830000  0.98160000  1.0 0.0101116625
C  C412  1  0.07830000  0.10470000  0.51840000  1.0 0.0101116625
C  C413  1  0.75790000  0.76150000  0.93510000  1.0 -0.2704664463
C  C414  1  0.76150000  0.75790000  0.56490000  1.0 -0.2704664463
C  C415  1  0.24210000  0.23850000  0.06490000  1.0 -0.2704664463
C  C416  1  0.23850000  0.24210000  0.43510000  1.0 -0.2704664463
C  C417  1  0.29350000  0.00250000  0.99380000  1.0 0.405237787
C  C418  1  0.00250000  0.29350000  0.50620000  1.0 0.4045909276
C  C419  1  0.70650000  0.99750000  0.00620000  1.0 0.4045909276
C  C420  1  0.99750000  0.70650000  0.49380000  1.0 0.4045909276
C  C421  1  0.31510000  0.03990000  0.02130000  1.0 -0.4592501087
C  C422  1  0.03990000  0.31510000  0.47870000  1.0 -0.4592501087
C  C423  1  0.68490000  0.96010000  0.97870000  1.0 -0.4592501087
C  C424  1  0.96010000  0.68490000  0.52130000  1.0 -0.4592501087
N  N1  1  0.12870000  0.19550000  0.81930000  1.0 -0.2199596087
N  N2  1  0.19550000  0.12870000  0.68070000  1.0 -0.2199596087
N  N3  1  0.87130000  0.80450000  0.18070000  1.0 -0.2199596087
N  N4  1  0.80450000  0.87130000  0.31930000  1.0 -0.2199596087
N  N5  1  0.01860000  0.29760000  0.61610000  1.0 -0.2199596087
N  N6  1  0.29760000  0.01860000  0.88390000  1.0 -0.2199596087
N  N7  1  0.98140000  0.70240000  0.38390000  1.0 -0.2199596087
N  N8  1  0.70240000  0.98140000  0.11610000  1.0 -0.2199596087
N  N9  1  0.09650000  0.68110000  0.47630000  1.0 -0.2097259754
N  N10  1  0.68110000  0.09650000  0.02370000  1.0 -0.2097259754
N  N11  1  0.90350000  0.31890000  0.52370000  1.0 -0.2097259754
N  N12  1  0.31890000  0.90350000  0.97630000  1.0 -0.2097259754
N  N13  1  0.16800000  0.27720000  0.86500000  1.0 -0.1903276512
N  N14  1  0.27720000  0.16800000  0.63500000  1.0 -0.1903276512
N  N15  1  0.83200000  0.72280000  0.13500000  1.0 -0.1903276512
N  N16  1  0.72280000  0.83200000  0.36500000  1.0 -0.1903276512
N  N17  1  0.05760000  0.04900000  0.89270000  1.0 -0.2097259754
N  N18  1  0.04900000  0.05760000  0.60730000  1.0 -0.2097259754
N  N19  1  0.94240000  0.95100000  0.10730000  1.0 -0.2097259754
N  N20  1  0.95100000  0.94240000  0.39270000  1.0 -0.2097259754
N  N21  1  0.14960000  0.94560000  0.88350000  1.0 -0.2511215492
N  N22  1  0.94560000  0.14960000  0.61650000  1.0 -0.2511215492
N  N23  1  0.85040000  0.05440000  0.11650000  1.0 -0.2511215492
N  N24  1  0.05440000  0.85040000  0.38350000  1.0 -0.2511215492
N  N25  1  0.16720000  0.82440000  0.97480000  1.0 -0.1903276512
N  N26  1  0.82440000  0.16720000  0.52520000  1.0 -0.1903276512
N  N27  1  0.83280000  0.17560000  0.02520000  1.0 -0.1903276512
N  N28  1  0.17560000  0.83280000  0.47480000  1.0 -0.1903276512
N  N29  1  0.90400000  0.86640000  0.06330000  1.0 -0.1978339163
N  N30  1  0.86640000  0.90400000  0.43670000  1.0 -0.1978339163
N  N31  1  0.09600000  0.13360000  0.93670000  1.0 -0.1978339163
N  N32  1  0.13360000  0.09600000  0.56330000  1.0 -0.1978339163
N  N33  1  0.27570000  0.97810000  0.97240000  1.0 -0.4592501087
N  N34  1  0.97810000  0.27570000  0.52760000  1.0 -0.4592501087
N  N35  1  0.72430000  0.02190000  0.02760000  1.0 -0.4592501087
N  N36  1  0.02190000  0.72430000  0.47240000  1.0 -0.4592501087
Cl  Cl1  1  0.14009000  0.96851000  0.26794000  1.0 1.2640874218
Cl  Cl2  1  0.96851000  0.14009000  0.23206000  1.0 1.2640874218
Cl  Cl3  1  0.85991000  0.03149000  0.73206000  1.0 1.2640874218
Cl  Cl4  1  0.03149000  0.85991000  0.76794000  1.0 1.2667301169
Cl  Cl5  1  0.79675000  0.66765000  0.39499000  1.0 1.2667301169
Cl  Cl6  1  0.66765000  0.79675000  0.10501000  1.0 1.2667301169
Cl  Cl7  1  0.20325000  0.33235000  0.60501000  1.0 1.2667301169
Cl  Cl8  1  0.33235000  0.20325000  0.89499000  1.0 1.2667301169
O  O1  1  0.28570000  0.40270000  0.74390000  1.0 -0.1691844585
O  O2  1  0.40270000  0.28570000  0.75610000  1.0 -0.1691844585
O  O3  1  0.71430000  0.59730000  0.25610000  1.0 -0.1691844585
O  O4  1  0.59730000  0.71430000  0.24390000  1.0 -0.1691844585
O  O5  1  0.26170000  0.51770000  0.63490000  1.0 -0.1482741504
O  O6  1  0.51770000  0.26170000  0.86510000  1.0 -0.1482741504
O  O7  1  0.73830000  0.48230000  0.36510000  1.0 -0.1482741504
O  O8  1  0.48230000  0.73830000  0.13490000  1.0 -0.1482741504
O  O9  1  0.19830000  0.56930000  0.62960000  1.0 -0.2097259754
O  O10  1  0.56930000  0.19830000  0.87040000  1.0 -0.2097259754
O  O11  1  0.80170000  0.43070000  0.37040000  1.0 -0.2097259754
O  O12  1  0.43070000  0.80170000  0.12960000  1.0 -0.2097259754
O  O13  1  0.23170000  0.48370000  0.74330000  1.0 -0.1978339163
O  O14  1  0.48370000  0.23170000  0.75670000  1.0 -0.1978339163
O  O15  1  0.76830000  0.51630000  0.25670000  1.0 -0.1978339163
O  O16  1  0.51630000  0.76830000  0.24330000  1.0 -0.1978339163
O  O17  1  0.83690000  0.81490000  0.88480000  1.0 -0.2097259754
O  O18  1  0.81490000  0.83690000  0.61520000  1.0 -0.2097259754
O  O19  1  0.16310000  0.18510000  0.11520000  1.0 -0.2097259754
O  O20  1  0.18510000  0.16310000  0.38480000  1.0 -0.2097259754
O  O21  1  0.91750000  0.80790000  0.86100000  1.0 -0.2199596087
O  O22  1  0.80790000  0.91750000  0.63900000  1.0 -0.2199596087
O  O23  1  0.08250000  0.19210000  0.13900000  1.0 -0.2199596087
O  O24  1  0.19210000  0.08250000  0.36100000  1.0 -0.2199596087
O  O25  1  0.96520000  0.73140000  0.98780000  1.0 -0.1978339163
O  O26  1  0.73140000  0.96520000  0.51220000  1.0 -0.1978339163
O  O27  1  0.03480000  0.26860000  0.01220000  1.0 -0.1978339163
O  O28  1  0.26860000  0.03480000  0.48780000  1.0 -0.1978339163
O  O29  1  0.89220000  0.77140000  0.99200000  1.0 -0.1296645733
O  O30  1  0.77140000  0.89220000  0.50800000  1.0 -0.1296645733
O  O31  1  0.10780000  0.22860000  0.00800000  1.0 -0.1296645733
O  O32  1  0.22860000  0.10780000  0.49200000  1.0 -0.1296645733
O  O33  1  0.17990000  0.85630000  0.89070000  1.0 -0.5092093417
O  O34  1  0.85630000  0.17990000  0.60930000  1.0 -0.5092093417
O  O35  1  0.82010000  0.14370000  0.10930000  1.0 -0.5092093417
O  O36  1  0.14370000  0.82010000  0.39070000  1.0 -0.5092093417
O  O37  1  0.01170000  0.15970000  0.83370000  1.0 -0.5573708186
O  O38  1  0.15970000  0.01170000  0.66630000  1.0 -0.5573708186
O  O39  1  0.98830000  0.84030000  0.16630000  1.0 -0.5573708186
O  O40  1  0.84030000  0.98830000  0.33370000  1.0 -0.5573708186
O  O41  1  0.21590000  0.17830000  0.92490000  1.0 -0.4395806518
O  O42  1  0.17830000  0.21590000  0.57510000  1.0 -0.4395806518
O  O43  1  0.78410000  0.82170000  0.07510000  1.0 -0.434436507
O  O44  1  0.82170000  0.78410000  0.42490000  1.0 -0.434436507
O  O45  1  0.09820000  0.89000000  0.29210000  1.0 -0.4164408663
O  O46  1  0.15060000  0.97520000  0.23240000  1.0 -0.4395806518
O  O47  1  0.20540000  0.99880000  0.30580000  1.0 -0.4395806518
O  O48  1  0.10030000  0.99810000  0.24380000  1.0 -0.4592501087
O  O49  1  0.89000000  0.09820000  0.20790000  1.0 -0.4164408663
O  O50  1  0.97520000  0.15060000  0.26760000  1.0 -0.4395806518
O  O51  1  0.99880000  0.20540000  0.19420000  1.0 -0.4395806518
O  O52  1  0.99810000  0.10030000  0.25620000  1.0 -0.4592501087
O  O53  1  0.90180000  0.11000000  0.70790000  1.0 -0.4164408663
O  O54  1  0.84940000  0.02480000  0.76760000  1.0 -0.4395806518
O  O55  1  0.79460000  0.00120000  0.69420000  1.0 -0.4395806518
O  O56  1  0.89970000  0.00190000  0.75620000  1.0 -0.4592501087
O  O57  1  0.11000000  0.90180000  0.79210000  1.0 -0.4164408663
O  O58  1  0.02480000  0.84940000  0.73240000  1.0 -0.4395806518
O  O59  1  0.00120000  0.79460000  0.80580000  1.0 -0.4395806518
O  O60  1  0.00190000  0.89970000  0.74380000  1.0 -0.4592501087
O  O61  1  0.79500000  0.67520000  0.35370000  1.0 -0.4940762887
O  O62  1  0.81190000  0.61330000  0.43560000  1.0 -0.4652489195
O  O63  1  0.73020000  0.64960000  0.38730000  1.0 -0.4395806518
O  O64  1  0.85370000  0.73670000  0.40590000  1.0 -0.4592501087
O  O65  1  0.67520000  0.79500000  0.14630000  1.0 -0.4940762887
O  O66  1  0.61330000  0.81190000  0.06440000  1.0 -0.4652489195
O  O67  1  0.64960000  0.73020000  0.11270000  1.0 -0.4395806518
O  O68  1  0.73670000  0.85370000  0.09410000  1.0 -0.4592501087
O  O69  1  0.20500000  0.32480000  0.64630000  1.0 -0.4940762887
O  O70  1  0.18810000  0.38670000  0.56440000  1.0 -0.4652489195
O  O71  1  0.26980000  0.35040000  0.61270000  1.0 -0.4395806518
O  O72  1  0.14630000  0.26330000  0.59410000  1.0 -0.4592501087
O  O73  1  0.32480000  0.20500000  0.85370000  1.0 -0.4940762887
O  O74  1  0.38670000  0.18810000  0.93560000  1.0 -0.4652489195
O  O75  1  0.35040000  0.26980000  0.88730000  1.0 -0.4395806518
O  O76  1  0.26330000  0.14630000  0.90590000  1.0 -0.4592501087
