# DDEC6 charges by PACMAN v1.1 (https://github.com/mtap-research/PACMAN-charge/)
data_AWEWOP_ASR_pacman
_symmetry_space_group_name_H-M   'P 1'
_cell_length_a   15.21830000
_cell_length_b   15.21830000
_cell_length_c   19.89700000
_cell_angle_alpha   63.21030000
_cell_angle_beta   116.79000000
_cell_angle_gamma   103.73500000
_symmetry_Int_Tables_number   1
_chemical_formula_structural   Cu3H25C54N3O20
_chemical_formula_sum   'Cu6 H50 C108 N6 O40'
_cell_volume   3668.55668249
_cell_formula_units_Z   2
loop_
 _symmetry_equiv_pos_site_id
 _symmetry_equiv_pos_as_xyz
  1  'x, y, z'
loop_
 _atom_site_type_symbol
 _atom_site_label
 _atom_site_symmetry_multiplicity
 _atom_site_fract_x
 _atom_site_fract_y
 _atom_site_fract_z
 _atom_site_occupancy
 _atom_site_charge
Cu  Cu1  1  0.43283000  0.56717000  0.95766000  1.0 0.828687055
Cu  Cu2  1  0.56717000  0.43283000  0.04234000  1.0 0.828687055
Cu  Cu3  1  0.56819000  0.00145000  0.47541000  1.0 0.8580686878
Cu  Cu4  1  0.00145000  0.56819000  0.52459000  1.0 0.8580686878
Cu  Cu5  1  0.43181000  0.99855000  0.52459000  1.0 0.8580686878
Cu  Cu6  1  0.99855000  0.43181000  0.47541000  1.0 0.8580686878
H  H1  1  0.46380000  0.23880000  0.23480000  1.0 0.1299309563
H  H2  1  0.23880000  0.46380000  0.76520000  1.0 0.1299309563
H  H3  1  0.53620000  0.76120000  0.76520000  1.0 0.1299309563
H  H4  1  0.76120000  0.53620000  0.23480000  1.0 0.1299309563
H  H5  1  0.24720000  0.43300000  0.09360000  1.0 0.1497356692
H  H6  1  0.43300000  0.24720000  0.90640000  1.0 0.1497356692
H  H7  1  0.75280000  0.56700000  0.90640000  1.0 0.1497356692
H  H8  1  0.56700000  0.75280000  0.09360000  1.0 0.1497356692
H  H9  1  0.25420000  0.22940000  0.31330000  1.0 0.1497356692
H  H10  1  0.22940000  0.25420000  0.68670000  1.0 0.1497356692
H  H11  1  0.74580000  0.77060000  0.68670000  1.0 0.1497356692
H  H12  1  0.77060000  0.74580000  0.31330000  1.0 0.1497356692
H  H13  1  0.06540000  0.50420000  0.29900000  1.0 0.123105865
H  H14  1  0.50420000  0.06540000  0.70100000  1.0 0.123105865
H  H15  1  0.93460000  0.49580000  0.70100000  1.0 0.123105865
H  H16  1  0.49580000  0.93460000  0.29900000  1.0 0.123105865
H  H17  1  0.89890000  0.54590000  0.22270000  1.0 0.1112220455
H  H18  1  0.54590000  0.89890000  0.77730000  1.0 0.1112220455
H  H19  1  0.10110000  0.45410000  0.77730000  1.0 0.1112220455
H  H20  1  0.45410000  0.10110000  0.22270000  1.0 0.1112220455
H  H21  1  0.80370000  0.52670000  0.09900000  1.0 0.1112220455
H  H22  1  0.52670000  0.80370000  0.90100000  1.0 0.1112220455
H  H23  1  0.19630000  0.47330000  0.90100000  1.0 0.1112220455
H  H24  1  0.47330000  0.19630000  0.09900000  1.0 0.1112220455
H  H25  1  0.87470000  0.45110000  0.05650000  1.0 0.123105865
H  H26  1  0.45110000  0.87470000  0.94350000  1.0 0.123105865
H  H27  1  0.12530000  0.54890000  0.94350000  1.0 0.123105865
H  H28  1  0.54890000  0.12530000  0.05650000  1.0 0.123105865
H  H29  1  0.23750000  0.76250000  0.46350000  1.0 0.1401927602
H  H30  1  0.76250000  0.23750000  0.53650000  1.0 0.1401927602
H  H31  1  0.44820000  0.77080000  0.38880000  1.0 0.1497356692
H  H32  1  0.77080000  0.44820000  0.61120000  1.0 0.1497356692
H  H33  1  0.55180000  0.22920000  0.61120000  1.0 0.1497356692
H  H34  1  0.22920000  0.55180000  0.38880000  1.0 0.1497356692
H  H35  1  0.56520000  0.45580000  0.24970000  1.0 0.1299309563
H  H36  1  0.45580000  0.56520000  0.75030000  1.0 0.1299309563
H  H37  1  0.43480000  0.54420000  0.75030000  1.0 0.1299309563
H  H38  1  0.54420000  0.43480000  0.24970000  1.0 0.1299309563
H  H39  1  0.49310000  0.61050000  0.20500000  1.0 0.1112220455
H  H40  1  0.61050000  0.49310000  0.79500000  1.0 0.1112220455
H  H41  1  0.50690000  0.38950000  0.79500000  1.0 0.1112220455
H  H42  1  0.38950000  0.50690000  0.20500000  1.0 0.1112220455
H  H43  1  0.49320000  0.33060000  0.44270000  1.0 0.123105865
H  H44  1  0.33060000  0.49320000  0.55730000  1.0 0.123105865
H  H45  1  0.50680000  0.66940000  0.55730000  1.0 0.123105865
H  H46  1  0.66940000  0.50680000  0.44270000  1.0 0.123105865
H  H47  1  0.58010000  0.32690000  0.37160000  1.0 0.1112220455
H  H48  1  0.32690000  0.58010000  0.62840000  1.0 0.1112220455
H  H49  1  0.41990000  0.67310000  0.62840000  1.0 0.1112220455
H  H50  1  0.67310000  0.41990000  0.37160000  1.0 0.1112220455
C  C1  1  0.41320000  0.13140000  0.36430000  1.0 0.5726608466
C  C2  1  0.13140000  0.41320000  0.63570000  1.0 0.5726608466
C  C3  1  0.58680000  0.86860000  0.63570000  1.0 0.5726608466
C  C4  1  0.86860000  0.58680000  0.36430000  1.0 0.5726608466
C  C5  1  0.36260000  0.21660000  0.28480000  1.0 0.0190222915
C  C6  1  0.21660000  0.36260000  0.71520000  1.0 0.0190222915
C  C7  1  0.63740000  0.78340000  0.71520000  1.0 0.0190222915
C  C8  1  0.78340000  0.63740000  0.28480000  1.0 0.0190222915
C  C9  1  0.40560000  0.26300000  0.22540000  1.0 -0.127706172
C  C10  1  0.26300000  0.40560000  0.77460000  1.0 -0.127706172
C  C11  1  0.59440000  0.73700000  0.77460000  1.0 -0.127706172
C  C12  1  0.73700000  0.59440000  0.22540000  1.0 -0.127706172
C  C13  1  0.36130000  0.34410000  0.15350000  1.0 0.0054372092
C  C14  1  0.34410000  0.36130000  0.84650000  1.0 0.0054372092
C  C15  1  0.63870000  0.65590000  0.84650000  1.0 0.0054372092
C  C16  1  0.65590000  0.63870000  0.15350000  1.0 0.0054372092
C  C17  1  0.41190000  0.39870000  0.09390000  1.0 0.5633890461
C  C18  1  0.39870000  0.41190000  0.90610000  1.0 0.5633890461
C  C19  1  0.58810000  0.60130000  0.90610000  1.0 0.5633890461
C  C20  1  0.60130000  0.58810000  0.09390000  1.0 0.5633890461
C  C21  1  0.27890000  0.37970000  0.14340000  1.0 -0.1593972612
C  C22  1  0.37970000  0.27890000  0.85660000  1.0 -0.1593972612
C  C23  1  0.72110000  0.62030000  0.85660000  1.0 -0.1593972612
C  C24  1  0.62030000  0.72110000  0.14340000  1.0 -0.1593972612
C  C25  1  0.24130000  0.34170000  0.20170000  1.0 0.2049817722
C  C26  1  0.34170000  0.24130000  0.79830000  1.0 0.2049817722
C  C27  1  0.75870000  0.65830000  0.79830000  1.0 0.2049817722
C  C28  1  0.65830000  0.75870000  0.20170000  1.0 0.2049817722
C  C29  1  0.28170000  0.25770000  0.27330000  1.0 -0.1495909151
C  C30  1  0.25770000  0.28170000  0.72670000  1.0 -0.1495909151
C  C31  1  0.71830000  0.74230000  0.72670000  1.0 -0.1495909151
C  C32  1  0.74230000  0.71830000  0.27330000  1.0 -0.1495909151
C  C33  1  0.16010000  0.41230000  0.24780000  1.0 0.4018789958
C  C34  1  0.41230000  0.16010000  0.75220000  1.0 0.4018789958
C  C35  1  0.83990000  0.58770000  0.75220000  1.0 0.4018789958
C  C36  1  0.58770000  0.83990000  0.24780000  1.0 0.4018789958
C  C37  1  0.06550000  0.45230000  0.21860000  1.0 -0.0263961097
C  C38  1  0.45230000  0.06550000  0.78140000  1.0 -0.0263961097
C  C39  1  0.93450000  0.54770000  0.78140000  1.0 -0.0263961097
C  C40  1  0.54770000  0.93450000  0.21860000  1.0 -0.0263961097
C  C41  1  0.02690000  0.49390000  0.24980000  1.0 -0.1035059616
C  C42  1  0.49390000  0.02690000  0.75020000  1.0 -0.1035059616
C  C43  1  0.97310000  0.50610000  0.75020000  1.0 -0.1035059616
C  C44  1  0.50610000  0.97310000  0.24980000  1.0 -0.1035059616
C  C45  1  0.92800000  0.51900000  0.20320000  1.0 -0.0786888469
C  C46  1  0.51900000  0.92800000  0.79680000  1.0 -0.0786888469
C  C47  1  0.07200000  0.48100000  0.79680000  1.0 -0.0786888469
C  C48  1  0.48100000  0.07200000  0.20320000  1.0 -0.0786888469
C  C49  1  0.86980000  0.50660000  0.13010000  1.0 -0.1035059616
C  C50  1  0.50660000  0.86980000  0.86990000  1.0 -0.1035059616
C  C51  1  0.13020000  0.49340000  0.86990000  1.0 -0.1035059616
C  C52  1  0.49340000  0.13020000  0.13010000  1.0 -0.1035059616
C  C53  1  0.91390000  0.46310000  0.10480000  1.0 -0.07030591
C  C54  1  0.46310000  0.91390000  0.89520000  1.0 -0.07030591
C  C55  1  0.08610000  0.53690000  0.89520000  1.0 -0.07030591
C  C56  1  0.53690000  0.08610000  0.10480000  1.0 -0.07030591
C  C57  1  0.01320000  0.43580000  0.14660000  1.0 -0.1035059616
C  C58  1  0.43580000  0.01320000  0.85340000  1.0 -0.1035059616
C  C59  1  0.98680000  0.56420000  0.85340000  1.0 -0.1035059616
C  C60  1  0.56420000  0.98680000  0.14660000  1.0 -0.1035059616
C  C61  1  0.07200000  0.39220000  0.13170000  1.0 0.4118249249
C  C62  1  0.39220000  0.07200000  0.86830000  1.0 0.4118249249
C  C63  1  0.92800000  0.60780000  0.86830000  1.0 0.4118249249
C  C64  1  0.60780000  0.92800000  0.13170000  1.0 0.4118249249
C  C65  1  0.40110000  0.86590000  0.44870000  1.0 0.5843089651
C  C66  1  0.86590000  0.40110000  0.55130000  1.0 0.5843089651
C  C67  1  0.59890000  0.13410000  0.55130000  1.0 0.5843089651
C  C68  1  0.13410000  0.59890000  0.44870000  1.0 0.5843089651
C  C69  1  0.26520000  0.73480000  0.44350000  1.0 -0.127706172
C  C70  1  0.73480000  0.26520000  0.55650000  1.0 -0.127706172
C  C71  1  0.35150000  0.77830000  0.42810000  1.0 0.0054372092
C  C72  1  0.77830000  0.35150000  0.57190000  1.0 0.0054372092
C  C73  1  0.64850000  0.22170000  0.57190000  1.0 0.0054372092
C  C74  1  0.22170000  0.64850000  0.42810000  1.0 0.0054372092
C  C75  1  0.39180000  0.73940000  0.40020000  1.0 -0.1593972612
C  C76  1  0.73940000  0.39180000  0.59980000  1.0 -0.1593972612
C  C77  1  0.60820000  0.26060000  0.59980000  1.0 -0.1593972612
C  C78  1  0.26060000  0.60820000  0.40020000  1.0 -0.1593972612
C  C79  1  0.34920000  0.65080000  0.38790000  1.0 0.1497356692
C  C80  1  0.65080000  0.34920000  0.61210000  1.0 0.1497356692
C  C81  1  0.45480000  0.54520000  0.30640000  1.0 0.0026197487
C  C82  1  0.54520000  0.45480000  0.69360000  1.0 0.0026197487
C  C83  1  0.53730000  0.46270000  0.28110000  1.0 -0.0649909247
C  C84  1  0.46270000  0.53730000  0.71890000  1.0 -0.0649909247
C  C85  1  0.41450000  0.63290000  0.29680000  1.0 0.2461610567
C  C86  1  0.63290000  0.41450000  0.70320000  1.0 0.2461610567
C  C87  1  0.58550000  0.36710000  0.70320000  1.0 0.2461610567
C  C88  1  0.36710000  0.58550000  0.29680000  1.0 0.2461610567
C  C89  1  0.49570000  0.55350000  0.25310000  1.0 -0.0786888469
C  C90  1  0.55350000  0.49570000  0.74690000  1.0 -0.0786888469
C  C91  1  0.50430000  0.44650000  0.74690000  1.0 -0.0786888469
C  C92  1  0.44650000  0.50430000  0.25310000  1.0 -0.0786888469
C  C93  1  0.54770000  0.38490000  0.35250000  1.0 -0.07030591
C  C94  1  0.38490000  0.54770000  0.64750000  1.0 -0.07030591
C  C95  1  0.45230000  0.61510000  0.64750000  1.0 -0.07030591
C  C96  1  0.61510000  0.45230000  0.35250000  1.0 -0.07030591
C  C97  1  0.49710000  0.38570000  0.39560000  1.0 -0.2496975791
C  C98  1  0.38570000  0.49710000  0.60440000  1.0 -0.2496975791
C  C99  1  0.50290000  0.61430000  0.60440000  1.0 -0.2496975791
C  C100  1  0.61430000  0.50290000  0.39560000  1.0 -0.2496975791
C  C101  1  0.45810000  0.46710000  0.37540000  1.0 -0.0429342184
C  C102  1  0.46710000  0.45810000  0.62460000  1.0 -0.0429342184
C  C103  1  0.54190000  0.53290000  0.62460000  1.0 -0.0429342184
C  C104  1  0.53290000  0.54190000  0.37540000  1.0 -0.0429342184
C  C105  1  0.41160000  0.50280000  0.40810000  1.0 0.1754311156
C  C106  1  0.50280000  0.41160000  0.59190000  1.0 0.1754311156
C  C107  1  0.58840000  0.49720000  0.59190000  1.0 0.1754311156
C  C108  1  0.49720000  0.58840000  0.40810000  1.0 0.1754311156
N  N1  1  0.16530000  0.38490000  0.19430000  1.0 -0.1845667157
N  N2  1  0.38490000  0.16530000  0.80570000  1.0 -0.1845667157
N  N3  1  0.83470000  0.61510000  0.80570000  1.0 -0.1845667157
N  N4  1  0.61510000  0.83470000  0.19430000  1.0 -0.1845667157
N  N5  1  0.39540000  0.60460000  0.36310000  1.0 -0.0649909247
N  N6  1  0.60460000  0.39540000  0.63690000  1.0 -0.0649909247
O  O1  1  0.37970000  0.47830000  0.03690000  1.0 -0.492980646
O  O2  1  0.47830000  0.37970000  0.96310000  1.0 -0.492980646
O  O3  1  0.62030000  0.52170000  0.96310000  1.0 -0.492980646
O  O4  1  0.52170000  0.62030000  0.03690000  1.0 -0.492980646
O  O5  1  0.49170000  0.36530000  0.11190000  1.0 -0.5028021652
O  O6  1  0.36530000  0.49170000  0.88810000  1.0 -0.5028021652
O  O7  1  0.50830000  0.63470000  0.88810000  1.0 -0.5028021652
O  O8  1  0.63470000  0.50830000  0.11190000  1.0 -0.5028021652
O  O9  1  0.49210000  0.10450000  0.37270000  1.0 -0.5231971908
O  O10  1  0.10450000  0.49210000  0.62730000  1.0 -0.5231971908
O  O11  1  0.50790000  0.89550000  0.62730000  1.0 -0.5231971908
O  O12  1  0.89550000  0.50790000  0.37270000  1.0 -0.5231971908
O  O13  1  0.37870000  0.09970000  0.41740000  1.0 -0.5028021652
O  O14  1  0.09970000  0.37870000  0.58260000  1.0 -0.5028021652
O  O15  1  0.62130000  0.90030000  0.58260000  1.0 -0.5028021652
O  O16  1  0.90030000  0.62130000  0.41740000  1.0 -0.5028021652
O  O17  1  0.23130000  0.41170000  0.31430000  1.0 -0.5028021652
O  O18  1  0.41170000  0.23130000  0.68570000  1.0 -0.5028021652
O  O19  1  0.76870000  0.58830000  0.68570000  1.0 -0.5028021652
O  O20  1  0.58830000  0.76870000  0.31430000  1.0 -0.5028021652
O  O21  1  0.05070000  0.37190000  0.07410000  1.0 -0.4013051335
O  O22  1  0.37190000  0.05070000  0.92590000  1.0 -0.4013051335
O  O23  1  0.94930000  0.62810000  0.92590000  1.0 -0.4013051335
O  O24  1  0.62810000  0.94930000  0.07410000  1.0 -0.4013051335
O  O25  1  0.48150000  0.90050000  0.43860000  1.0 -0.5272762347
O  O26  1  0.90050000  0.48150000  0.56140000  1.0 -0.5272762347
O  O27  1  0.51850000  0.09950000  0.56140000  1.0 -0.5272762347
O  O28  1  0.09950000  0.51850000  0.43860000  1.0 -0.5272762347
O  O29  1  0.36650000  0.89550000  0.48260000  1.0 -0.5272762347
O  O30  1  0.89550000  0.36650000  0.51740000  1.0 -0.5272762347
O  O31  1  0.63350000  0.10450000  0.51740000  1.0 -0.5272762347
O  O32  1  0.10450000  0.63350000  0.48260000  1.0 -0.5272762347
O  O33  1  0.40750000  0.44350000  0.47380000  1.0 -0.0199442822
O  O34  1  0.44350000  0.40750000  0.52620000  1.0 -0.0199442822
O  O35  1  0.59250000  0.55650000  0.52620000  1.0 -0.0199442822
O  O36  1  0.55650000  0.59250000  0.47380000  1.0 -0.0199442822
O  O37  1  0.39200000  0.71820000  0.24740000  1.0 -0.2950705755
O  O38  1  0.71820000  0.39200000  0.75260000  1.0 -0.2950705755
O  O39  1  0.60800000  0.28180000  0.75260000  1.0 -0.2950705755
O  O40  1  0.28180000  0.60800000  0.24740000  1.0 -0.2950705755
