# DDEC6 charges by PACMAN v1.1 (https://github.com/mtap-research/PACMAN-charge/)
data_AWOTIR_ASR_pacman
_symmetry_space_group_name_H-M   'P 1'
_cell_length_a   13.77040000
_cell_length_b   13.77040000
_cell_length_c   20.11600000
_cell_angle_alpha   71.64850000
_cell_angle_beta   108.35100000
_cell_angle_gamma   139.85600000
_symmetry_Int_Tables_number   1
_chemical_formula_structural   EuH2C9N3(OF)6
_chemical_formula_sum   'Eu4 H8 C36 N12 O24 F24'
_cell_volume   2316.95835821
_cell_formula_units_Z   4
loop_
 _symmetry_equiv_pos_site_id
 _symmetry_equiv_pos_as_xyz
  1  'x, y, z'
loop_
 _atom_site_type_symbol
 _atom_site_label
 _atom_site_symmetry_multiplicity
 _atom_site_fract_x
 _atom_site_fract_y
 _atom_site_fract_z
 _atom_site_occupancy
 _atom_site_charge
Eu  Eu1  1  0.19186000  0.50494000  0.69730000  1.0 1.7762685164
Eu  Eu2  1  0.50494000  0.19186000  0.80270000  1.0 1.7762685164
Eu  Eu3  1  0.80814000  0.49506000  0.30270000  1.0 1.7762685164
Eu  Eu4  1  0.49506000  0.80814000  0.19730000  1.0 1.7762685164
H  H1  1  0.78620000  0.45140000  0.55790000  1.0 0.3391555815
H  H2  1  0.96530000  0.99450000  0.74850000  1.0 0.2159273519
H  H3  1  0.45140000  0.78620000  0.94210000  1.0 0.3391555815
H  H4  1  0.99450000  0.96530000  0.75150000  1.0 0.2159273519
H  H5  1  0.21380000  0.54860000  0.44210000  1.0 0.3391555815
H  H6  1  0.03470000  0.00550000  0.25150000  1.0 0.2149887725
H  H7  1  0.54860000  0.21380000  0.05790000  1.0 0.3391555815
H  H8  1  0.00550000  0.03470000  0.24850000  1.0 0.2149887725
C  C1  1  0.84930000  0.30670000  0.77660000  1.0 0.1282489194
C  C2  1  0.73940000  0.33660000  0.69080000  1.0 -0.0216465744
C  C3  1  0.86890000  0.40310000  0.67210000  1.0 0.0137382794
C  C4  1  0.93340000  0.48260000  0.60430000  1.0 0.5836101516
C  C5  1  0.88800000  0.26600000  0.84740000  1.0 0.5487680628
C  C6  1  0.63910000  0.34490000  0.65230000  1.0 0.5487680628
C  C7  1  0.18990000  0.24010000  0.74320000  1.0 -0.0537326366
C  C8  1  0.03690000  0.16710000  0.73260000  1.0 0.5246436938
C  C9  1  0.30670000  0.84930000  0.72340000  1.0 0.1282489194
C  C10  1  0.33660000  0.73940000  0.80920000  1.0 -0.0216465744
C  C11  1  0.40310000  0.86890000  0.82790000  1.0 0.0137382794
C  C12  1  0.48260000  0.93340000  0.89570000  1.0 0.5836101516
C  C13  1  0.26600000  0.88800000  0.65260000  1.0 0.5487680628
C  C14  1  0.34490000  0.63910000  0.84770000  1.0 0.5487680628
C  C15  1  0.24010000  0.18990000  0.75680000  1.0 -0.0537326366
C  C16  1  0.16710000  0.03690000  0.76740000  1.0 0.5246436938
C  C17  1  0.57600000  0.57600000  0.75000000  1.0 0.3197116449
C  C18  1  0.42000000  0.42000000  0.75000000  1.0 0.109766998
C  C19  1  0.15070000  0.69330000  0.22340000  1.0 0.1282489194
C  C20  1  0.26060000  0.66340000  0.30920000  1.0 -0.0216465744
C  C21  1  0.13110000  0.59690000  0.32790000  1.0 0.0137382794
C  C22  1  0.06660000  0.51740000  0.39570000  1.0 0.5836101516
C  C23  1  0.11200000  0.73400000  0.15260000  1.0 0.5487680628
C  C24  1  0.36090000  0.65510000  0.34770000  1.0 0.5487680628
C  C25  1  0.81010000  0.75990000  0.25680000  1.0 -0.0537326366
C  C26  1  0.96310000  0.83290000  0.26740000  1.0 0.5246436938
C  C27  1  0.69330000  0.15070000  0.27660000  1.0 0.1282489194
C  C28  1  0.66340000  0.26060000  0.19080000  1.0 -0.0216465744
C  C29  1  0.59690000  0.13110000  0.17210000  1.0 0.0137382794
C  C30  1  0.51740000  0.06660000  0.10430000  1.0 0.5836101516
C  C31  1  0.73400000  0.11200000  0.34740000  1.0 0.5487680628
C  C32  1  0.65510000  0.36090000  0.15230000  1.0 0.5487680628
C  C33  1  0.75990000  0.81010000  0.24320000  1.0 -0.0537326366
C  C34  1  0.83290000  0.96310000  0.23260000  1.0 0.5251149877
C  C35  1  0.42400000  0.42400000  0.25000000  1.0 0.3197116449
C  C36  1  0.58000000  0.58000000  0.25000000  1.0 0.109766998
N  N1  1  0.94650000  0.39150000  0.72750000  1.0 -0.4080212594
N  N2  1  0.73140000  0.28460000  0.75760000  1.0 -0.400539668
N  N3  1  0.31010000  0.39990000  0.73630000  1.0 -0.4313706786
N  N4  1  0.39150000  0.94650000  0.77250000  1.0 -0.4080212594
N  N5  1  0.28460000  0.73140000  0.74240000  1.0 -0.400539668
N  N6  1  0.39990000  0.31010000  0.76370000  1.0 -0.4313706786
N  N7  1  0.05350000  0.60850000  0.27250000  1.0 -0.4080212594
N  N8  1  0.26860000  0.71540000  0.24240000  1.0 -0.400539668
N  N9  1  0.68990000  0.60010000  0.26370000  1.0 -0.4313706786
N  N10  1  0.60850000  0.05350000  0.22750000  1.0 -0.4080212594
N  N11  1  0.71540000  0.26860000  0.25760000  1.0 -0.400539668
N  N12  1  0.60010000  0.68990000  0.23630000  1.0 -0.4313706786
O  O1  1  0.86750000  0.49430000  0.54970000  1.0 -0.400539668
O  O2  1  0.05850000  0.52850000  0.60200000  1.0 -0.6702589647
O  O3  1  0.64460000  0.39660000  0.58430000  1.0 -0.5100599782
O  O4  1  0.53430000  0.29230000  0.68100000  1.0 -0.6213316427
O  O5  1  0.00720000  0.23800000  0.72180000  1.0 -0.581271793
O  O6  1  0.93200000  0.02800000  0.73840000  1.0 -0.3533264951
O  O7  1  0.49430000  0.86750000  0.95030000  1.0 -0.3909369862
O  O8  1  0.52850000  0.05850000  0.89800000  1.0 -0.6702589647
O  O9  1  0.39660000  0.64460000  0.91570000  1.0 -0.5100599782
O  O10  1  0.29230000  0.53430000  0.81900000  1.0 -0.6213316427
O  O11  1  0.23800000  0.00720000  0.77820000  1.0 -0.581271793
O  O12  1  0.02800000  0.93200000  0.76160000  1.0 -0.3533264951
O  O13  1  0.13250000  0.50570000  0.45030000  1.0 -0.3909369862
O  O14  1  0.94150000  0.47150000  0.39800000  1.0 -0.6702589647
O  O15  1  0.35540000  0.60340000  0.41570000  1.0 -0.5100599782
O  O16  1  0.46570000  0.70770000  0.31900000  1.0 -0.6213316427
O  O17  1  0.99280000  0.76200000  0.27820000  1.0 -0.581271793
O  O18  1  0.06800000  0.97200000  0.26160000  1.0 -0.3533264951
O  O19  1  0.50570000  0.13250000  0.04970000  1.0 -0.3909369862
O  O20  1  0.47150000  0.94150000  0.10200000  1.0 -0.6702589647
O  O21  1  0.60340000  0.35540000  0.08430000  1.0 -0.5100599782
O  O22  1  0.70770000  0.46570000  0.18100000  1.0 -0.6213316427
O  O23  1  0.76200000  0.99280000  0.22180000  1.0 -0.581271793
O  O24  1  0.97200000  0.06800000  0.23840000  1.0 -0.3533264951
F  F1  1  0.01130000  0.30470000  0.86150000  1.0 -0.2011104406
F  F2  1  0.77770000  0.11030000  0.86400000  1.0 -0.1899405227
F  F3  1  0.87630000  0.29970000  0.89730000  1.0 -0.2011104406
F  F4  1  0.64770000  0.61630000  0.81240000  1.0 0.0429856374
F  F5  1  0.66600000  0.59600000  0.72350000  1.0 0.0242239914
F  F6  1  0.60430000  0.69170000  0.71800000  1.0 0.076332648
F  F7  1  0.30470000  0.01130000  0.63850000  1.0 -0.2011104406
F  F8  1  0.11030000  0.77770000  0.63600000  1.0 -0.1899405227
F  F9  1  0.29970000  0.87630000  0.60270000  1.0 -0.2011104406
F  F10  1  0.61630000  0.64770000  0.68760000  1.0 0.0429856374
F  F11  1  0.59600000  0.66600000  0.77650000  1.0 0.0242239914
F  F12  1  0.69170000  0.60430000  0.78200000  1.0 0.076332648
F  F13  1  0.98870000  0.69530000  0.13850000  1.0 -0.2011104406
F  F14  1  0.22230000  0.88970000  0.13600000  1.0 -0.1899405227
F  F15  1  0.12370000  0.70030000  0.10270000  1.0 -0.2011104406
F  F16  1  0.35230000  0.38370000  0.18760000  1.0 0.0429856374
F  F17  1  0.33400000  0.40400000  0.27650000  1.0 0.0242239914
F  F18  1  0.39570000  0.30830000  0.28200000  1.0 0.076332648
F  F19  1  0.69530000  0.98870000  0.36150000  1.0 -0.2011104406
F  F20  1  0.88970000  0.22230000  0.36400000  1.0 -0.1899405227
F  F21  1  0.70030000  0.12370000  0.39730000  1.0 -0.2011104406
F  F22  1  0.38370000  0.35230000  0.31240000  1.0 0.0429856374
F  F23  1  0.40400000  0.33400000  0.22350000  1.0 0.0242239914
F  F24  1  0.30830000  0.39570000  0.21800000  1.0 0.076332648
