# DDEC6 charges by PACMAN v1.1 (https://github.com/mtap-research/PACMAN-charge/)
data_AWUPOZ_ASR_pacman
_symmetry_space_group_name_H-M   'P 1'
_cell_length_a   23.49390000
_cell_length_b   23.49540000
_cell_length_c   31.97240000
_cell_angle_alpha   90.00000000
_cell_angle_beta   90.00000000
_cell_angle_gamma   90.00000000
_symmetry_Int_Tables_number   1
_chemical_formula_structural   MnIn2H52C100(N3O8)2
_chemical_formula_sum   'Mn2 In4 H104 C200 N12 O32'
_cell_volume   17648.71933717
_cell_formula_units_Z   2
loop_
 _symmetry_equiv_pos_site_id
 _symmetry_equiv_pos_as_xyz
  1  'x, y, z'
loop_
 _atom_site_type_symbol
 _atom_site_label
 _atom_site_symmetry_multiplicity
 _atom_site_fract_x
 _atom_site_fract_y
 _atom_site_fract_z
 _atom_site_occupancy
 _atom_site_charge
Mn  Mn1  1  0.50000000  0.50000000  0.50000000  1.0 0.5412000072
Mn  Mn2  1  0.00000000  0.00000000  0.00000000  1.0 0.5412000072
In  In1  1  0.50000000  0.00000000  0.75001000  1.0 1.3778214672
In  In2  1  0.00000000  0.50000000  0.74999000  1.0 1.3778214672
In  In3  1  0.50000000  0.00000000  0.24999000  1.0 1.3778214672
In  In4  1  0.00000000  0.50000000  0.25001000  1.0 1.3778214672
H  H1  1  0.42830000  0.18870000  0.75990000  1.0 0.1353658834
H  H2  1  0.57170000  0.81130000  0.75990000  1.0 0.1319839125
H  H3  1  0.07170000  0.68870000  0.74010000  1.0 0.1353658834
H  H4  1  0.92830000  0.31130000  0.74010000  1.0 0.1353658834
H  H5  1  0.57170000  0.81130000  0.24010000  1.0 0.1353658834
H  H6  1  0.42830000  0.18870000  0.24010000  1.0 0.1353658834
H  H7  1  0.92830000  0.31130000  0.25990000  1.0 0.1353658834
H  H8  1  0.07170000  0.68870000  0.25990000  1.0 0.1353658834
H  H9  1  0.32130000  0.32130000  0.69460000  1.0 0.1194367422
H  H10  1  0.67870000  0.67870000  0.69460000  1.0 0.1194367422
H  H11  1  0.17870000  0.82130000  0.80540000  1.0 0.1194367422
H  H12  1  0.82130000  0.17870000  0.80540000  1.0 0.1194367422
H  H13  1  0.67870000  0.67870000  0.30540000  1.0 0.1194367422
H  H14  1  0.32130000  0.32130000  0.30540000  1.0 0.1194367422
H  H15  1  0.82130000  0.17870000  0.19460000  1.0 0.1194367422
H  H16  1  0.17870000  0.82130000  0.19460000  1.0 0.1194367422
H  H17  1  0.33030000  0.45150000  0.61500000  1.0 0.1319839125
H  H18  1  0.66970000  0.54850000  0.61500000  1.0 0.1319839125
H  H19  1  0.16970000  0.95150000  0.88500000  1.0 0.1319839125
H  H20  1  0.83030000  0.04850000  0.88500000  1.0 0.1319839125
H  H21  1  0.66970000  0.54850000  0.38500000  1.0 0.1319839125
H  H22  1  0.33030000  0.45150000  0.38500000  1.0 0.1319839125
H  H23  1  0.83030000  0.04850000  0.11500000  1.0 0.1319839125
H  H24  1  0.16970000  0.95150000  0.11500000  1.0 0.1319839125
H  H25  1  0.19040000  0.42890000  0.75960000  1.0 0.1353658834
H  H26  1  0.80960000  0.57110000  0.75960000  1.0 0.1353658834
H  H27  1  0.30960000  0.92890000  0.74040000  1.0 0.1353658834
H  H28  1  0.69040000  0.07110000  0.74040000  1.0 0.1353658834
H  H29  1  0.80960000  0.57110000  0.24040000  1.0 0.1353658834
H  H30  1  0.19040000  0.42890000  0.24040000  1.0 0.1353658834
H  H31  1  0.69040000  0.07110000  0.25960000  1.0 0.1353658834
H  H32  1  0.30960000  0.92890000  0.25960000  1.0 0.1353658834
H  H33  1  0.39320000  0.27660000  0.73410000  1.0 0.1148192046
H  H34  1  0.60680000  0.72340000  0.73410000  1.0 0.1148192046
H  H35  1  0.10680000  0.77660000  0.76590000  1.0 0.1148192046
H  H36  1  0.89320000  0.22340000  0.76590000  1.0 0.1148192046
H  H37  1  0.60680000  0.72340000  0.26590000  1.0 0.1148192046
H  H38  1  0.39320000  0.27660000  0.26590000  1.0 0.1148192046
H  H39  1  0.89320000  0.22340000  0.23410000  1.0 0.1148192046
H  H40  1  0.10680000  0.77660000  0.23410000  1.0 0.1148192046
H  H41  1  0.27430000  0.39050000  0.73450000  1.0 0.1194367422
H  H42  1  0.72570000  0.60950000  0.73450000  1.0 0.1194367422
H  H43  1  0.22570000  0.89050000  0.76550000  1.0 0.1194367422
H  H44  1  0.77430000  0.10950000  0.76550000  1.0 0.1194367422
H  H45  1  0.72570000  0.60950000  0.26550000  1.0 0.1194367422
H  H46  1  0.27430000  0.39050000  0.26550000  1.0 0.1194367422
H  H47  1  0.77430000  0.10950000  0.23450000  1.0 0.1194367422
H  H48  1  0.22570000  0.89050000  0.23450000  1.0 0.1194367422
H  H49  1  0.46550000  0.14020000  0.64320000  1.0 0.1319839125
H  H50  1  0.53450000  0.85980000  0.64320000  1.0 0.1319839125
H  H51  1  0.03450000  0.64020000  0.85680000  1.0 0.1319839125
H  H52  1  0.96550000  0.35980000  0.85680000  1.0 0.1319839125
H  H53  1  0.53450000  0.85980000  0.35680000  1.0 0.1319839125
H  H54  1  0.46550000  0.14020000  0.35680000  1.0 0.1319839125
H  H55  1  0.96550000  0.35980000  0.14320000  1.0 0.1319839125
H  H56  1  0.03450000  0.64020000  0.14320000  1.0 0.1319839125
H  H57  1  0.43750000  0.22870000  0.61820000  1.0 0.1194367422
H  H58  1  0.56250000  0.77130000  0.61820000  1.0 0.1194367422
H  H59  1  0.06250000  0.72870000  0.88180000  1.0 0.1194367422
H  H60  1  0.93750000  0.27130000  0.88180000  1.0 0.1194367422
H  H61  1  0.56250000  0.77130000  0.38180000  1.0 0.1194367422
H  H62  1  0.43750000  0.22870000  0.38180000  1.0 0.1194367422
H  H63  1  0.93750000  0.27130000  0.11820000  1.0 0.1194367422
H  H64  1  0.06250000  0.72870000  0.11820000  1.0 0.1194367422
H  H65  1  0.45190000  0.32950000  0.61480000  1.0 0.1319839125
H  H66  1  0.54810000  0.67050000  0.61480000  1.0 0.1319839125
H  H67  1  0.04810000  0.82950000  0.88520000  1.0 0.1319839125
H  H68  1  0.95190000  0.17050000  0.88520000  1.0 0.1319839125
H  H69  1  0.54810000  0.67050000  0.38520000  1.0 0.1319839125
H  H70  1  0.45190000  0.32950000  0.38520000  1.0 0.1319839125
H  H71  1  0.95190000  0.17050000  0.11480000  1.0 0.1319839125
H  H72  1  0.04810000  0.82950000  0.11480000  1.0 0.1319839125
H  H73  1  0.22720000  0.43780000  0.61820000  1.0 0.1194367422
H  H74  1  0.77280000  0.56220000  0.61820000  1.0 0.1194367422
H  H75  1  0.27280000  0.93780000  0.88180000  1.0 0.1194367422
H  H76  1  0.72720000  0.06220000  0.88180000  1.0 0.1194367422
H  H77  1  0.77280000  0.56220000  0.38180000  1.0 0.1194367422
H  H78  1  0.22720000  0.43780000  0.38180000  1.0 0.1194367422
H  H79  1  0.72720000  0.06220000  0.11820000  1.0 0.1194367422
H  H80  1  0.27280000  0.93780000  0.11820000  1.0 0.1194367422
H  H81  1  0.35110000  0.35150000  0.53840000  1.0 0.1319839125
H  H82  1  0.64890000  0.64850000  0.53840000  1.0 0.1319839125
H  H83  1  0.14890000  0.85150000  0.96160000  1.0 0.1319839125
H  H84  1  0.85110000  0.14850000  0.96160000  1.0 0.1319839125
H  H85  1  0.64890000  0.64850000  0.46160000  1.0 0.1319839125
H  H86  1  0.35110000  0.35150000  0.46160000  1.0 0.1319839125
H  H87  1  0.85110000  0.14850000  0.03840000  1.0 0.1319839125
H  H88  1  0.14890000  0.85150000  0.03840000  1.0 0.1319839125
H  H89  1  0.14070000  0.46710000  0.64390000  1.0 0.1319839125
H  H90  1  0.85930000  0.53290000  0.64390000  1.0 0.1319839125
H  H91  1  0.35930000  0.96710000  0.85610000  1.0 0.1319839125
H  H92  1  0.64070000  0.03290000  0.85610000  1.0 0.1319839125
H  H93  1  0.85930000  0.53290000  0.35610000  1.0 0.1319839125
H  H94  1  0.14070000  0.46710000  0.35610000  1.0 0.1319839125
H  H95  1  0.64070000  0.03290000  0.14390000  1.0 0.1319839125
H  H96  1  0.35930000  0.96710000  0.14390000  1.0 0.1319839125
H  H97  1  0.46290000  0.46410000  0.65460000  1.0 0.1319839125
H  H98  1  0.53710000  0.53590000  0.65460000  1.0 0.1319839125
H  H99  1  0.03710000  0.96410000  0.84540000  1.0 0.1319839125
H  H100  1  0.96290000  0.03590000  0.84540000  1.0 0.1319839125
H  H101  1  0.53710000  0.53590000  0.34540000  1.0 0.1319839125
H  H102  1  0.46290000  0.46410000  0.34540000  1.0 0.1319839125
H  H103  1  0.96290000  0.03590000  0.15460000  1.0 0.1319839125
H  H104  1  0.03710000  0.96410000  0.15460000  1.0 0.1319839125
C  C1  1  0.46801000  0.09864000  0.72049000  1.0 0.5412000072
C  C2  1  0.53199000  0.90136000  0.72049000  1.0 0.5412000072
C  C3  1  0.03199000  0.59864000  0.77951000  1.0 0.5412000072
C  C4  1  0.96801000  0.40136000  0.77951000  1.0 0.5412000072
C  C5  1  0.53199000  0.90136000  0.27951000  1.0 0.5412000072
C  C6  1  0.46801000  0.09864000  0.27951000  1.0 0.5412000072
C  C7  1  0.96801000  0.40136000  0.22049000  1.0 0.5412000072
C  C8  1  0.03199000  0.59864000  0.22049000  1.0 0.5412000072
C  C9  1  0.42675000  0.42669000  0.57532000  1.0 -0.0771926496
C  C10  1  0.57325000  0.57331000  0.57532000  1.0 -0.0771926496
C  C11  1  0.07325000  0.92669000  0.92468000  1.0 -0.0771926496
C  C12  1  0.92675000  0.07331000  0.92468000  1.0 -0.0771926496
C  C13  1  0.57325000  0.57331000  0.42468000  1.0 -0.0771926496
C  C14  1  0.42675000  0.42669000  0.42468000  1.0 -0.0771926496
C  C15  1  0.92675000  0.07331000  0.07532000  1.0 -0.0771926496
C  C16  1  0.07325000  0.92669000  0.07532000  1.0 -0.0771926496
C  C17  1  0.44880000  0.15612000  0.70376000  1.0 0.0052702167
C  C18  1  0.55120000  0.84388000  0.70376000  1.0 0.0052702167
C  C19  1  0.05120000  0.65612000  0.79624000  1.0 0.0052702167
C  C20  1  0.94880000  0.34388000  0.79624000  1.0 0.0052702167
C  C21  1  0.55120000  0.84388000  0.29624000  1.0 0.0052702167
C  C22  1  0.44880000  0.15612000  0.29624000  1.0 0.0038139232
C  C23  1  0.94880000  0.34388000  0.20376000  1.0 0.0052702167
C  C24  1  0.05120000  0.65612000  0.20376000  1.0 0.0052702167
C  C25  1  0.41064000  0.26062000  0.67391000  1.0 0.0704740987
C  C26  1  0.58936000  0.73938000  0.67391000  1.0 0.0704740987
C  C27  1  0.08936000  0.76062000  0.82609000  1.0 0.0704740987
C  C28  1  0.91064000  0.23938000  0.82609000  1.0 0.0704740987
C  C29  1  0.58936000  0.73938000  0.32609000  1.0 0.0704740987
C  C30  1  0.41064000  0.26062000  0.32609000  1.0 0.0704740987
C  C31  1  0.91064000  0.23938000  0.17391000  1.0 0.0704740987
C  C32  1  0.08936000  0.76062000  0.17391000  1.0 0.0704740987
C  C33  1  0.41435000  0.41494000  0.53498000  1.0 0.1886790575
C  C34  1  0.58565000  0.58506000  0.53498000  1.0 0.1886790575
C  C35  1  0.08565000  0.91494000  0.96502000  1.0 0.1886790575
C  C36  1  0.91435000  0.08506000  0.96502000  1.0 0.1886790575
C  C37  1  0.58565000  0.58506000  0.46502000  1.0 0.1886790575
C  C38  1  0.41435000  0.41494000  0.46502000  1.0 0.1886790575
C  C39  1  0.91435000  0.08506000  0.03498000  1.0 0.1886790575
C  C40  1  0.08565000  0.91494000  0.03498000  1.0 0.1886790575
C  C41  1  0.42860000  0.19620000  0.73139000  1.0 -0.0771926496
C  C42  1  0.57140000  0.80380000  0.73139000  1.0 -0.0771926496
C  C43  1  0.07140000  0.69620000  0.76861000  1.0 -0.0771926496
C  C44  1  0.92860000  0.30380000  0.76861000  1.0 -0.0771926496
C  C45  1  0.57140000  0.80380000  0.26861000  1.0 -0.0771926496
C  C46  1  0.42860000  0.19620000  0.26861000  1.0 -0.0771926496
C  C47  1  0.92860000  0.30380000  0.23139000  1.0 -0.0771926496
C  C48  1  0.07140000  0.69620000  0.23139000  1.0 -0.0771926496
C  C49  1  0.26056000  0.41037000  0.67403000  1.0 0.081528134
C  C50  1  0.73944000  0.58963000  0.67403000  1.0 0.081528134
C  C51  1  0.23944000  0.91037000  0.82597000  1.0 0.081528134
C  C52  1  0.76056000  0.08963000  0.82597000  1.0 0.081528134
C  C53  1  0.73944000  0.58963000  0.32597000  1.0 0.081528134
C  C54  1  0.26056000  0.41037000  0.32597000  1.0 0.081528134
C  C55  1  0.76056000  0.08963000  0.17403000  1.0 0.081528134
C  C56  1  0.23944000  0.91037000  0.17403000  1.0 0.081528134
C  C57  1  0.38794000  0.31538000  0.65700000  1.0 0.0893289645
C  C58  1  0.61206000  0.68462000  0.65700000  1.0 0.0893289645
C  C59  1  0.11206000  0.81538000  0.84300000  1.0 0.0893289645
C  C60  1  0.88794000  0.18462000  0.84300000  1.0 0.0893289645
C  C61  1  0.61206000  0.68462000  0.34300000  1.0 0.0893289645
C  C62  1  0.38794000  0.31538000  0.34300000  1.0 0.0893289645
C  C63  1  0.88794000  0.18462000  0.15700000  1.0 0.0893289645
C  C64  1  0.11206000  0.81538000  0.15700000  1.0 0.0893289645
C  C65  1  0.39504000  0.39488000  0.60981000  1.0 0.1148192046
C  C66  1  0.60496000  0.60512000  0.60981000  1.0 0.1148192046
C  C67  1  0.10496000  0.89488000  0.89019000  1.0 0.1194367422
C  C68  1  0.89504000  0.10512000  0.89019000  1.0 0.1194367422
C  C69  1  0.60496000  0.60512000  0.39019000  1.0 0.1148192046
C  C70  1  0.39504000  0.39488000  0.39019000  1.0 0.1148192046
C  C71  1  0.89504000  0.10512000  0.10981000  1.0 0.1148192046
C  C72  1  0.10496000  0.89488000  0.10981000  1.0 0.1148192046
C  C73  1  0.31525000  0.38749000  0.65673000  1.0 0.081528134
C  C74  1  0.68475000  0.61251000  0.65673000  1.0 0.081528134
C  C75  1  0.18475000  0.88749000  0.84327000  1.0 0.081528134
C  C76  1  0.81525000  0.11251000  0.84327000  1.0 0.081528134
C  C77  1  0.68475000  0.61251000  0.34327000  1.0 0.081528134
C  C78  1  0.31525000  0.38749000  0.34327000  1.0 0.081528134
C  C79  1  0.81525000  0.11251000  0.15673000  1.0 0.081528134
C  C80  1  0.18475000  0.88749000  0.15673000  1.0 0.081528134
C  C81  1  0.33919000  0.33916000  0.67228000  1.0 -0.1674060865
C  C82  1  0.66081000  0.66084000  0.67228000  1.0 -0.1674060865
C  C83  1  0.16081000  0.83916000  0.82772000  1.0 -0.1674060865
C  C84  1  0.83919000  0.16084000  0.82772000  1.0 -0.1674060865
C  C85  1  0.66081000  0.66084000  0.32772000  1.0 -0.1674060865
C  C86  1  0.33919000  0.33916000  0.32772000  1.0 -0.1674060865
C  C87  1  0.83919000  0.16084000  0.17228000  1.0 -0.1674060865
C  C88  1  0.16081000  0.83916000  0.17228000  1.0 -0.1674060865
C  C89  1  0.34448000  0.41733000  0.62529000  1.0 -0.2067834872
C  C90  1  0.65552000  0.58267000  0.62529000  1.0 -0.2067834872
C  C91  1  0.15552000  0.91733000  0.87471000  1.0 -0.2067834872
C  C92  1  0.84448000  0.08267000  0.87471000  1.0 -0.2067834872
C  C93  1  0.65552000  0.58267000  0.37471000  1.0 -0.2067834872
C  C94  1  0.34448000  0.41733000  0.37471000  1.0 -0.2067834872
C  C95  1  0.84448000  0.08267000  0.12529000  1.0 -0.2067834872
C  C96  1  0.15552000  0.91733000  0.12529000  1.0 -0.2067834872
C  C97  1  0.19720000  0.42840000  0.73094000  1.0 -0.0734226501
C  C98  1  0.80280000  0.57160000  0.73094000  1.0 -0.0734226501
C  C99  1  0.30280000  0.92840000  0.76906000  1.0 -0.0734226501
C  C100  1  0.69720000  0.07160000  0.76906000  1.0 -0.0734226501
C  C101  1  0.80280000  0.57160000  0.26906000  1.0 -0.0734226501
C  C102  1  0.19720000  0.42840000  0.26906000  1.0 -0.0734226501
C  C103  1  0.69720000  0.07160000  0.23094000  1.0 -0.0734226501
C  C104  1  0.30280000  0.92840000  0.23094000  1.0 -0.0734226501
C  C105  1  0.46738000  0.46801000  0.58890000  1.0 0.1886790575
C  C106  1  0.53262000  0.53199000  0.58890000  1.0 0.1886790575
C  C107  1  0.03262000  0.96801000  0.91110000  1.0 0.1886790575
C  C108  1  0.96738000  0.03199000  0.91110000  1.0 0.1886790575
C  C109  1  0.53262000  0.53199000  0.41110000  1.0 0.1886790575
C  C110  1  0.46738000  0.46801000  0.41110000  1.0 0.1886790575
C  C111  1  0.96738000  0.03199000  0.08890000  1.0 0.1886790575
C  C112  1  0.03262000  0.96801000  0.08890000  1.0 0.1886790575
C  C113  1  0.40808000  0.24970000  0.71579000  1.0 -0.1504723181
C  C114  1  0.59192000  0.75030000  0.71579000  1.0 -0.1504723181
C  C115  1  0.09192000  0.74970000  0.78421000  1.0 -0.1504723181
C  C116  1  0.90808000  0.25030000  0.78421000  1.0 -0.1504723181
C  C117  1  0.59192000  0.75030000  0.28421000  1.0 -0.1504723181
C  C118  1  0.40808000  0.24970000  0.28421000  1.0 -0.1504723181
C  C119  1  0.90808000  0.25030000  0.21579000  1.0 -0.1504723181
C  C120  1  0.09192000  0.74970000  0.21579000  1.0 -0.1504723181
C  C121  1  0.24837000  0.40700000  0.71620000  1.0 -0.1504723181
C  C122  1  0.75163000  0.59300000  0.71620000  1.0 -0.1504723181
C  C123  1  0.25163000  0.90700000  0.78380000  1.0 -0.1504723181
C  C124  1  0.74837000  0.09300000  0.78380000  1.0 -0.1504723181
C  C125  1  0.75163000  0.59300000  0.28380000  1.0 -0.1504723181
C  C126  1  0.24837000  0.40700000  0.28380000  1.0 -0.1504723181
C  C127  1  0.74837000  0.09300000  0.21620000  1.0 -0.1504723181
C  C128  1  0.25163000  0.90700000  0.21620000  1.0 -0.1504723181
C  C129  1  0.45170000  0.16756000  0.66157000  1.0 -0.0771926496
C  C130  1  0.54830000  0.83244000  0.66157000  1.0 -0.0771926496
C  C131  1  0.04830000  0.66756000  0.83843000  1.0 -0.0771926496
C  C132  1  0.95170000  0.33244000  0.83843000  1.0 -0.0771926496
C  C133  1  0.54830000  0.83244000  0.33843000  1.0 -0.0771926496
C  C134  1  0.45170000  0.16756000  0.33843000  1.0 -0.0771926496
C  C135  1  0.95170000  0.33244000  0.16157000  1.0 -0.0771926496
C  C136  1  0.04830000  0.66756000  0.16157000  1.0 -0.0771926496
C  C137  1  0.43390000  0.22020000  0.64655000  1.0 -0.1437531954
C  C138  1  0.56610000  0.77980000  0.64655000  1.0 -0.1437531954
C  C139  1  0.06610000  0.72020000  0.85345000  1.0 -0.1437531954
C  C140  1  0.93390000  0.27980000  0.85345000  1.0 -0.1437531954
C  C141  1  0.56610000  0.77980000  0.35345000  1.0 -0.1437531954
C  C142  1  0.43390000  0.22020000  0.35345000  1.0 -0.1437531954
C  C143  1  0.93390000  0.27980000  0.14655000  1.0 -0.1437531954
C  C144  1  0.06610000  0.72020000  0.14655000  1.0 -0.1437531954
C  C145  1  0.41790000  0.34395000  0.62525000  1.0 -0.2067834872
C  C146  1  0.58210000  0.65605000  0.62525000  1.0 -0.2067834872
C  C147  1  0.08210000  0.84395000  0.87475000  1.0 -0.2067834872
C  C148  1  0.91790000  0.15605000  0.87475000  1.0 -0.2067834872
C  C149  1  0.58210000  0.65605000  0.37475000  1.0 -0.2067834872
C  C150  1  0.41790000  0.34395000  0.37475000  1.0 -0.2067834872
C  C151  1  0.91790000  0.15605000  0.12525000  1.0 -0.2067834872
C  C152  1  0.08210000  0.84395000  0.12525000  1.0 -0.2067834872
C  C153  1  0.21928000  0.43440000  0.64656000  1.0 -0.1437531954
C  C154  1  0.78072000  0.56560000  0.64656000  1.0 -0.1437531954
C  C155  1  0.28072000  0.93440000  0.85344000  1.0 -0.1504723181
C  C156  1  0.71928000  0.06560000  0.85344000  1.0 -0.1504723181
C  C157  1  0.78072000  0.56560000  0.35344000  1.0 -0.1437531954
C  C158  1  0.21928000  0.43440000  0.35344000  1.0 -0.1437531954
C  C159  1  0.71928000  0.06560000  0.14656000  1.0 -0.1437531954
C  C160  1  0.28072000  0.93440000  0.14656000  1.0 -0.1504723181
C  C161  1  0.37367000  0.37413000  0.52128000  1.0 -0.1824962988
C  C162  1  0.62633000  0.62587000  0.52128000  1.0 -0.1824962988
C  C163  1  0.12633000  0.87413000  0.97872000  1.0 -0.1824962988
C  C164  1  0.87367000  0.12587000  0.97872000  1.0 -0.1824962988
C  C165  1  0.62633000  0.62587000  0.47872000  1.0 -0.1824962988
C  C166  1  0.37367000  0.37413000  0.47872000  1.0 -0.1824962988
C  C167  1  0.87367000  0.12587000  0.02128000  1.0 -0.1824962988
C  C168  1  0.12633000  0.87413000  0.02128000  1.0 -0.1824962988
C  C169  1  0.16787000  0.45240000  0.66208000  1.0 -0.0771926496
C  C170  1  0.83213000  0.54760000  0.66208000  1.0 -0.0734226501
C  C171  1  0.33213000  0.95240000  0.83792000  1.0 -0.0771926496
C  C172  1  0.66787000  0.04760000  0.83792000  1.0 -0.0734226501
C  C173  1  0.83213000  0.54760000  0.33792000  1.0 -0.0771926496
C  C174  1  0.16787000  0.45240000  0.33792000  1.0 -0.0771926496
C  C175  1  0.66787000  0.04760000  0.16208000  1.0 -0.0771926496
C  C176  1  0.33213000  0.95240000  0.16208000  1.0 -0.0771926496
C  C177  1  0.47986000  0.48040000  0.63120000  1.0 -0.2067834872
C  C178  1  0.52014000  0.51960000  0.63120000  1.0 -0.2067834872
C  C179  1  0.02014000  0.98040000  0.86880000  1.0 -0.2067834872
C  C180  1  0.97986000  0.01960000  0.86880000  1.0 -0.2067834872
C  C181  1  0.52014000  0.51960000  0.36880000  1.0 -0.2067834872
C  C182  1  0.47986000  0.48040000  0.36880000  1.0 -0.2067834872
C  C183  1  0.97986000  0.01960000  0.13120000  1.0 -0.2067834872
C  C184  1  0.02014000  0.98040000  0.13120000  1.0 -0.2067834872
C  C185  1  0.09880000  0.46797000  0.72120000  1.0 0.5412000072
C  C186  1  0.90120000  0.53203000  0.72120000  1.0 0.5412000072
C  C187  1  0.40120000  0.96797000  0.77880000  1.0 0.5412000072
C  C188  1  0.59880000  0.03203000  0.77880000  1.0 0.5412000072
C  C189  1  0.90120000  0.53203000  0.27880000  1.0 0.5412000072
C  C190  1  0.09880000  0.46797000  0.27880000  1.0 0.5412000072
C  C191  1  0.59880000  0.03203000  0.22120000  1.0 0.5412000072
C  C192  1  0.40120000  0.96797000  0.22120000  1.0 0.5412000072
C  C193  1  0.15580000  0.44911000  0.70378000  1.0 0.0052702167
C  C194  1  0.84420000  0.55089000  0.70378000  1.0 0.0052702167
C  C195  1  0.34420000  0.94911000  0.79622000  1.0 0.0038139232
C  C196  1  0.65580000  0.05089000  0.79622000  1.0 0.0052702167
C  C197  1  0.84420000  0.55089000  0.29622000  1.0 0.0052702167
C  C198  1  0.15580000  0.44911000  0.29622000  1.0 0.0052702167
C  C199  1  0.65580000  0.05089000  0.20378000  1.0 0.0052702167
C  C200  1  0.34420000  0.94911000  0.20378000  1.0 0.0052702167
N  N1  1  0.43851000  0.43921000  0.50000000  1.0 -0.378238398
N  N2  1  0.56149000  0.56079000  0.50000000  1.0 -0.378238398
N  N3  1  0.06149000  0.93921000  0.00000000  1.0 -0.3743055246
N  N4  1  0.93851000  0.06079000  0.00000000  1.0 -0.378238398
N  N5  1  0.49150000  0.50410000  0.56224000  1.0 -0.1437531954
N  N6  1  0.50850000  0.49590000  0.56224000  1.0 -0.1437531954
N  N7  1  0.00850000  0.00410000  0.93776000  1.0 -0.1437531954
N  N8  1  0.99150000  0.99590000  0.93776000  1.0 -0.1437531954
N  N9  1  0.50850000  0.49590000  0.43776000  1.0 -0.1437531954
N  N10  1  0.49150000  0.50410000  0.43776000  1.0 -0.1437531954
N  N11  1  0.99150000  0.99590000  0.06224000  1.0 -0.1437531954
N  N12  1  0.00850000  0.00410000  0.06224000  1.0 -0.1437531954
O  O1  1  0.46901000  0.09070000  0.76008000  1.0 -0.5451088107
O  O2  1  0.53099000  0.90930000  0.76008000  1.0 -0.5451088107
O  O3  1  0.03099000  0.59070000  0.73992000  1.0 -0.5451088107
O  O4  1  0.96901000  0.40930000  0.73992000  1.0 -0.5451088107
O  O5  1  0.53099000  0.90930000  0.23992000  1.0 -0.5451088107
O  O6  1  0.46901000  0.09070000  0.23992000  1.0 -0.5451088107
O  O7  1  0.96901000  0.40930000  0.26008000  1.0 -0.5451088107
O  O8  1  0.03099000  0.59070000  0.26008000  1.0 -0.5451088107
O  O9  1  0.48221000  0.06064000  0.69547000  1.0 -0.5060572407
O  O10  1  0.51779000  0.93936000  0.69547000  1.0 -0.5060572407
O  O11  1  0.01779000  0.56064000  0.80453000  1.0 -0.5060572407
O  O12  1  0.98221000  0.43936000  0.80453000  1.0 -0.5040781281
O  O13  1  0.51779000  0.93936000  0.30453000  1.0 -0.5060572407
O  O14  1  0.48221000  0.06064000  0.30453000  1.0 -0.5060572407
O  O15  1  0.98221000  0.43936000  0.19547000  1.0 -0.5060572407
O  O16  1  0.01779000  0.56064000  0.19547000  1.0 -0.5060572407
O  O17  1  0.09071000  0.46928000  0.76009000  1.0 -0.5393135554
O  O18  1  0.90929000  0.53072000  0.76009000  1.0 -0.5393135554
O  O19  1  0.40929000  0.96928000  0.73991000  1.0 -0.5393135554
O  O20  1  0.59071000  0.03072000  0.73991000  1.0 -0.5393135554
O  O21  1  0.90929000  0.53072000  0.23991000  1.0 -0.5393135554
O  O22  1  0.09071000  0.46928000  0.23991000  1.0 -0.5393135554
O  O23  1  0.59071000  0.03072000  0.26009000  1.0 -0.5393135554
O  O24  1  0.40929000  0.96928000  0.26009000  1.0 -0.5393135554
O  O25  1  0.06053000  0.48218000  0.69505000  1.0 -0.5226695171
O  O26  1  0.93947000  0.51782000  0.69505000  1.0 -0.5226695171
O  O27  1  0.43947000  0.98218000  0.80495000  1.0 -0.5226695171
O  O28  1  0.56053000  0.01782000  0.80495000  1.0 -0.5226695171
O  O29  1  0.93947000  0.51782000  0.30495000  1.0 -0.5226695171
O  O30  1  0.06053000  0.48218000  0.30495000  1.0 -0.5226695171
O  O31  1  0.56053000  0.01782000  0.19505000  1.0 -0.5226695171
O  O32  1  0.43947000  0.98218000  0.19505000  1.0 -0.5226695171
