# DDEC6 charges by PACMAN v1.1 (https://github.com/mtap-research/PACMAN-charge/)
data_AXIGAR_ASR_pacman
_symmetry_space_group_name_H-M   'P 1'
_cell_length_a   23.98360000
_cell_length_b   7.32710000
_cell_length_c   22.68090000
_cell_angle_alpha   90.00000000
_cell_angle_beta   94.42570000
_cell_angle_gamma   90.00000000
_symmetry_Int_Tables_number   1
_chemical_formula_structural   Co2(C2N3)5
_chemical_formula_sum   'Co8 C40 N60'
_cell_volume   3973.83543809
_cell_formula_units_Z   4
loop_
 _symmetry_equiv_pos_site_id
 _symmetry_equiv_pos_as_xyz
  1  'x, y, z'
loop_
 _atom_site_type_symbol
 _atom_site_label
 _atom_site_symmetry_multiplicity
 _atom_site_fract_x
 _atom_site_fract_y
 _atom_site_fract_z
 _atom_site_occupancy
 _atom_site_charge
Co  Co1  1  0.45738000  0.03106000  0.23632000  1.0 0.8801975721
Co  Co2  1  0.70916000  0.97992000  0.50151000  1.0 0.8801975721
Co  Co3  1  0.95738000  0.53106000  0.23632000  1.0 0.8801975721
Co  Co4  1  0.20916000  0.47992000  0.50151000  1.0 0.8801975721
Co  Co5  1  0.45735000  0.96879000  0.73630000  1.0 0.8865422736
Co  Co6  1  0.70916000  0.02003000  0.00151000  1.0 0.8801975721
Co  Co7  1  0.95735000  0.46879000  0.73630000  1.0 0.8801975721
Co  Co8  1  0.20916000  0.52003000  0.00151000  1.0 0.8801975721
C  C1  1  0.31434000  0.03784000  0.40578000  1.0 0.3533717623
C  C2  1  0.37376000  0.05608000  0.32541000  1.0 0.433251595
C  C3  1  0.53377000  0.13517000  0.34640000  1.0 0.4700858077
C  C4  1  0.60649000  0.11766000  0.42576000  1.0 0.4817559226
C  C5  1  0.81169000  0.79957000  0.56905000  1.0 0.4817559226
C  C6  1  0.88309000  0.65046000  0.63627000  1.0 0.4817559226
C  C7  1  0.63327000  0.92603000  0.59983000  1.0 0.4978661548
C  C8  1  0.55925000  0.92759000  0.66581000  1.0 0.4817559226
C  C9  1  0.77256000  0.06156000  0.39576000  1.0 0.4236585478
C  C10  1  0.83780000  0.06999000  0.32315000  1.0 0.3615642558
C  C11  1  0.81434000  0.53784000  0.40578000  1.0 0.3533717623
C  C12  1  0.87376000  0.55608000  0.32541000  1.0 0.433251595
C  C13  1  0.03377000  0.63517000  0.34640000  1.0 0.4700858077
C  C14  1  0.10649000  0.61766000  0.42576000  1.0 0.4817559226
C  C15  1  0.31169000  0.29957000  0.56905000  1.0 0.4897012095
C  C16  1  0.38309000  0.15046000  0.63627000  1.0 0.4817559226
C  C17  1  0.13327000  0.42603000  0.59983000  1.0 0.4978661548
C  C18  1  0.05925000  0.42759000  0.66581000  1.0 0.4817559226
C  C19  1  0.27256000  0.56156000  0.39576000  1.0 0.4236585478
C  C20  1  0.33780000  0.56999000  0.32315000  1.0 0.3615642558
C  C21  1  0.31416000  0.96206000  0.90573000  1.0 0.3533717623
C  C22  1  0.37356000  0.94356000  0.82532000  1.0 0.433251595
C  C23  1  0.53373000  0.86481000  0.84641000  1.0 0.4700858077
C  C24  1  0.60648000  0.88227000  0.92576000  1.0 0.4700858077
C  C25  1  0.81170000  0.20041000  0.06904000  1.0 0.4817559226
C  C26  1  0.88309000  0.34949000  0.13627000  1.0 0.4817559226
C  C27  1  0.63329000  0.07396000  0.09982000  1.0 0.4978661548
C  C28  1  0.55923000  0.07241000  0.16581000  1.0 0.4897012095
C  C29  1  0.77256000  0.93842000  0.89576000  1.0 0.4236585478
C  C30  1  0.83780000  0.92997000  0.82314000  1.0 0.3615642558
C  C31  1  0.81416000  0.46206000  0.90573000  1.0 0.3615642558
C  C32  1  0.87356000  0.44356000  0.82532000  1.0 0.433251595
C  C33  1  0.03373000  0.36481000  0.84641000  1.0 0.4700858077
C  C34  1  0.10648000  0.38227000  0.92576000  1.0 0.4700858077
C  C35  1  0.31170000  0.70041000  0.06904000  1.0 0.4817559226
C  C36  1  0.38309000  0.84949000  0.13627000  1.0 0.4817559226
C  C37  1  0.13329000  0.57396000  0.09982000  1.0 0.4978661548
C  C38  1  0.05923000  0.57241000  0.16581000  1.0 0.4978661548
C  C39  1  0.27256000  0.43842000  0.89576000  1.0 0.4236585478
C  C40  1  0.33780000  0.42997000  0.82314000  1.0 0.3615642558
N  N1  1  0.28174000  0.99734000  0.44032000  1.0 -0.2279059509
N  N2  1  0.39707000  0.03488000  0.28110000  1.0 -0.4582184647
N  N3  1  0.50324000  0.11555000  0.30291000  1.0 -0.4796304946
N  N4  1  0.56094000  0.16820000  0.39651000  1.0 -0.4269177188
N  N5  1  0.64599000  0.08034000  0.45847000  1.0 -0.4917495777
N  N6  1  0.77210000  0.87135000  0.54343000  1.0 -0.4917495777
N  N7  1  0.85826000  0.72777000  0.59015000  1.0 -0.4219315519
N  N8  1  0.91286000  0.57806000  0.67388000  1.0 -0.4691937486
N  N9  1  0.66549000  0.94011000  0.56279000  1.0 -0.4973817576
N  N10  1  0.60709000  0.89560000  0.64609000  1.0 -0.4691937486
N  N11  1  0.51804000  0.94471000  0.69130000  1.0 -0.5087579806
N  N12  1  0.74912000  0.02769000  0.43897000  1.0 -0.4517770131
N  N13  1  0.79032000  0.11034000  0.34640000  1.0 -0.2902334352
N  N14  1  0.87720000  0.04676000  0.29554000  1.0 -0.2421315779
N  N15  1  0.35323000  0.09854000  0.37380000  1.0 -0.3066482315
N  N16  1  0.78174000  0.49734000  0.44032000  1.0 -0.2243366261
N  N17  1  0.89707000  0.53488000  0.28110000  1.0 -0.4582184647
N  N18  1  0.00324000  0.61555000  0.30291000  1.0 -0.4796304946
N  N19  1  0.06094000  0.66820000  0.39651000  1.0 -0.4269177188
N  N20  1  0.14599000  0.58034000  0.45847000  1.0 -0.4917495777
N  N21  1  0.27210000  0.37135000  0.54343000  1.0 -0.4917495777
N  N22  1  0.35826000  0.22777000  0.59015000  1.0 -0.4219315519
N  N23  1  0.41286000  0.07806000  0.67388000  1.0 -0.4691937486
N  N24  1  0.16549000  0.44011000  0.56279000  1.0 -0.4973817576
N  N25  1  0.10709000  0.39560000  0.64609000  1.0 -0.4691937486
N  N26  1  0.01804000  0.44471000  0.69130000  1.0 -0.5087579806
N  N27  1  0.24912000  0.52769000  0.43897000  1.0 -0.4517770131
N  N28  1  0.29032000  0.61034000  0.34640000  1.0 -0.2902334352
N  N29  1  0.37720000  0.54676000  0.29554000  1.0 -0.2497482916
N  N30  1  0.85423000  0.59854000  0.37380000  1.0 -0.3066482315
N  N31  1  0.28169000  0.00266000  0.94028000  1.0 -0.2279059509
N  N32  1  0.35400000  0.90274000  0.87363000  1.0 -0.3010712434
N  N33  1  0.39691000  0.96491000  0.78097000  1.0 -0.4582184647
N  N34  1  0.50316000  0.88443000  0.80297000  1.0 -0.4796304946
N  N35  1  0.56093000  0.83169000  0.89653000  1.0 -0.4219315519
N  N36  1  0.64600000  0.91962000  0.95847000  1.0 -0.4796304946
N  N37  1  0.77211000  0.12863000  0.04343000  1.0 -0.4917495777
N  N38  1  0.85828000  0.27222000  0.09013000  1.0 -0.4219315519
N  N39  1  0.91284000  0.42186000  0.17389000  1.0 -0.4691937486
N  N40  1  0.66553000  0.05986000  0.06277000  1.0 -0.4973817576
N  N41  1  0.60713000  0.10443000  0.14610000  1.0 -0.4796304946
N  N42  1  0.51803000  0.05521000  0.19127000  1.0 -0.5087579806
N  N43  1  0.74913000  0.97229000  0.93897000  1.0 -0.4517770131
N  N44  1  0.79032000  0.88959000  0.84639000  1.0 -0.2902334352
N  N45  1  0.87721000  0.95320000  0.79554000  1.0 -0.2497482916
N  N46  1  0.78169000  0.50266000  0.94028000  1.0 -0.2279059509
N  N47  1  0.85300000  0.40034000  0.87363000  1.0 -0.3066482315
N  N48  1  0.89691000  0.46491000  0.78097000  1.0 -0.4582184647
N  N49  1  0.00316000  0.38443000  0.80297000  1.0 -0.4796304946
N  N50  1  0.06093000  0.33169000  0.89653000  1.0 -0.4219315519
N  N51  1  0.14600000  0.41962000  0.95847000  1.0 -0.4796304946
N  N52  1  0.27211000  0.62863000  0.04343000  1.0 -0.4973817576
N  N53  1  0.35828000  0.77222000  0.09013000  1.0 -0.4219315519
N  N54  1  0.41284000  0.92186000  0.17389000  1.0 -0.4691937486
N  N55  1  0.16553000  0.55986000  0.06277000  1.0 -0.4973817576
N  N56  1  0.10713000  0.60443000  0.14610000  1.0 -0.4796304946
N  N57  1  0.01803000  0.55521000  0.19127000  1.0 -0.5087579806
N  N58  1  0.24913000  0.47229000  0.93897000  1.0 -0.4517770131
N  N59  1  0.29032000  0.38959000  0.84639000  1.0 -0.2902334352
N  N60  1  0.37721000  0.45320000  0.79554000  1.0 -0.2421315779
