# DDEC6 charges by PACMAN v1.1 (https://github.com/mtap-research/PACMAN-charge/)
data_AXINAX01_ASR_pacman
_symmetry_space_group_name_H-M   'P 1'
_cell_length_a   28.93520000
_cell_length_b   28.93520000
_cell_length_c   33.18400000
_cell_angle_alpha   86.15110000
_cell_angle_beta   93.84890000
_cell_angle_gamma   103.30600000
_symmetry_Int_Tables_number   1
_chemical_formula_structural   Co11H90(C9O2)18
_chemical_formula_sum   'Co22 H180 C324 O72'
_cell_volume   26938.10437588
_cell_formula_units_Z   2
loop_
 _symmetry_equiv_pos_site_id
 _symmetry_equiv_pos_as_xyz
  1  'x, y, z'
loop_
 _atom_site_type_symbol
 _atom_site_label
 _atom_site_symmetry_multiplicity
 _atom_site_fract_x
 _atom_site_fract_y
 _atom_site_fract_z
 _atom_site_occupancy
 _atom_site_charge
Co  Co1  1  0.73059000  0.73059000  0.75000000  1.0 1.1065642168
Co  Co2  1  0.26941000  0.26941000  0.25000000  1.0 1.1065642168
Co  Co3  1  0.17396000  0.75960000  0.14436000  1.0 0.9063839544
Co  Co4  1  0.75960000  0.17396000  0.35564000  1.0 0.9063839544
Co  Co5  1  0.82604000  0.24040000  0.85564000  1.0 0.9063839544
Co  Co6  1  0.24040000  0.82604000  0.64436000  1.0 0.9063839544
Co  Co7  1  0.79397000  0.27191000  0.59255000  1.0 0.9536575158
Co  Co8  1  0.27191000  0.79397000  0.90745000  1.0 0.9536575158
Co  Co9  1  0.20603000  0.72809000  0.40745000  1.0 0.9536575158
Co  Co10  1  0.72809000  0.20603000  0.09255000  1.0 0.9536575158
Co  Co11  1  0.05420000  0.75504000  0.13092000  1.0 1.0359132816
Co  Co12  1  0.75504000  0.05420000  0.36908000  1.0 1.0359132816
Co  Co13  1  0.94580000  0.24496000  0.86908000  1.0 1.0359132816
Co  Co14  1  0.24496000  0.94580000  0.63092000  1.0 1.0359132816
Co  Co15  1  0.71163000  0.74167000  0.85339000  1.0 1.0117855002
Co  Co16  1  0.74167000  0.71163000  0.64661000  1.0 1.0117855002
Co  Co17  1  0.28837000  0.25833000  0.14661000  1.0 1.0117855002
Co  Co18  1  0.25833000  0.28837000  0.35339000  1.0 1.0117855002
Co  Co19  1  0.68880000  0.30326000  0.60683000  1.0 0.9968967665
Co  Co20  1  0.30326000  0.68880000  0.89317000  1.0 0.9968967665
Co  Co21  1  0.31120000  0.69674000  0.39317000  1.0 0.9968967665
Co  Co22  1  0.69674000  0.31120000  0.10683000  1.0 0.9968967665
H  H1  1  0.85690000  0.79790000  0.88350000  1.0 0.1196854313
H  H2  1  0.79790000  0.85690000  0.61650000  1.0 0.1196854313
H  H3  1  0.14310000  0.20210000  0.11650000  1.0 0.1196854313
H  H4  1  0.20210000  0.14310000  0.38350000  1.0 0.1196854313
H  H5  1  0.88030000  0.74670000  0.77790000  1.0 0.1093664121
H  H6  1  0.74670000  0.88030000  0.72210000  1.0 0.1093664121
H  H7  1  0.11970000  0.25330000  0.22210000  1.0 0.1093664121
H  H8  1  0.25330000  0.11970000  0.27790000  1.0 0.1093664121
H  H9  1  0.96230000  0.76410000  0.79580000  1.0 0.1028864824
H  H10  1  0.76410000  0.96230000  0.70420000  1.0 0.1028864824
H  H11  1  0.03770000  0.23590000  0.20420000  1.0 0.1028864824
H  H12  1  0.23590000  0.03770000  0.29580000  1.0 0.1028864824
H  H13  1  0.93770000  0.81510000  0.89990000  1.0 0.1028864824
H  H14  1  0.81510000  0.93770000  0.60010000  1.0 0.1028864824
H  H15  1  0.06230000  0.18490000  0.10010000  1.0 0.1028864824
H  H16  1  0.18490000  0.06230000  0.39990000  1.0 0.1028864824
H  H17  1  0.00590000  0.78870000  0.92060000  1.0 0.1093664121
H  H18  1  0.78870000  0.00590000  0.57940000  1.0 0.1093664121
H  H19  1  0.99410000  0.21130000  0.07940000  1.0 0.1093664121
H  H20  1  0.21130000  0.99410000  0.42060000  1.0 0.1093664121
H  H21  1  0.13970000  0.83270000  0.88510000  1.0 0.1196854313
H  H22  1  0.83270000  0.13970000  0.61490000  1.0 0.1196854313
H  H23  1  0.86030000  0.16730000  0.11490000  1.0 0.1196854313
H  H24  1  0.16730000  0.86030000  0.38510000  1.0 0.1196854313
H  H25  1  0.03090000  0.82310000  0.80270000  1.0 0.1196854313
H  H26  1  0.82310000  0.03090000  0.69730000  1.0 0.1196854313
H  H27  1  0.96910000  0.17690000  0.19730000  1.0 0.1196854313
H  H28  1  0.17690000  0.96910000  0.30270000  1.0 0.1196854313
H  H29  1  0.17310000  0.81250000  0.82820000  1.0 0.1196854313
H  H30  1  0.81250000  0.17310000  0.67180000  1.0 0.1196854313
H  H31  1  0.82690000  0.18750000  0.17180000  1.0 0.1196854313
H  H32  1  0.18750000  0.82690000  0.32820000  1.0 0.1196854313
H  H33  1  0.08760000  0.89000000  0.77430000  1.0 0.1093664121
H  H34  1  0.89000000  0.08760000  0.72570000  1.0 0.1093664121
H  H35  1  0.91240000  0.11000000  0.22570000  1.0 0.1093664121
H  H36  1  0.11000000  0.91240000  0.27430000  1.0 0.1093664121
H  H37  1  0.22210000  0.83050000  0.77500000  1.0 0.1093664121
H  H38  1  0.83050000  0.22210000  0.72500000  1.0 0.1093664121
H  H39  1  0.77790000  0.16950000  0.22500000  1.0 0.1093664121
H  H40  1  0.16950000  0.77790000  0.27500000  1.0 0.1093664121
H  H41  1  0.13490000  0.90770000  0.71990000  1.0 0.1093664121
H  H42  1  0.90770000  0.13490000  0.78010000  1.0 0.1093664121
H  H43  1  0.86510000  0.09230000  0.28010000  1.0 0.1093664121
H  H44  1  0.09230000  0.86510000  0.21990000  1.0 0.1093664121
H  H45  1  0.04280000  0.82120000  0.97780000  1.0 0.1093664121
H  H46  1  0.82120000  0.04280000  0.52220000  1.0 0.1093664121
H  H47  1  0.95720000  0.17880000  0.02220000  1.0 0.1093664121
H  H48  1  0.17880000  0.95720000  0.47780000  1.0 0.1093664121
H  H49  1  0.06870000  0.80970000  0.04520000  1.0 0.1093664121
H  H50  1  0.80970000  0.06870000  0.45480000  1.0 0.1093664121
H  H51  1  0.93130000  0.19030000  0.95480000  1.0 0.1093664121
H  H52  1  0.19030000  0.93130000  0.54520000  1.0 0.1093664121
H  H53  1  0.15320000  0.78180000  0.93810000  1.0 0.1093664121
H  H54  1  0.78180000  0.15320000  0.56190000  1.0 0.1093664121
H  H55  1  0.84680000  0.21820000  0.06190000  1.0 0.1093664121
H  H56  1  0.21820000  0.84680000  0.43810000  1.0 0.1093664121
H  H57  1  0.18140000  0.77080000  0.00510000  1.0 0.1196854313
H  H58  1  0.77080000  0.18140000  0.49490000  1.0 0.1196854313
H  H59  1  0.81860000  0.22920000  0.99490000  1.0 0.1196854313
H  H60  1  0.22920000  0.81860000  0.50510000  1.0 0.1196854313
H  H61  1  0.69830000  0.89530000  0.80650000  1.0 0.1093664121
H  H62  1  0.89530000  0.69830000  0.69350000  1.0 0.1093664121
H  H63  1  0.30170000  0.10470000  0.19350000  1.0 0.1093664121
H  H64  1  0.10470000  0.30170000  0.30650000  1.0 0.1093664121
H  H65  1  0.66830000  0.94850000  0.76120000  1.0 0.1093664121
H  H66  1  0.94850000  0.66830000  0.73880000  1.0 0.1093664121
H  H67  1  0.33170000  0.05150000  0.23880000  1.0 0.1093664121
H  H68  1  0.05150000  0.33170000  0.26120000  1.0 0.1093664121
H  H69  1  0.64430000  0.78930000  0.73380000  1.0 0.1093664121
H  H70  1  0.78930000  0.64430000  0.76620000  1.0 0.1093664121
H  H71  1  0.35570000  0.21070000  0.26620000  1.0 0.1093664121
H  H72  1  0.21070000  0.35570000  0.23380000  1.0 0.1093664121
H  H73  1  0.60730000  0.84110000  0.69190000  1.0 0.1093664121
H  H74  1  0.84110000  0.60730000  0.80810000  1.0 0.1093664121
H  H75  1  0.39270000  0.15890000  0.30810000  1.0 0.1093664121
H  H76  1  0.15890000  0.39270000  0.19190000  1.0 0.1093664121
H  H77  1  0.54470000  0.88650000  0.69410000  1.0 0.1093664121
H  H78  1  0.88650000  0.54470000  0.80590000  1.0 0.1093664121
H  H79  1  0.45530000  0.11350000  0.30590000  1.0 0.1093664121
H  H80  1  0.11350000  0.45530000  0.19410000  1.0 0.1093664121
H  H81  1  0.66600000  0.98700000  0.69210000  1.0 0.1093664121
H  H82  1  0.98700000  0.66600000  0.80790000  1.0 0.1093664121
H  H83  1  0.33400000  0.01300000  0.30790000  1.0 0.1093664121
H  H84  1  0.01300000  0.33400000  0.19210000  1.0 0.1093664121
H  H85  1  0.47730000  0.86650000  0.64800000  1.0 0.1093664121
H  H86  1  0.86650000  0.47730000  0.85200000  1.0 0.1093664121
H  H87  1  0.52270000  0.13350000  0.35200000  1.0 0.1093664121
H  H88  1  0.13350000  0.52270000  0.14800000  1.0 0.1093664121
H  H89  1  0.47170000  0.99930000  0.66690000  1.0 0.1093664121
H  H90  1  0.99930000  0.47170000  0.83310000  1.0 0.1093664121
H  H91  1  0.52830000  0.00070000  0.33310000  1.0 0.1093664121
H  H92  1  0.00070000  0.52830000  0.16690000  1.0 0.1093664121
H  H93  1  0.39570000  0.84550000  0.63950000  1.0 0.1093664121
H  H94  1  0.84550000  0.39570000  0.86050000  1.0 0.1093664121
H  H95  1  0.60430000  0.15450000  0.36050000  1.0 0.1093664121
H  H96  1  0.15450000  0.60430000  0.13950000  1.0 0.1093664121
H  H97  1  0.38970000  0.97850000  0.65890000  1.0 0.1196854313
H  H98  1  0.97850000  0.38970000  0.84110000  1.0 0.1196854313
H  H99  1  0.61030000  0.02150000  0.34110000  1.0 0.1196854313
H  H100  1  0.02150000  0.61030000  0.15890000  1.0 0.1196854313
H  H101  1  0.54510000  0.01350000  0.63780000  1.0 0.1093664121
H  H102  1  0.01350000  0.54510000  0.86220000  1.0 0.1093664121
H  H103  1  0.45490000  0.98650000  0.36220000  1.0 0.1093664121
H  H104  1  0.98650000  0.45490000  0.13780000  1.0 0.1093664121
H  H105  1  0.57870000  0.08890000  0.65170000  1.0 0.1093664121
H  H106  1  0.08890000  0.57870000  0.84830000  1.0 0.1093664121
H  H107  1  0.42130000  0.91110000  0.34830000  1.0 0.1093664121
H  H108  1  0.91110000  0.42130000  0.15170000  1.0 0.1093664121
H  H109  1  0.70030000  0.04550000  0.64570000  1.0 0.1028864824
H  H110  1  0.04550000  0.70030000  0.85430000  1.0 0.1028864824
H  H111  1  0.29970000  0.95450000  0.35430000  1.0 0.1028864824
H  H112  1  0.95450000  0.29970000  0.14570000  1.0 0.1028864824
H  H113  1  0.73830000  0.12090000  0.62730000  1.0 0.1028864824
H  H114  1  0.12090000  0.73830000  0.87270000  1.0 0.1028864824
H  H115  1  0.26170000  0.87910000  0.37270000  1.0 0.1028864824
H  H116  1  0.87910000  0.26170000  0.12730000  1.0 0.1028864824
H  H117  1  0.61790000  0.16470000  0.63170000  1.0 0.1196854313
H  H118  1  0.16470000  0.61790000  0.86830000  1.0 0.1196854313
H  H119  1  0.38210000  0.83530000  0.36830000  1.0 0.1196854313
H  H120  1  0.83530000  0.38210000  0.13170000  1.0 0.1196854313
H  H121  1  0.75160000  0.60500000  0.88390000  1.0 0.1196854313
H  H122  1  0.60500000  0.75160000  0.61610000  1.0 0.1196854313
H  H123  1  0.24840000  0.39500000  0.11610000  1.0 0.1196854313
H  H124  1  0.39500000  0.24840000  0.38390000  1.0 0.1196854313
H  H125  1  0.76010000  0.52750000  0.89060000  1.0 0.1093664121
H  H126  1  0.52750000  0.76010000  0.60940000  1.0 0.1093664121
H  H127  1  0.23990000  0.47250000  0.10940000  1.0 0.1093664121
H  H128  1  0.47250000  0.23990000  0.39060000  1.0 0.1093664121
H  H129  1  0.71080000  0.50620000  0.77530000  1.0 0.1093664121
H  H130  1  0.50620000  0.71080000  0.72470000  1.0 0.1093664121
H  H131  1  0.28920000  0.49380000  0.22470000  1.0 0.1093664121
H  H132  1  0.49380000  0.28920000  0.27530000  1.0 0.1093664121
H  H133  1  0.72980000  0.44420000  0.89650000  1.0 0.1093664121
H  H134  1  0.44420000  0.72980000  0.60350000  1.0 0.1093664121
H  H135  1  0.27020000  0.55580000  0.10350000  1.0 0.1093664121
H  H136  1  0.55580000  0.27020000  0.39650000  1.0 0.1093664121
H  H137  1  0.68860000  0.38880000  0.93570000  1.0 0.1028864824
H  H138  1  0.38880000  0.68860000  0.56430000  1.0 0.1028864824
H  H139  1  0.31140000  0.61120000  0.06430000  1.0 0.1028864824
H  H140  1  0.61120000  0.31140000  0.43570000  1.0 0.1028864824
H  H141  1  0.77190000  0.30750000  0.90330000  1.0 0.1093664121
H  H142  1  0.30750000  0.77190000  0.59670000  1.0 0.1093664121
H  H143  1  0.22810000  0.69250000  0.09670000  1.0 0.1093664121
H  H144  1  0.69250000  0.22810000  0.40330000  1.0 0.1093664121
H  H145  1  0.75750000  0.26230000  0.96370000  1.0 0.1196854313
H  H146  1  0.26230000  0.75750000  0.53630000  1.0 0.1196854313
H  H147  1  0.24250000  0.73770000  0.03630000  1.0 0.1196854313
H  H148  1  0.73770000  0.24250000  0.46370000  1.0 0.1196854313
H  H149  1  0.67780000  0.34740000  0.99860000  1.0 0.1093664121
H  H150  1  0.34740000  0.67780000  0.50140000  1.0 0.1093664121
H  H151  1  0.32220000  0.65260000  0.00140000  1.0 0.1093664121
H  H152  1  0.65260000  0.32220000  0.49860000  1.0 0.1093664121
H  H153  1  0.76260000  0.45880000  0.78060000  1.0 0.1093664121
H  H154  1  0.45880000  0.76260000  0.71940000  1.0 0.1093664121
H  H155  1  0.23740000  0.54120000  0.21940000  1.0 0.1093664121
H  H156  1  0.54120000  0.23740000  0.28060000  1.0 0.1093664121
H  H157  1  0.75210000  0.33310000  0.84260000  1.0 0.1196854313
H  H158  1  0.33310000  0.75210000  0.65740000  1.0 0.1196854313
H  H159  1  0.24790000  0.66690000  0.15740000  1.0 0.1196854313
H  H160  1  0.66690000  0.24790000  0.34260000  1.0 0.1196854313
H  H161  1  0.81130000  0.32930000  0.79220000  1.0 0.1196854313
H  H162  1  0.32930000  0.81130000  0.70780000  1.0 0.1196854313
H  H163  1  0.18870000  0.67070000  0.20780000  1.0 0.1196854313
H  H164  1  0.67070000  0.18870000  0.29220000  1.0 0.1196854313
H  H165  1  0.82310000  0.29750000  0.73370000  1.0 0.1196854313
H  H166  1  0.29750000  0.82310000  0.76630000  1.0 0.1196854313
H  H167  1  0.17690000  0.70250000  0.26630000  1.0 0.1196854313
H  H168  1  0.70250000  0.17690000  0.23370000  1.0 0.1196854313
H  H169  1  0.74120000  0.37220000  0.67160000  1.0 0.1093664121
H  H170  1  0.37220000  0.74120000  0.82840000  1.0 0.1093664121
H  H171  1  0.25880000  0.62780000  0.32840000  1.0 0.1093664121
H  H172  1  0.62780000  0.25880000  0.17160000  1.0 0.1093664121
H  H173  1  0.72880000  0.40600000  0.72860000  1.0 0.1093664121
H  H174  1  0.40600000  0.72880000  0.77140000  1.0 0.1093664121
H  H175  1  0.27120000  0.59400000  0.27140000  1.0 0.1093664121
H  H176  1  0.59400000  0.27120000  0.22860000  1.0 0.1093664121
H  H177  1  0.70390000  0.58450000  0.76780000  1.0 0.1196854313
H  H178  1  0.58450000  0.70390000  0.73220000  1.0 0.1196854313
H  H179  1  0.29610000  0.41550000  0.23220000  1.0 0.1196854313
H  H180  1  0.41550000  0.29610000  0.26780000  1.0 0.1196854313
C  C1  1  0.80823000  0.76111000  0.81783000  1.0 0.5985361744
C  C2  1  0.76111000  0.80823000  0.68217000  1.0 0.5985361744
C  C3  1  0.19177000  0.23889000  0.18217000  1.0 0.5985361744
C  C4  1  0.23889000  0.19177000  0.31783000  1.0 0.5985361744
C  C5  1  0.71692000  0.29896000  0.98551000  1.0 -0.0188448602
C  C6  1  0.29896000  0.71692000  0.51449000  1.0 -0.0188448602
C  C7  1  0.28308000  0.70104000  0.01449000  1.0 -0.0188448602
C  C8  1  0.70104000  0.28308000  0.48551000  1.0 -0.0188448602
C  C9  1  0.87801000  0.79153000  0.86573000  1.0 -0.100797572
C  C10  1  0.79153000  0.87801000  0.63427000  1.0 -0.100797572
C  C11  1  0.12199000  0.20847000  0.13427000  1.0 -0.100797572
C  C12  1  0.20847000  0.12199000  0.36573000  1.0 -0.100797572
C  C13  1  0.70907000  0.27329000  0.02825000  1.0 0.5985361744
C  C14  1  0.27329000  0.70907000  0.47175000  1.0 0.5985361744
C  C15  1  0.29093000  0.72671000  0.97175000  1.0 0.5985361744
C  C16  1  0.72671000  0.29093000  0.52825000  1.0 0.5985361744
C  C17  1  0.86109000  0.77165000  0.82847000  1.0 -0.0188448602
C  C18  1  0.77165000  0.86109000  0.67153000  1.0 -0.0188448602
C  C19  1  0.13891000  0.22835000  0.17153000  1.0 -0.0188448602
C  C20  1  0.22835000  0.13891000  0.32847000  1.0 -0.0188448602
C  C21  1  0.89188000  0.76058000  0.80214000  1.0 -0.100797572
C  C22  1  0.76058000  0.89188000  0.69786000  1.0 -0.100797572
C  C23  1  0.10812000  0.23942000  0.19786000  1.0 -0.100797572
C  C24  1  0.23942000  0.10812000  0.30214000  1.0 -0.100797572
C  C25  1  0.94120000  0.77100000  0.81318000  1.0 -0.1685956365
C  C26  1  0.77100000  0.94120000  0.68682000  1.0 -0.1685956365
C  C27  1  0.05880000  0.22900000  0.18682000  1.0 -0.1685956365
C  C28  1  0.22900000  0.05880000  0.31318000  1.0 -0.1685956365
C  C29  1  0.92604000  0.80146000  0.87556000  1.0 -0.1585479219
C  C30  1  0.80146000  0.92604000  0.62444000  1.0 -0.1585479219
C  C31  1  0.07396000  0.19854000  0.12444000  1.0 -0.1585479219
C  C32  1  0.19854000  0.07396000  0.37556000  1.0 -0.1585479219
C  C33  1  0.95833000  0.79089000  0.84861000  1.0 0.0594037362
C  C34  1  0.79089000  0.95833000  0.65139000  1.0 0.0594037362
C  C35  1  0.04167000  0.20911000  0.15139000  1.0 0.0594037362
C  C36  1  0.20911000  0.04167000  0.34861000  1.0 0.0594037362
C  C37  1  0.01033000  0.80375000  0.85933000  1.0 0.0806137728
C  C38  1  0.80375000  0.01033000  0.64067000  1.0 0.0806137728
C  C39  1  0.98967000  0.19625000  0.14067000  1.0 0.0806137728
C  C40  1  0.19625000  0.98967000  0.35933000  1.0 0.0806137728
C  C41  1  0.02710000  0.79884000  0.90031000  1.0 -0.2286925759
C  C42  1  0.79884000  0.02710000  0.59969000  1.0 -0.2286925759
C  C43  1  0.97290000  0.20116000  0.09969000  1.0 -0.2286925759
C  C44  1  0.20116000  0.97290000  0.40031000  1.0 -0.2286925759
C  C45  1  0.07701000  0.80977000  0.90969000  1.0 0.0707572292
C  C46  1  0.80977000  0.07701000  0.59031000  1.0 0.0707572292
C  C47  1  0.92299000  0.19023000  0.09031000  1.0 0.0707572292
C  C48  1  0.19023000  0.92299000  0.40969000  1.0 0.0707572292
C  C49  1  0.10708000  0.82542000  0.87900000  1.0 -0.2078683968
C  C50  1  0.82542000  0.10708000  0.62100000  1.0 -0.2078683968
C  C51  1  0.89292000  0.17458000  0.12100000  1.0 -0.2078683968
C  C52  1  0.17458000  0.89292000  0.37900000  1.0 -0.2078683968
C  C53  1  0.09023000  0.83073000  0.83834000  1.0 0.0806137728
C  C54  1  0.83073000  0.09023000  0.66166000  1.0 0.0806137728
C  C55  1  0.90977000  0.16927000  0.16166000  1.0 0.0806137728
C  C56  1  0.16927000  0.90977000  0.33834000  1.0 0.0806137728
C  C57  1  0.04229000  0.81979000  0.82938000  1.0 -0.2078683968
C  C58  1  0.81979000  0.04229000  0.67062000  1.0 -0.2078683968
C  C59  1  0.95771000  0.18021000  0.17062000  1.0 -0.2078683968
C  C60  1  0.18021000  0.95771000  0.32938000  1.0 -0.2078683968
C  C61  1  0.12469000  0.84637000  0.80592000  1.0 0.0594037362
C  C62  1  0.84637000  0.12469000  0.69408000  1.0 0.0594037362
C  C63  1  0.87531000  0.15363000  0.19408000  1.0 0.0594037362
C  C64  1  0.15363000  0.87531000  0.30592000  1.0 0.0594037362
C  C65  1  0.16496000  0.83114000  0.80613000  1.0 -0.142228819
C  C66  1  0.83114000  0.16496000  0.69387000  1.0 -0.142228819
C  C67  1  0.83504000  0.16886000  0.19387000  1.0 -0.142228819
C  C68  1  0.16886000  0.83504000  0.30613000  1.0 -0.142228819
C  C69  1  0.11419000  0.87717000  0.77378000  1.0 -0.1585479219
C  C70  1  0.87717000  0.11419000  0.72622000  1.0 -0.1585479219
C  C71  1  0.88581000  0.12283000  0.22622000  1.0 -0.1585479219
C  C72  1  0.12283000  0.88581000  0.27378000  1.0 -0.1585479219
C  C73  1  0.19470000  0.84228000  0.77443000  1.0 -0.0809831491
C  C74  1  0.84228000  0.19470000  0.72557000  1.0 -0.0809831491
C  C75  1  0.80530000  0.15772000  0.22557000  1.0 -0.0809831491
C  C76  1  0.15772000  0.80530000  0.27443000  1.0 -0.0809831491
C  C77  1  0.14300000  0.88840000  0.74151000  1.0 -0.0884349584
C  C78  1  0.88840000  0.14300000  0.75849000  1.0 -0.0884349584
C  C79  1  0.85700000  0.11160000  0.25849000  1.0 -0.0884349584
C  C80  1  0.11160000  0.85700000  0.24151000  1.0 -0.0884349584
C  C81  1  0.18343000  0.87163000  0.74093000  1.0 -0.0491376291
C  C82  1  0.87163000  0.18343000  0.75907000  1.0 -0.0491376291
C  C83  1  0.81657000  0.12837000  0.25907000  1.0 -0.0491376291
C  C84  1  0.12837000  0.81657000  0.24093000  1.0 -0.0491376291
C  C85  1  0.21313000  0.88007000  0.70547000  1.0 0.5985361744
C  C86  1  0.88007000  0.21313000  0.79453000  1.0 0.5985361744
C  C87  1  0.78687000  0.11993000  0.29453000  1.0 0.5985361744
C  C88  1  0.11993000  0.78687000  0.20547000  1.0 0.5985361744
C  C89  1  0.09512000  0.80230000  0.95117000  1.0 0.0594037362
C  C90  1  0.80230000  0.09512000  0.54883000  1.0 0.0594037362
C  C91  1  0.90488000  0.19770000  0.04883000  1.0 0.0594037362
C  C92  1  0.19770000  0.90488000  0.45117000  1.0 0.0594037362
C  C93  1  0.07068000  0.81058000  0.98339000  1.0 -0.1511838944
C  C94  1  0.81058000  0.07068000  0.51661000  1.0 -0.1511838944
C  C95  1  0.92932000  0.18942000  0.01661000  1.0 -0.1511838944
C  C96  1  0.18942000  0.92932000  0.48339000  1.0 -0.1511838944
C  C97  1  0.08566000  0.80376000  0.02407000  1.0 -0.1092077527
C  C98  1  0.80376000  0.08566000  0.47593000  1.0 -0.1092077527
C  C99  1  0.91434000  0.19624000  0.97593000  1.0 -0.1092077527
C  C100  1  0.19624000  0.91434000  0.52407000  1.0 -0.1092077527
C  C101  1  0.13604000  0.78742000  0.95922000  1.0 -0.1511838944
C  C102  1  0.78742000  0.13604000  0.54078000  1.0 -0.1511838944
C  C103  1  0.86396000  0.21258000  0.04078000  1.0 -0.1511838944
C  C104  1  0.21258000  0.86396000  0.45922000  1.0 -0.1511838944
C  C105  1  0.12857000  0.78721000  0.03113000  1.0 -0.031733323
C  C106  1  0.78721000  0.12857000  0.46887000  1.0 -0.031733323
C  C107  1  0.87143000  0.21279000  0.96887000  1.0 -0.031733323
C  C108  1  0.21279000  0.87143000  0.53113000  1.0 -0.031733323
C  C109  1  0.15292000  0.78036000  0.00001000  1.0 -0.0884349584
C  C110  1  0.78036000  0.15292000  0.49999000  1.0 -0.0884349584
C  C111  1  0.84708000  0.21964000  0.99999000  1.0 -0.0884349584
C  C112  1  0.21964000  0.84708000  0.50001000  1.0 -0.0884349584
C  C113  1  0.14425000  0.77721000  0.07439000  1.0 0.5893013804
C  C114  1  0.77721000  0.14425000  0.42561000  1.0 0.5893013804
C  C115  1  0.85575000  0.22279000  0.92561000  1.0 0.5893013804
C  C116  1  0.22279000  0.85575000  0.57439000  1.0 0.5893013804
C  C117  1  0.69112000  0.80210000  0.80270000  1.0 0.5893013804
C  C118  1  0.80210000  0.69112000  0.69730000  1.0 0.5893013804
C  C119  1  0.30888000  0.19790000  0.19730000  1.0 0.5893013804
C  C120  1  0.19790000  0.30888000  0.30270000  1.0 0.5893013804
C  C121  1  0.67426000  0.83744000  0.77354000  1.0 -0.0188448602
C  C122  1  0.83744000  0.67426000  0.72646000  1.0 -0.0188448602
C  C123  1  0.32574000  0.16256000  0.22646000  1.0 -0.0188448602
C  C124  1  0.16256000  0.32574000  0.27354000  1.0 -0.0188448602
C  C125  1  0.68118000  0.88468000  0.78289000  1.0 -0.0884349584
C  C126  1  0.88468000  0.68118000  0.71711000  1.0 -0.0884349584
C  C127  1  0.31882000  0.11532000  0.21711000  1.0 -0.0884349584
C  C128  1  0.11532000  0.31882000  0.28289000  1.0 -0.0884349584
C  C129  1  0.66198000  0.91628000  0.75638000  1.0 -0.1585479219
C  C130  1  0.91628000  0.66198000  0.74362000  1.0 -0.1585479219
C  C131  1  0.33802000  0.08372000  0.24362000  1.0 -0.1585479219
C  C132  1  0.08372000  0.33802000  0.25638000  1.0 -0.1585479219
C  C133  1  0.64804000  0.82086000  0.74002000  1.0 -0.0884349584
C  C134  1  0.82086000  0.64804000  0.75998000  1.0 -0.0884349584
C  C135  1  0.35196000  0.17914000  0.25998000  1.0 -0.0884349584
C  C136  1  0.17914000  0.35196000  0.24002000  1.0 -0.0884349584
C  C137  1  0.62636000  0.85236000  0.71443000  1.0 -0.1511838944
C  C138  1  0.85236000  0.62636000  0.78557000  1.0 -0.1511838944
C  C139  1  0.37364000  0.14764000  0.28557000  1.0 -0.1511838944
C  C140  1  0.14764000  0.37364000  0.21443000  1.0 -0.1511838944
C  C141  1  0.63339000  0.89893000  0.72286000  1.0 0.0707572292
C  C142  1  0.89893000  0.63339000  0.77714000  1.0 0.0707572292
C  C143  1  0.36661000  0.10107000  0.27714000  1.0 0.0707572292
C  C144  1  0.10107000  0.36661000  0.22286000  1.0 0.0707572292
C  C145  1  0.60902000  0.93266000  0.69732000  1.0 0.0806137728
C  C146  1  0.93266000  0.60902000  0.80268000  1.0 0.0806137728
C  C147  1  0.39098000  0.06734000  0.30268000  1.0 0.0806137728
C  C148  1  0.06734000  0.39098000  0.19732000  1.0 0.0806137728
C  C149  1  0.56065000  0.91737000  0.68683000  1.0 -0.2078683968
C  C150  1  0.91737000  0.56065000  0.81317000  1.0 -0.2078683968
C  C151  1  0.43935000  0.08263000  0.31317000  1.0 -0.2078683968
C  C152  1  0.08263000  0.43935000  0.18683000  1.0 -0.2078683968
C  C153  1  0.53602000  0.94890000  0.66514000  1.0 0.0707572292
C  C154  1  0.94890000  0.53602000  0.83486000  1.0 0.0806137728
C  C155  1  0.46398000  0.05110000  0.33486000  1.0 0.0806137728
C  C156  1  0.05110000  0.46398000  0.16514000  1.0 0.0806137728
C  C157  1  0.63354000  0.97752000  0.68553000  1.0 -0.2078683968
C  C158  1  0.97752000  0.63354000  0.81447000  1.0 -0.2078683968
C  C159  1  0.36646000  0.02248000  0.31447000  1.0 -0.2078683968
C  C160  1  0.02248000  0.36646000  0.18553000  1.0 -0.2078683968
C  C161  1  0.45981000  0.88939000  0.65010000  1.0 -0.1511838944
C  C162  1  0.88939000  0.45981000  0.84990000  1.0 -0.1511838944
C  C163  1  0.54019000  0.11061000  0.34990000  1.0 -0.1511838944
C  C164  1  0.11061000  0.54019000  0.15010000  1.0 -0.1511838944
C  C165  1  0.45627000  0.96827000  0.66142000  1.0 -0.1585479219
C  C166  1  0.96827000  0.45627000  0.83858000  1.0 -0.1585479219
C  C167  1  0.54373000  0.03173000  0.33858000  1.0 -0.1585479219
C  C168  1  0.03173000  0.54373000  0.16142000  1.0 -0.1585479219
C  C169  1  0.48280000  0.93388000  0.65795000  1.0 0.0707572292
C  C170  1  0.93388000  0.48280000  0.84205000  1.0 0.0707572292
C  C171  1  0.51720000  0.06612000  0.34205000  1.0 0.0707572292
C  C172  1  0.06612000  0.51720000  0.15795000  1.0 0.0707572292
C  C173  1  0.41070000  0.87662000  0.64508000  1.0 -0.100797572
C  C174  1  0.87662000  0.41070000  0.85492000  1.0 -0.100797572
C  C175  1  0.58930000  0.12338000  0.35492000  1.0 -0.100797572
C  C176  1  0.12338000  0.58930000  0.14508000  1.0 -0.100797572
C  C177  1  0.40733000  0.95583000  0.65661000  1.0 -0.100797572
C  C178  1  0.95583000  0.40733000  0.84339000  1.0 -0.100797572
C  C179  1  0.59267000  0.04417000  0.34339000  1.0 -0.100797572
C  C180  1  0.04417000  0.59267000  0.15661000  1.0 -0.100797572
C  C181  1  0.60945000  0.00933000  0.66329000  1.0 0.0707572292
C  C182  1  0.00933000  0.60945000  0.83671000  1.0 0.0707572292
C  C183  1  0.39055000  0.99067000  0.33671000  1.0 0.0707572292
C  C184  1  0.99067000  0.39055000  0.16329000  1.0 0.0707572292
C  C185  1  0.56097000  0.99321000  0.65322000  1.0 -0.1965695355
C  C186  1  0.99321000  0.56097000  0.84678000  1.0 -0.1965695355
C  C187  1  0.43903000  0.00679000  0.34678000  1.0 -0.1965695355
C  C188  1  0.00679000  0.43903000  0.15322000  1.0 -0.1965695355
C  C189  1  0.63507000  0.05731000  0.65061000  1.0 0.0594037362
C  C190  1  0.05731000  0.63507000  0.84939000  1.0 0.0594037362
C  C191  1  0.36493000  0.94269000  0.34939000  1.0 0.0594037362
C  C192  1  0.94269000  0.36493000  0.15061000  1.0 0.0594037362
C  C193  1  0.61069000  0.09491000  0.64637000  1.0 -0.1585479219
C  C194  1  0.09491000  0.61069000  0.85363000  1.0 -0.1585479219
C  C195  1  0.38931000  0.90509000  0.35363000  1.0 -0.1585479219
C  C196  1  0.90509000  0.38931000  0.14637000  1.0 -0.1585479219
C  C197  1  0.68316000  0.06918000  0.64298000  1.0 -0.1511838944
C  C198  1  0.06918000  0.68316000  0.85702000  1.0 -0.1511838944
C  C199  1  0.31684000  0.93082000  0.35702000  1.0 -0.1511838944
C  C200  1  0.93082000  0.31684000  0.14298000  1.0 -0.1511838944
C  C201  1  0.70592000  0.11438000  0.63160000  1.0 -0.1092077527
C  C202  1  0.11438000  0.70592000  0.86840000  1.0 -0.1092077527
C  C203  1  0.29408000  0.88562000  0.36840000  1.0 -0.1092077527
C  C204  1  0.88562000  0.29408000  0.13160000  1.0 -0.1092077527
C  C205  1  0.68176000  0.15086000  0.62622000  1.0 -0.031733323
C  C206  1  0.15086000  0.68176000  0.87378000  1.0 -0.031733323
C  C207  1  0.31824000  0.84914000  0.37378000  1.0 -0.031733323
C  C208  1  0.84914000  0.31824000  0.12622000  1.0 -0.031733323
C  C209  1  0.63440000  0.14054000  0.63432000  1.0 -0.100797572
C  C210  1  0.14054000  0.63440000  0.86568000  1.0 -0.100797572
C  C211  1  0.36560000  0.85946000  0.36568000  1.0 -0.100797572
C  C212  1  0.85946000  0.36560000  0.13432000  1.0 -0.100797572
C  C213  1  0.70659000  0.20071000  0.61368000  1.0 0.5985361744
C  C214  1  0.20071000  0.70659000  0.88632000  1.0 0.5985361744
C  C215  1  0.29341000  0.79929000  0.38632000  1.0 0.5985361744
C  C216  1  0.79929000  0.29341000  0.11368000  1.0 0.5985361744
C  C217  1  0.72361000  0.60209000  0.82596000  1.0 -0.031733323
C  C218  1  0.60209000  0.72361000  0.67404000  1.0 -0.031733323
C  C219  1  0.27639000  0.39791000  0.17404000  1.0 -0.031733323
C  C220  1  0.39791000  0.27639000  0.32596000  1.0 -0.031733323
C  C221  1  0.71736000  0.65252000  0.82090000  1.0 0.5893013804
C  C222  1  0.65252000  0.71736000  0.67910000  1.0 0.5893013804
C  C223  1  0.28264000  0.34748000  0.17910000  1.0 0.5893013804
C  C224  1  0.34748000  0.28264000  0.32090000  1.0 0.5893013804
C  C225  1  0.74292000  0.58536000  0.86231000  1.0 -0.100797572
C  C226  1  0.58536000  0.74292000  0.63769000  1.0 -0.100797572
C  C227  1  0.25708000  0.41464000  0.13769000  1.0 -0.100797572
C  C228  1  0.41464000  0.25708000  0.36231000  1.0 -0.100797572
C  C229  1  0.74897000  0.53891000  0.86585000  1.0 -0.1685956365
C  C230  1  0.53891000  0.74897000  0.63415000  1.0 -0.1685956365
C  C231  1  0.25103000  0.46109000  0.13415000  1.0 -0.1685956365
C  C232  1  0.46109000  0.25103000  0.36585000  1.0 -0.1685956365
C  C233  1  0.71960000  0.52622000  0.79668000  1.0 -0.1685956365
C  C234  1  0.52622000  0.71960000  0.70332000  1.0 -0.1685956365
C  C235  1  0.28040000  0.47378000  0.20332000  1.0 -0.1685956365
C  C236  1  0.47378000  0.28040000  0.29668000  1.0 -0.1685956365
C  C237  1  0.73923000  0.50941000  0.83434000  1.0 0.0594037362
C  C238  1  0.50941000  0.73923000  0.66566000  1.0 0.0594037362
C  C239  1  0.26077000  0.49059000  0.16566000  1.0 0.0594037362
C  C240  1  0.49059000  0.26077000  0.33434000  1.0 0.0594037362
C  C241  1  0.74442000  0.45942000  0.83716000  1.0 0.0707572292
C  C242  1  0.45942000  0.74442000  0.66284000  1.0 0.0707572292
C  C243  1  0.25558000  0.54058000  0.16284000  1.0 0.0707572292
C  C244  1  0.54058000  0.25558000  0.33716000  1.0 0.0707572292
C  C245  1  0.73694000  0.43120000  0.87348000  1.0 -0.2078683968
C  C246  1  0.43120000  0.73694000  0.62652000  1.0 -0.2078683968
C  C247  1  0.26306000  0.56880000  0.12652000  1.0 -0.2078683968
C  C248  1  0.56880000  0.26306000  0.37348000  1.0 -0.2078683968
C  C249  1  0.74032000  0.38430000  0.87491000  1.0 0.0806137728
C  C250  1  0.38430000  0.74032000  0.62509000  1.0 0.0806137728
C  C251  1  0.25968000  0.61570000  0.12509000  1.0 0.0806137728
C  C252  1  0.61570000  0.25968000  0.37491000  1.0 0.0806137728
C  C253  1  0.73134000  0.35366000  0.91354000  1.0 0.0594037362
C  C254  1  0.35366000  0.73134000  0.58646000  1.0 0.0594037362
C  C255  1  0.26866000  0.64634000  0.08646000  1.0 0.0594037362
C  C256  1  0.64634000  0.26866000  0.41354000  1.0 0.0594037362
C  C257  1  0.70340000  0.36368000  0.94174000  1.0 -0.1585479219
C  C258  1  0.36368000  0.70340000  0.55826000  1.0 -0.1585479219
C  C259  1  0.29660000  0.63632000  0.05826000  1.0 -0.1585479219
C  C260  1  0.63632000  0.29660000  0.44174000  1.0 -0.1585479219
C  C261  1  0.75248000  0.31526000  0.92175000  1.0 -0.1511838944
C  C262  1  0.31526000  0.75248000  0.57825000  1.0 -0.1511838944
C  C263  1  0.24752000  0.68474000  0.07825000  1.0 -0.1511838944
C  C264  1  0.68474000  0.24752000  0.42175000  1.0 -0.1511838944
C  C265  1  0.74386000  0.28842000  0.95833000  1.0 -0.0809831491
C  C266  1  0.28842000  0.74386000  0.54167000  1.0 -0.0809831491
C  C267  1  0.25614000  0.71158000  0.04167000  1.0 -0.0809831491
C  C268  1  0.71158000  0.25614000  0.45833000  1.0 -0.0809831491
C  C269  1  0.69554000  0.33870000  0.97928000  1.0 -0.100797572
C  C270  1  0.33870000  0.69554000  0.52072000  1.0 -0.100797572
C  C271  1  0.30446000  0.66130000  0.02072000  1.0 -0.100797572
C  C272  1  0.66130000  0.30446000  0.47928000  1.0 -0.100797572
C  C273  1  0.75611000  0.43979000  0.80418000  1.0 -0.2078683968
C  C274  1  0.43979000  0.75611000  0.69582000  1.0 -0.2078683968
C  C275  1  0.24389000  0.56021000  0.19582000  1.0 -0.2078683968
C  C276  1  0.56021000  0.24389000  0.30418000  1.0 -0.2078683968
C  C277  1  0.75054000  0.36492000  0.84115000  1.0 -0.1886374499
C  C278  1  0.36492000  0.75054000  0.65885000  1.0 -0.1886374499
C  C279  1  0.24946000  0.63508000  0.15885000  1.0 -0.1886374499
C  C280  1  0.63508000  0.24946000  0.34115000  1.0 -0.1886374499
C  C281  1  0.75873000  0.39151000  0.80442000  1.0 0.0707572292
C  C282  1  0.39151000  0.75873000  0.69558000  1.0 0.0707572292
C  C283  1  0.24127000  0.60849000  0.19558000  1.0 0.0707572292
C  C284  1  0.60849000  0.24127000  0.30442000  1.0 0.0707572292
C  C285  1  0.76906000  0.37182000  0.76769000  1.0 0.0707572292
C  C286  1  0.37182000  0.76906000  0.73231000  1.0 0.0707572292
C  C287  1  0.23094000  0.62818000  0.23231000  1.0 0.0707572292
C  C288  1  0.62818000  0.23094000  0.26769000  1.0 0.0707572292
C  C289  1  0.79706000  0.33846000  0.76793000  1.0 -0.1511838944
C  C290  1  0.33846000  0.79706000  0.73207000  1.0 -0.1511838944
C  C291  1  0.20294000  0.66154000  0.23207000  1.0 -0.1511838944
C  C292  1  0.66154000  0.20294000  0.26793000  1.0 -0.1511838944
C  C293  1  0.80379000  0.31913000  0.73298000  1.0 -0.0809831491
C  C294  1  0.31913000  0.80379000  0.76702000  1.0 -0.0809831491
C  C295  1  0.19621000  0.68087000  0.26702000  1.0 -0.0809831491
C  C296  1  0.68087000  0.19621000  0.23298000  1.0 -0.0809831491
C  C297  1  0.78237000  0.33103000  0.69658000  1.0 -0.0433320492
C  C298  1  0.33103000  0.78237000  0.80342000  1.0 -0.0433320492
C  C299  1  0.21763000  0.66897000  0.30342000  1.0 -0.0433320492
C  C300  1  0.66897000  0.21763000  0.19658000  1.0 -0.0433320492
C  C301  1  0.75524000  0.36356000  0.69613000  1.0 -0.1092077527
C  C302  1  0.36356000  0.75524000  0.80387000  1.0 -0.1092077527
C  C303  1  0.24476000  0.63644000  0.30387000  1.0 -0.1092077527
C  C304  1  0.63644000  0.24476000  0.19613000  1.0 -0.1092077527
C  C305  1  0.74780000  0.38406000  0.73008000  1.0 -0.1511838944
C  C306  1  0.38406000  0.74780000  0.76992000  1.0 -0.1511838944
C  C307  1  0.25220000  0.61594000  0.26992000  1.0 -0.1511838944
C  C308  1  0.61594000  0.25220000  0.23008000  1.0 -0.1511838944
C  C309  1  0.71403000  0.57257000  0.79274000  1.0 -0.100797572
C  C310  1  0.57257000  0.71403000  0.70726000  1.0 -0.100797572
C  C311  1  0.28597000  0.42743000  0.20726000  1.0 -0.100797572
C  C312  1  0.42743000  0.28597000  0.29274000  1.0 -0.100797572
C  C313  1  0.33044000  0.89600000  0.64459000  1.0 0.5985361744
C  C314  1  0.89600000  0.33044000  0.85541000  1.0 0.5985361744
C  C315  1  0.66956000  0.10400000  0.35541000  1.0 0.5985361744
C  C316  1  0.10400000  0.66956000  0.14459000  1.0 0.5985361744
C  C317  1  0.38428000  0.90916000  0.64831000  1.0 -0.031733323
C  C318  1  0.90916000  0.38428000  0.85169000  1.0 -0.031733323
C  C319  1  0.61572000  0.09084000  0.35169000  1.0 -0.031733323
C  C320  1  0.09084000  0.61572000  0.14831000  1.0 -0.031733323
C  C321  1  0.78734000  0.30744000  0.65987000  1.0 0.5814976622
C  C322  1  0.30744000  0.78734000  0.84013000  1.0 0.5814976622
C  C323  1  0.21266000  0.69256000  0.34013000  1.0 0.5814976622
C  C324  1  0.69256000  0.21266000  0.15987000  1.0 0.5814976622
O  O1  1  0.78299000  0.76629000  0.84551000  1.0 -0.5602211538
O  O2  1  0.76629000  0.78299000  0.65449000  1.0 -0.5602211538
O  O3  1  0.21701000  0.23371000  0.15449000  1.0 -0.5602211538
O  O4  1  0.23371000  0.21701000  0.34551000  1.0 -0.5602211538
O  O5  1  0.79413000  0.74741000  0.78295000  1.0 -0.58033518
O  O6  1  0.74741000  0.79413000  0.71705000  1.0 -0.58033518
O  O7  1  0.20587000  0.25259000  0.21705000  1.0 -0.58033518
O  O8  1  0.25259000  0.20587000  0.28295000  1.0 -0.58033518
O  O9  1  0.71884000  0.67384000  0.85183000  1.0 -0.5602211538
O  O10  1  0.67384000  0.71884000  0.64817000  1.0 -0.5602211538
O  O11  1  0.28116000  0.32616000  0.14817000  1.0 -0.5602211538
O  O12  1  0.32616000  0.28116000  0.35183000  1.0 -0.5602211538
O  O13  1  0.71050000  0.66730000  0.78431000  1.0 -0.58033518
O  O14  1  0.66730000  0.71050000  0.71569000  1.0 -0.58033518
O  O15  1  0.28950000  0.33270000  0.21569000  1.0 -0.58033518
O  O16  1  0.33270000  0.28950000  0.28431000  1.0 -0.58033518
O  O17  1  0.69431000  0.76185000  0.79137000  1.0 -0.6101940941
O  O18  1  0.76185000  0.69431000  0.70863000  1.0 -0.6101940941
O  O19  1  0.30569000  0.23815000  0.20863000  1.0 -0.6101940941
O  O20  1  0.23815000  0.30569000  0.29137000  1.0 -0.6101940941
O  O21  1  0.70020000  0.81228000  0.83930000  1.0 -0.5498150657
O  O22  1  0.81228000  0.70020000  0.66070000  1.0 -0.5498150657
O  O23  1  0.29980000  0.18772000  0.16070000  1.0 -0.5498150657
O  O24  1  0.18772000  0.29980000  0.33930000  1.0 -0.5498150657
O  O25  1  0.68198000  0.23014000  0.60591000  1.0 -0.58033518
O  O26  1  0.23014000  0.68198000  0.89409000  1.0 -0.58033518
O  O27  1  0.31802000  0.76986000  0.39409000  1.0 -0.58033518
O  O28  1  0.76986000  0.31802000  0.10591000  1.0 -0.58033518
O  O29  1  0.75103000  0.20915000  0.61119000  1.0 -0.5602211538
O  O30  1  0.20915000  0.75103000  0.88881000  1.0 -0.5602211538
O  O31  1  0.24897000  0.79085000  0.38881000  1.0 -0.5602211538
O  O32  1  0.79085000  0.24897000  0.11119000  1.0 -0.5602211538
O  O33  1  0.18509000  0.76831000  0.08076000  1.0 -0.5404856275
O  O34  1  0.76831000  0.18509000  0.41924000  1.0 -0.5404856275
O  O35  1  0.81491000  0.23169000  0.91924000  1.0 -0.5404856275
O  O36  1  0.23169000  0.81491000  0.58076000  1.0 -0.5404856275
O  O37  1  0.12017000  0.77953000  0.10323000  1.0 -0.5905797552
O  O38  1  0.77953000  0.12017000  0.39677000  1.0 -0.5905797552
O  O39  1  0.87983000  0.22047000  0.89677000  1.0 -0.5905797552
O  O40  1  0.22047000  0.87983000  0.60323000  1.0 -0.5905797552
O  O41  1  0.20918000  0.91560000  0.68075000  1.0 -0.6227763365
O  O42  1  0.91560000  0.20918000  0.81925000  1.0 -0.6227763365
O  O43  1  0.79082000  0.08440000  0.31925000  1.0 -0.6227763365
O  O44  1  0.08440000  0.79082000  0.18075000  1.0 -0.6227763365
O  O45  1  0.23945000  0.85225000  0.69994000  1.0 -0.5683884244
O  O46  1  0.85225000  0.23945000  0.80006000  1.0 -0.5683884244
O  O47  1  0.76055000  0.14775000  0.30006000  1.0 -0.5683884244
O  O48  1  0.14775000  0.76055000  0.19994000  1.0 -0.5683884244
O  O49  1  0.31090000  0.85306000  0.63994000  1.0 -0.5602211538
O  O50  1  0.85306000  0.31090000  0.86006000  1.0 -0.5602211538
O  O51  1  0.68910000  0.14694000  0.36006000  1.0 -0.5602211538
O  O52  1  0.14694000  0.68910000  0.13994000  1.0 -0.5602211538
O  O53  1  0.31009000  0.92935000  0.64595000  1.0 -0.5905797552
O  O54  1  0.92935000  0.31009000  0.85405000  1.0 -0.5905797552
O  O55  1  0.68991000  0.07065000  0.35405000  1.0 -0.5905797552
O  O56  1  0.07065000  0.68991000  0.14595000  1.0 -0.5905797552
O  O57  1  0.81869000  0.28401000  0.65724000  1.0 -0.5284834872
O  O58  1  0.28401000  0.81869000  0.84276000  1.0 -0.5284834872
O  O59  1  0.18131000  0.71599000  0.34276000  1.0 -0.5284834872
O  O60  1  0.71599000  0.18131000  0.15724000  1.0 -0.5284834872
O  O61  1  0.68253000  0.28571000  0.05115000  1.0 -0.58033518
O  O62  1  0.28571000  0.68253000  0.44885000  1.0 -0.58033518
O  O63  1  0.31747000  0.71429000  0.94885000  1.0 -0.58033518
O  O64  1  0.71429000  0.31747000  0.55115000  1.0 -0.58033518
O  O65  1  0.73117000  0.23991000  0.03565000  1.0 -0.58033518
O  O66  1  0.23991000  0.73117000  0.46435000  1.0 -0.58033518
O  O67  1  0.26883000  0.76009000  0.96435000  1.0 -0.58033518
O  O68  1  0.76009000  0.26883000  0.53565000  1.0 -0.58033518
O  O69  1  0.75940000  0.31232000  0.62773000  1.0 -0.6551876138
O  O70  1  0.31232000  0.75940000  0.87227000  1.0 -0.6551876138
O  O71  1  0.24060000  0.68768000  0.37227000  1.0 -0.6551876138
O  O72  1  0.68768000  0.24060000  0.12773000  1.0 -0.6551876138
