# DDEC6 charges by PACMAN v1.1 (https://github.com/mtap-research/PACMAN-charge/)
data_AXIPEE02_FSR_pacman
_symmetry_space_group_name_H-M   'P 1'
_cell_length_a   22.76150000
_cell_length_b   22.76150000
_cell_length_c   32.32100000
_cell_angle_alpha   71.58250000
_cell_angle_beta   108.41800000
_cell_angle_gamma   142.50300000
_symmetry_Int_Tables_number   1
_chemical_formula_structural   FeH10Au2(C9N4)2
_chemical_formula_sum   'Fe12 H120 Au24 C216 N96'
_cell_volume   9608.96700509
_cell_formula_units_Z   12
loop_
 _symmetry_equiv_pos_site_id
 _symmetry_equiv_pos_as_xyz
  1  'x, y, z'
loop_
 _atom_site_type_symbol
 _atom_site_label
 _atom_site_symmetry_multiplicity
 _atom_site_fract_x
 _atom_site_fract_y
 _atom_site_fract_z
 _atom_site_occupancy
 _atom_site_charge
Fe  Fe1  1  0.26798000  0.27020000  0.94910000  1.0 0.5708914618
Fe  Fe2  1  0.27020000  0.26798000  0.55090000  1.0 0.5708914618
Fe  Fe3  1  0.73202000  0.72980000  0.05090000  1.0 0.5708914618
Fe  Fe4  1  0.72980000  0.73202000  0.44910000  1.0 0.5708914618
Fe  Fe5  1  0.06362000  0.39810000  0.04985000  1.0 0.8515360499
Fe  Fe6  1  0.39810000  0.06362000  0.45015000  1.0 0.8515360499
Fe  Fe7  1  0.93638000  0.60190000  0.95015000  1.0 0.8515360499
Fe  Fe8  1  0.60190000  0.93638000  0.54985000  1.0 0.8515360499
Fe  Fe9  1  0.60414000  0.93324000  0.95126000  1.0 0.5708914618
Fe  Fe10  1  0.93324000  0.60414000  0.54874000  1.0 0.5708914618
Fe  Fe11  1  0.39586000  0.06676000  0.04874000  1.0 0.5708914618
Fe  Fe12  1  0.06676000  0.39586000  0.45126000  1.0 0.5708914618
H  H1  1  0.28360000  0.24620000  0.86870000  1.0 0.1200468271
H  H2  1  0.24620000  0.28360000  0.63130000  1.0 0.1200468271
H  H3  1  0.71640000  0.75380000  0.13130000  1.0 0.1200468271
H  H4  1  0.75380000  0.71640000  0.36870000  1.0 0.1200468271
H  H5  1  0.19680000  0.33260000  0.88360000  1.0 0.1200468271
H  H6  1  0.33260000  0.19680000  0.61640000  1.0 0.1200468271
H  H7  1  0.80320000  0.66740000  0.11640000  1.0 0.1200468271
H  H8  1  0.66740000  0.80320000  0.38360000  1.0 0.1200468271
H  H9  1  0.25010000  0.26050000  0.79270000  1.0 0.1322886692
H  H10  1  0.26050000  0.25010000  0.70730000  1.0 0.1322886692
H  H11  1  0.74990000  0.73950000  0.20730000  1.0 0.1322886692
H  H12  1  0.73950000  0.74990000  0.29270000  1.0 0.1322886692
H  H13  1  0.15590000  0.34450000  0.80900000  1.0 0.1322886692
H  H14  1  0.34450000  0.15590000  0.69100000  1.0 0.1322886692
H  H15  1  0.84410000  0.65550000  0.19100000  1.0 0.1322886692
H  H16  1  0.65550000  0.84410000  0.30900000  1.0 0.1322886692
H  H17  1  0.05020000  0.26640000  0.74730000  1.0 0.1200468271
H  H18  1  0.26640000  0.05020000  0.75270000  1.0 0.1200468271
H  H19  1  0.94980000  0.73360000  0.25270000  1.0 0.1200468271
H  H20  1  0.73360000  0.94980000  0.24730000  1.0 0.1200468271
H  H21  1  0.01210000  0.27650000  0.67110000  1.0 0.1322886692
H  H22  1  0.27650000  0.01210000  0.82890000  1.0 0.1322886692
H  H23  1  0.98790000  0.72350000  0.32890000  1.0 0.1322886692
H  H24  1  0.72350000  0.98790000  0.17110000  1.0 0.1322886692
H  H25  1  0.24900000  0.44340000  0.59950000  1.0 0.1352016772
H  H26  1  0.44340000  0.24900000  0.90050000  1.0 0.1352016772
H  H27  1  0.75100000  0.55660000  0.40050000  1.0 0.1352016772
H  H28  1  0.55660000  0.75100000  0.09950000  1.0 0.1352016772
H  H29  1  0.96010000  0.22110000  0.60110000  1.0 0.1322886692
H  H30  1  0.22110000  0.96010000  0.89890000  1.0 0.1322886692
H  H31  1  0.03990000  0.77890000  0.39890000  1.0 0.1322886692
H  H32  1  0.77890000  0.03990000  0.10110000  1.0 0.1322886692
H  H33  1  0.22590000  0.47430000  0.52430000  1.0 0.1103918398
H  H34  1  0.47430000  0.22590000  0.97570000  1.0 0.1103918398
H  H35  1  0.77410000  0.52570000  0.47570000  1.0 0.1103918398
H  H36  1  0.52570000  0.77410000  0.02430000  1.0 0.1103918398
H  H37  1  0.94300000  0.25200000  0.52530000  1.0 0.1200468271
H  H38  1  0.25200000  0.94300000  0.97470000  1.0 0.1200468271
H  H39  1  0.05700000  0.74800000  0.47470000  1.0 0.1200468271
H  H40  1  0.74800000  0.05700000  0.02530000  1.0 0.1200468271
H  H41  1  0.13510000  0.33170000  0.11900000  1.0 0.1200468271
H  H42  1  0.33170000  0.13510000  0.38100000  1.0 0.1200468271
H  H43  1  0.86490000  0.66830000  0.88100000  1.0 0.1200468271
H  H44  1  0.66830000  0.86490000  0.61900000  1.0 0.1200468271
H  H45  1  0.05350000  0.42230000  0.13490000  1.0 0.1103918398
H  H46  1  0.42230000  0.05350000  0.36510000  1.0 0.1103918398
H  H47  1  0.94650000  0.57770000  0.86510000  1.0 0.1103918398
H  H48  1  0.57770000  0.94650000  0.63490000  1.0 0.1103918398
H  H49  1  0.17880000  0.32260000  0.19310000  1.0 0.1322886692
H  H50  1  0.32260000  0.17880000  0.30690000  1.0 0.1322886692
H  H51  1  0.82120000  0.67740000  0.80690000  1.0 0.1322886692
H  H52  1  0.67740000  0.82120000  0.69310000  1.0 0.1322886692
H  H53  1  0.09070000  0.41210000  0.21000000  1.0 0.1322886692
H  H54  1  0.41210000  0.09070000  0.29000000  1.0 0.1322886692
H  H55  1  0.90930000  0.58790000  0.79000000  1.0 0.1322886692
H  H56  1  0.58790000  0.90930000  0.71000000  1.0 0.1322886692
H  H57  1  0.28650000  0.40130000  0.25440000  1.0 0.1200468271
H  H58  1  0.40130000  0.28650000  0.24560000  1.0 0.1200468271
H  H59  1  0.71350000  0.59870000  0.74560000  1.0 0.1200468271
H  H60  1  0.59870000  0.71350000  0.75440000  1.0 0.1200468271
H  H61  1  0.32570000  0.39150000  0.33020000  1.0 0.1352016772
H  H62  1  0.39150000  0.32570000  0.16980000  1.0 0.1352016772
H  H63  1  0.67430000  0.60850000  0.66980000  1.0 0.1352016772
H  H64  1  0.60850000  0.67430000  0.83020000  1.0 0.1352016772
H  H65  1  0.37700000  0.44520000  0.40100000  1.0 0.1322886692
H  H66  1  0.44520000  0.37700000  0.09900000  1.0 0.1322886692
H  H67  1  0.62300000  0.55480000  0.59900000  1.0 0.1322886692
H  H68  1  0.55480000  0.62300000  0.90100000  1.0 0.1322886692
H  H69  1  0.08600000  0.21880000  0.40330000  1.0 0.1322886692
H  H70  1  0.21880000  0.08600000  0.09670000  1.0 0.1322886692
H  H71  1  0.91400000  0.78120000  0.59670000  1.0 0.1322886692
H  H72  1  0.78120000  0.91400000  0.90330000  1.0 0.1322886692
H  H73  1  0.39350000  0.41370000  0.47620000  1.0 0.1200468271
H  H74  1  0.41370000  0.39350000  0.02380000  1.0 0.1200468271
H  H75  1  0.60650000  0.58630000  0.52380000  1.0 0.1200468271
H  H76  1  0.58630000  0.60650000  0.97620000  1.0 0.1200468271
H  H77  1  0.11160000  0.18740000  0.47780000  1.0 0.1103918398
H  H78  1  0.18740000  0.11160000  0.02220000  1.0 0.1103918398
H  H79  1  0.88840000  0.81260000  0.52220000  1.0 0.1103918398
H  H80  1  0.81260000  0.88840000  0.97780000  1.0 0.1103918398
H  H81  1  0.62230000  0.91330000  0.87000000  1.0 0.1200468271
H  H82  1  0.91330000  0.62230000  0.63000000  1.0 0.1200468271
H  H83  1  0.37770000  0.08670000  0.13000000  1.0 0.1200468271
H  H84  1  0.08670000  0.37770000  0.37000000  1.0 0.1200468271
H  H85  1  0.53160000  0.99540000  0.88570000  1.0 0.1200468271
H  H86  1  0.99540000  0.53160000  0.61430000  1.0 0.1200468271
H  H87  1  0.46840000  0.00460000  0.11430000  1.0 0.1200468271
H  H88  1  0.00460000  0.46840000  0.38570000  1.0 0.1200468271
H  H89  1  0.58180000  0.92120000  0.79460000  1.0 0.1322886692
H  H90  1  0.92120000  0.58180000  0.70540000  1.0 0.1322886692
H  H91  1  0.41820000  0.07880000  0.20540000  1.0 0.1322886692
H  H92  1  0.07880000  0.41820000  0.29460000  1.0 0.1322886692
H  H93  1  0.48900000  0.00660000  0.81170000  1.0 0.1322886692
H  H94  1  0.00660000  0.48900000  0.68830000  1.0 0.1322886692
H  H95  1  0.51100000  0.99340000  0.18830000  1.0 0.1322886692
H  H96  1  0.99340000  0.51100000  0.31170000  1.0 0.1322886692
H  H97  1  0.38850000  0.93550000  0.75020000  1.0 0.1200468271
H  H98  1  0.93550000  0.38850000  0.74980000  1.0 0.1200468271
H  H99  1  0.61150000  0.06450000  0.24980000  1.0 0.1200468271
H  H100  1  0.06450000  0.61150000  0.25020000  1.0 0.1200468271
H  H101  1  0.34830000  0.94550000  0.67430000  1.0 0.1322886692
H  H102  1  0.94550000  0.34830000  0.82570000  1.0 0.1322886692
H  H103  1  0.65170000  0.05450000  0.32570000  1.0 0.1322886692
H  H104  1  0.05450000  0.65170000  0.17430000  1.0 0.1322886692
H  H105  1  0.57900000  0.09540000  0.60090000  1.0 0.1352016772
H  H106  1  0.09540000  0.57900000  0.89910000  1.0 0.1352016772
H  H107  1  0.42100000  0.90460000  0.39910000  1.0 0.1352016772
H  H108  1  0.90460000  0.42100000  0.10090000  1.0 0.1322886692
H  H109  1  0.29250000  0.89070000  0.60400000  1.0 0.1322886692
H  H110  1  0.89070000  0.29250000  0.89600000  1.0 0.1322886692
H  H111  1  0.70750000  0.10930000  0.39600000  1.0 0.1322886692
H  H112  1  0.10930000  0.70750000  0.10400000  1.0 0.1322886692
H  H113  1  0.55590000  0.12690000  0.52660000  1.0 0.1010123138
H  H114  1  0.12690000  0.55590000  0.97340000  1.0 0.1010123138
H  H115  1  0.44410000  0.87310000  0.47340000  1.0 0.1010123138
H  H116  1  0.87310000  0.44410000  0.02660000  1.0 0.1010123138
H  H117  1  0.27630000  0.92410000  0.52920000  1.0 0.1103918398
H  H118  1  0.92410000  0.27630000  0.97080000  1.0 0.1103918398
H  H119  1  0.72370000  0.07590000  0.47080000  1.0 0.1103918398
H  H120  1  0.07590000  0.72370000  0.02920000  1.0 0.1103918398
Au  Au1  1  0.93636000  0.09870000  0.95547000  1.0 -0.0413044752
Au  Au2  1  0.09870000  0.93636000  0.54453000  1.0 -0.0413044752
Au  Au3  1  0.06364000  0.90130000  0.04453000  1.0 -0.0413044752
Au  Au4  1  0.90130000  0.06364000  0.45547000  1.0 -0.0413044752
Au  Au5  1  0.90533000  0.06305000  0.05307000  1.0 -0.0208096237
Au  Au6  1  0.06305000  0.90533000  0.44693000  1.0 -0.0208096237
Au  Au7  1  0.09467000  0.93695000  0.94693000  1.0 -0.0208096237
Au  Au8  1  0.93695000  0.09467000  0.55307000  1.0 -0.0208096237
Au  Au9  1  0.42707000  0.59877000  0.94743000  1.0 -0.0294077197
Au  Au10  1  0.59877000  0.42707000  0.55257000  1.0 -0.0294077197
Au  Au11  1  0.57293000  0.40123000  0.05257000  1.0 -0.0208096237
Au  Au12  1  0.40123000  0.57293000  0.44743000  1.0 -0.0294077197
Au  Au13  1  0.40104000  0.56760000  0.04456000  1.0 -0.0294077197
Au  Au14  1  0.56760000  0.40104000  0.45544000  1.0 -0.0294077197
Au  Au15  1  0.59896000  0.43240000  0.95544000  1.0 -0.0294077197
Au  Au16  1  0.43240000  0.59896000  0.54456000  1.0 -0.0294077197
Au  Au17  1  0.27591000  0.76869000  0.95653000  1.0 -0.0294077197
Au  Au18  1  0.76869000  0.27591000  0.54347000  1.0 -0.0294077197
Au  Au19  1  0.72409000  0.23131000  0.04347000  1.0 -0.0294077197
Au  Au20  1  0.23131000  0.72409000  0.45653000  1.0 -0.0294077197
Au  Au21  1  0.24203000  0.74021000  0.05223000  1.0 -0.0097965683
Au  Au22  1  0.74021000  0.24203000  0.44777000  1.0 -0.0097965683
Au  Au23  1  0.75797000  0.25979000  0.94777000  1.0 -0.0097965683
Au  Au24  1  0.25979000  0.75797000  0.55223000  1.0 -0.0097965683
C  C1  1  0.06610000  0.16130000  0.95790000  1.0 0.0705317826
C  C2  1  0.16130000  0.06610000  0.54210000  1.0 0.0705317826
C  C3  1  0.93390000  0.83870000  0.04210000  1.0 0.0705317826
C  C4  1  0.83870000  0.93390000  0.45790000  1.0 0.0705317826
C  C5  1  0.16440000  0.07160000  0.94290000  1.0 0.0621270209
C  C6  1  0.07160000  0.16440000  0.55710000  1.0 0.0621270209
C  C7  1  0.83560000  0.92840000  0.05710000  1.0 0.0621270209
C  C8  1  0.92840000  0.83560000  0.44290000  1.0 0.0621270209
C  C9  1  0.46880000  0.37340000  0.94710000  1.0 0.0409382912
C  C10  1  0.37340000  0.46880000  0.55290000  1.0 0.0409382912
C  C11  1  0.53120000  0.62660000  0.05290000  1.0 0.0409382912
C  C12  1  0.62660000  0.53120000  0.44710000  1.0 0.0409382912
C  C13  1  0.36200000  0.46900000  0.94940000  1.0 0.0491775637
C  C14  1  0.46900000  0.36200000  0.55060000  1.0 0.0491775637
C  C15  1  0.63800000  0.53100000  0.05060000  1.0 0.0491775637
C  C16  1  0.53100000  0.63800000  0.44940000  1.0 0.0491775637
C  C17  1  0.96740000  0.19000000  0.04910000  1.0 0.0409382912
C  C18  1  0.19000000  0.96740000  0.45090000  1.0 0.0409382912
C  C19  1  0.03260000  0.81000000  0.95090000  1.0 0.0409382912
C  C20  1  0.81000000  0.03260000  0.54910000  1.0 0.0409382912
C  C21  1  0.27590000  0.51030000  0.04100000  1.0 0.0705317826
C  C22  1  0.51030000  0.27590000  0.45900000  1.0 0.0705317826
C  C23  1  0.72410000  0.48970000  0.95900000  1.0 0.0705317826
C  C24  1  0.48970000  0.72410000  0.54100000  1.0 0.0705317826
C  C25  1  0.17520000  0.61080000  0.05630000  1.0 0.0621270209
C  C26  1  0.61080000  0.17520000  0.44370000  1.0 0.0621270209
C  C27  1  0.82480000  0.38920000  0.94370000  1.0 0.0621270209
C  C28  1  0.38920000  0.82480000  0.55630000  1.0 0.0621270209
C  C29  1  0.84870000  0.28750000  0.05210000  1.0 0.0409382912
C  C30  1  0.28750000  0.84870000  0.44790000  1.0 0.0409382912
C  C31  1  0.15130000  0.71250000  0.94790000  1.0 0.0409382912
C  C32  1  0.71250000  0.15130000  0.55210000  1.0 0.0409382912
C  C33  1  0.49830000  0.73190000  0.94470000  1.0 0.0491775637
C  C34  1  0.73190000  0.49830000  0.55530000  1.0 0.0491775637
C  C35  1  0.50170000  0.26810000  0.05530000  1.0 0.0491775637
C  C36  1  0.26810000  0.50170000  0.44470000  1.0 0.0491775637
C  C37  1  0.40700000  0.82980000  0.96050000  1.0 0.0705317826
C  C38  1  0.82980000  0.40700000  0.53950000  1.0 0.0705317826
C  C39  1  0.59300000  0.17020000  0.03950000  1.0 0.0705317826
C  C40  1  0.17020000  0.59300000  0.46050000  1.0 0.0705317826
C  C41  1  0.69470000  0.12870000  0.95130000  1.0 0.0491775637
C  C42  1  0.12870000  0.69470000  0.54870000  1.0 0.0491775637
C  C43  1  0.30530000  0.87130000  0.04870000  1.0 0.0491775637
C  C44  1  0.87130000  0.30530000  0.45130000  1.0 0.0491775637
C  C45  1  0.80730000  0.03830000  0.94890000  1.0 0.0491775637
C  C46  1  0.03830000  0.80730000  0.55110000  1.0 0.0491775637
C  C47  1  0.19270000  0.96170000  0.05110000  1.0 0.0491775637
C  C48  1  0.96170000  0.19270000  0.44890000  1.0 0.0491775637
C  C49  1  0.25730000  0.26630000  0.85630000  1.0 0.1010123138
C  C50  1  0.26630000  0.25730000  0.64370000  1.0 0.1010123138
C  C51  1  0.74270000  0.73370000  0.14370000  1.0 0.1010123138
C  C52  1  0.73370000  0.74270000  0.35630000  1.0 0.1010123138
C  C53  1  0.20590000  0.31590000  0.86490000  1.0 0.0891483849
C  C54  1  0.31590000  0.20590000  0.63510000  1.0 0.0891483849
C  C55  1  0.79410000  0.68410000  0.13510000  1.0 0.0891483849
C  C56  1  0.68410000  0.79410000  0.36490000  1.0 0.0891483849
C  C57  1  0.23610000  0.27330000  0.81080000  1.0 -0.1700685618
C  C58  1  0.27330000  0.23610000  0.68920000  1.0 -0.1700685618
C  C59  1  0.76390000  0.72670000  0.18920000  1.0 -0.1700685618
C  C60  1  0.72670000  0.76390000  0.31080000  1.0 -0.1700685618
C  C61  1  0.18150000  0.32330000  0.82050000  1.0 -0.1894698744
C  C62  1  0.32330000  0.18150000  0.67950000  1.0 -0.1894698744
C  C63  1  0.81850000  0.67670000  0.17950000  1.0 -0.1894698744
C  C64  1  0.67670000  0.81850000  0.32050000  1.0 -0.1894698744
C  C65  1  0.19450000  0.29930000  0.79240000  1.0 0.0794455752
C  C66  1  0.29930000  0.19450000  0.70760000  1.0 0.0794455752
C  C67  1  0.80550000  0.70070000  0.20760000  1.0 0.0794455752
C  C68  1  0.70070000  0.80550000  0.29240000  1.0 0.0794455752
C  C69  1  0.16630000  0.30390000  0.74450000  1.0 0.1705879266
C  C70  1  0.30390000  0.16630000  0.75550000  1.0 0.1705879266
C  C71  1  0.83370000  0.69610000  0.25550000  1.0 0.1705879266
C  C72  1  0.69610000  0.83370000  0.24450000  1.0 0.1705879266
C  C73  1  0.08720000  0.28380000  0.72810000  1.0 -0.1495809502
C  C74  1  0.28380000  0.08720000  0.77190000  1.0 -0.1495809502
C  C75  1  0.91280000  0.71620000  0.27190000  1.0 -0.1495809502
C  C76  1  0.71620000  0.91280000  0.22810000  1.0 -0.1495809502
C  C77  1  0.06520000  0.28980000  0.68380000  1.0 -0.1495809502
C  C78  1  0.28980000  0.06520000  0.81620000  1.0 -0.1495809502
C  C79  1  0.93480000  0.71020000  0.31620000  1.0 -0.1495809502
C  C80  1  0.71020000  0.93480000  0.18380000  1.0 -0.1495809502
C  C81  1  0.12300000  0.31600000  0.65750000  1.0 0.1800780514
C  C82  1  0.31600000  0.12300000  0.84250000  1.0 0.1800780514
C  C83  1  0.87700000  0.68400000  0.34250000  1.0 0.1800780514
C  C84  1  0.68400000  0.87700000  0.15750000  1.0 0.1800780514
C  C85  1  0.10730000  0.33030000  0.60910000  1.0 0.0705317826
C  C86  1  0.33030000  0.10730000  0.89090000  1.0 0.0705317826
C  C87  1  0.89270000  0.66970000  0.39090000  1.0 0.0705317826
C  C88  1  0.66970000  0.89270000  0.10910000  1.0 0.0705317826
C  C89  1  0.18510000  0.40410000  0.58520000  1.0 -0.1700685618
C  C90  1  0.40410000  0.18510000  0.91480000  1.0 -0.1700685618
C  C91  1  0.81490000  0.59590000  0.41480000  1.0 -0.1700685618
C  C92  1  0.59590000  0.81490000  0.08520000  1.0 -0.1700685618
C  C93  1  0.01610000  0.27350000  0.58600000  1.0 -0.1814475959
C  C94  1  0.27350000  0.01610000  0.91400000  1.0 -0.1814475959
C  C95  1  0.98390000  0.72650000  0.41400000  1.0 -0.1814475959
C  C96  1  0.72650000  0.98390000  0.08600000  1.0 -0.1814475959
C  C97  1  0.17060000  0.42140000  0.53990000  1.0 0.1010123138
C  C98  1  0.42140000  0.17060000  0.96010000  1.0 0.1010123138
C  C99  1  0.82940000  0.57860000  0.46010000  1.0 0.1010123138
C  C100  1  0.57860000  0.82940000  0.03990000  1.0 0.1010123138
C  C101  1  0.00640000  0.29300000  0.54060000  1.0 0.0705317826
C  C102  1  0.29300000  0.00640000  0.95940000  1.0 0.0705317826
C  C103  1  0.99360000  0.70700000  0.45940000  1.0 0.0705317826
C  C104  1  0.70700000  0.99360000  0.04060000  1.0 0.0705317826
C  C105  1  0.12740000  0.34980000  0.13770000  1.0 0.0891483849
C  C106  1  0.34980000  0.12740000  0.36230000  1.0 0.0891483849
C  C107  1  0.87260000  0.65020000  0.86230000  1.0 0.0891483849
C  C108  1  0.65020000  0.87260000  0.63770000  1.0 0.0891483849
C  C109  1  0.07970000  0.40170000  0.14710000  1.0 0.1010123138
C  C110  1  0.40170000  0.07970000  0.35290000  1.0 0.1010123138
C  C111  1  0.92030000  0.59830000  0.85290000  1.0 0.1010123138
C  C112  1  0.59830000  0.92030000  0.64710000  1.0 0.1010123138
C  C113  1  0.15320000  0.34360000  0.18180000  1.0 -0.1814475959
C  C114  1  0.34360000  0.15320000  0.31820000  1.0 -0.1814475959
C  C115  1  0.84680000  0.65640000  0.81820000  1.0 -0.1814475959
C  C116  1  0.65640000  0.84680000  0.68180000  1.0 -0.1814475959
C  C117  1  0.10210000  0.39650000  0.19200000  1.0 -0.1700685618
C  C118  1  0.39650000  0.10210000  0.30800000  1.0 -0.1700685618
C  C119  1  0.89790000  0.60350000  0.80800000  1.0 -0.1700685618
C  C120  1  0.60350000  0.89790000  0.69200000  1.0 -0.1700685618
C  C121  1  0.14140000  0.36820000  0.21010000  1.0 0.0891483849
C  C122  1  0.36820000  0.14140000  0.28990000  1.0 0.0891483849
C  C123  1  0.85860000  0.63180000  0.78990000  1.0 0.0891483849
C  C124  1  0.63180000  0.85860000  0.71010000  1.0 0.0891483849
C  C125  1  0.17200000  0.36440000  0.25780000  1.0 0.1614807988
C  C126  1  0.36440000  0.17200000  0.24220000  1.0 0.1614807988
C  C127  1  0.82800000  0.63560000  0.74220000  1.0 0.1614807988
C  C128  1  0.63560000  0.82800000  0.75780000  1.0 0.1614807988
C  C129  1  0.24970000  0.38390000  0.27380000  1.0 -0.1495809502
C  C130  1  0.38390000  0.24970000  0.22620000  1.0 -0.1495809502
C  C131  1  0.75030000  0.61610000  0.72620000  1.0 -0.1495809502
C  C132  1  0.61610000  0.75030000  0.77380000  1.0 -0.1495809502
C  C133  1  0.27230000  0.37770000  0.31800000  1.0 -0.1565446813
C  C134  1  0.37770000  0.27230000  0.18200000  1.0 -0.1565446813
C  C135  1  0.72770000  0.62230000  0.68200000  1.0 -0.1565446813
C  C136  1  0.62230000  0.72770000  0.81800000  1.0 -0.1565446813
C  C137  1  0.21450000  0.35050000  0.34500000  1.0 0.1800780514
C  C138  1  0.35050000  0.21450000  0.15500000  1.0 0.1800780514
C  C139  1  0.78550000  0.64950000  0.65500000  1.0 0.1800780514
C  C140  1  0.64950000  0.78550000  0.84500000  1.0 0.1800780514
C  C141  1  0.22930000  0.33510000  0.39340000  1.0 0.0705317826
C  C142  1  0.33510000  0.22930000  0.10660000  1.0 0.0705317826
C  C143  1  0.77070000  0.66490000  0.60660000  1.0 0.0705317826
C  C144  1  0.66490000  0.77070000  0.89340000  1.0 0.0705317826
C  C145  1  0.32090000  0.39230000  0.41610000  1.0 -0.1814475959
C  C146  1  0.39230000  0.32090000  0.08390000  1.0 -0.1814475959
C  C147  1  0.67910000  0.60770000  0.58390000  1.0 -0.1814475959
C  C148  1  0.60770000  0.67910000  0.91610000  1.0 -0.1814475959
C  C149  1  0.15010000  0.25870000  0.41740000  1.0 -0.1700685618
C  C150  1  0.25870000  0.15010000  0.08260000  1.0 -0.1700685618
C  C151  1  0.84990000  0.74130000  0.58260000  1.0 -0.1700685618
C  C152  1  0.74130000  0.84990000  0.91740000  1.0 -0.1700685618
C  C153  1  0.33000000  0.37200000  0.46100000  1.0 0.0621270209
C  C154  1  0.37200000  0.33000000  0.03900000  1.0 0.0621270209
C  C155  1  0.67000000  0.62800000  0.53900000  1.0 0.0621270209
C  C156  1  0.62800000  0.67000000  0.96100000  1.0 0.0621270209
C  C157  1  0.16680000  0.24180000  0.46220000  1.0 0.1010123138
C  C158  1  0.24180000  0.16680000  0.03780000  1.0 0.1010123138
C  C159  1  0.83320000  0.75820000  0.53780000  1.0 0.1010123138
C  C160  1  0.75820000  0.83320000  0.96220000  1.0 0.1010123138
C  C161  1  0.59310000  0.93070000  0.85790000  1.0 0.1010123138
C  C162  1  0.93070000  0.59310000  0.64210000  1.0 0.1010123138
C  C163  1  0.40690000  0.06930000  0.14210000  1.0 0.1010123138
C  C164  1  0.06930000  0.40690000  0.35790000  1.0 0.1010123138
C  C165  1  0.54030000  0.97850000  0.86680000  1.0 0.0794455752
C  C166  1  0.97850000  0.54030000  0.63320000  1.0 0.0794455752
C  C167  1  0.45970000  0.02150000  0.13320000  1.0 0.0794455752
C  C168  1  0.02150000  0.45970000  0.36680000  1.0 0.0794455752
C  C169  1  0.56980000  0.93580000  0.81280000  1.0 -0.1700685618
C  C170  1  0.93580000  0.56980000  0.68720000  1.0 -0.1700685618
C  C171  1  0.43020000  0.06420000  0.18720000  1.0 -0.1700685618
C  C172  1  0.06420000  0.43020000  0.31280000  1.0 -0.1700685618
C  C173  1  0.51500000  0.98600000  0.82280000  1.0 -0.1894698744
C  C174  1  0.98600000  0.51500000  0.67720000  1.0 -0.1894698744
C  C175  1  0.48500000  0.01400000  0.17720000  1.0 -0.1894698744
C  C176  1  0.01400000  0.48500000  0.32280000  1.0 -0.1894698744
C  C177  1  0.52840000  0.96260000  0.79450000  1.0 0.0891483849
C  C178  1  0.96260000  0.52840000  0.70550000  1.0 0.0891483849
C  C179  1  0.47160000  0.03740000  0.20550000  1.0 0.0891483849
C  C180  1  0.03740000  0.47160000  0.29450000  1.0 0.0891483849
C  C181  1  0.49900000  0.96740000  0.74650000  1.0 0.1614807988
C  C182  1  0.96740000  0.49900000  0.75350000  1.0 0.1614807988
C  C183  1  0.50100000  0.03260000  0.25350000  1.0 0.1614807988
C  C184  1  0.03260000  0.50100000  0.24650000  1.0 0.1614807988
C  C185  1  0.42350000  0.95070000  0.73060000  1.0 -0.1495809502
C  C186  1  0.95070000  0.42350000  0.76940000  1.0 -0.1495809502
C  C187  1  0.57650000  0.04930000  0.26940000  1.0 -0.1495809502
C  C188  1  0.04930000  0.57650000  0.23060000  1.0 -0.1495809502
C  C189  1  0.39990000  0.95630000  0.68660000  1.0 -0.1565446813
C  C190  1  0.95630000  0.39990000  0.81340000  1.0 -0.1495809502
C  C191  1  0.60010000  0.04370000  0.31340000  1.0 -0.1495809502
C  C192  1  0.04370000  0.60010000  0.18660000  1.0 -0.1495809502
C  C193  1  0.45560000  0.97900000  0.65980000  1.0 0.1800780514
C  C194  1  0.97900000  0.45560000  0.84020000  1.0 0.1800780514
C  C195  1  0.54440000  0.02100000  0.34020000  1.0 0.1800780514
C  C196  1  0.02100000  0.54440000  0.15980000  1.0 0.1800780514
C  C197  1  0.43910000  0.99290000  0.61150000  1.0 0.0794455752
C  C198  1  0.99290000  0.43910000  0.88850000  1.0 0.0794455752
C  C199  1  0.56090000  0.00710000  0.38850000  1.0 0.0794455752
C  C200  1  0.00710000  0.56090000  0.11150000  1.0 0.0794455752
C  C201  1  0.51580000  0.06060000  0.58710000  1.0 -0.1565446813
C  C202  1  0.06060000  0.51580000  0.91290000  1.0 -0.1565446813
C  C203  1  0.48420000  0.93940000  0.41290000  1.0 -0.1565446813
C  C204  1  0.93940000  0.48420000  0.08710000  1.0 -0.1565446813
C  C205  1  0.34840000  0.94060000  0.58870000  1.0 -0.1814475959
C  C206  1  0.94060000  0.34840000  0.91130000  1.0 -0.1814475959
C  C207  1  0.65160000  0.05940000  0.41130000  1.0 -0.1814475959
C  C208  1  0.05940000  0.65160000  0.08870000  1.0 -0.1814475959
C  C209  1  0.50090000  0.07790000  0.54240000  1.0 0.1010123138
C  C210  1  0.07790000  0.50090000  0.95760000  1.0 0.1010123138
C  C211  1  0.49910000  0.92210000  0.45760000  1.0 0.1010123138
C  C212  1  0.92210000  0.49910000  0.04240000  1.0 0.1010123138
C  C213  1  0.33940000  0.96120000  0.54410000  1.0 0.0705317826
C  C214  1  0.96120000  0.33940000  0.95590000  1.0 0.0705317826
C  C215  1  0.66060000  0.03880000  0.45590000  1.0 0.0705317826
C  C216  1  0.03880000  0.66060000  0.04410000  1.0 0.0705317826
N  N1  1  0.14040000  0.20060000  0.95590000  1.0 -0.2882084086
N  N2  1  0.20060000  0.14040000  0.54410000  1.0 -0.2882084086
N  N3  1  0.85960000  0.79940000  0.04410000  1.0 -0.2882084086
N  N4  1  0.79940000  0.85960000  0.45590000  1.0 -0.2882084086
N  N5  1  0.20567000  0.14573000  0.94470000  1.0 -0.3003150021
N  N6  1  0.14573000  0.20567000  0.55530000  1.0 -0.3003150021
N  N7  1  0.79433000  0.85427000  0.05530000  1.0 -0.3003150021
N  N8  1  0.85427000  0.79433000  0.44470000  1.0 -0.3003150021
N  N9  1  0.39518000  0.33802000  0.94510000  1.0 -0.3003150021
N  N10  1  0.33802000  0.39518000  0.55490000  1.0 -0.3003150021
N  N11  1  0.60482000  0.66198000  0.05490000  1.0 -0.3003150021
N  N12  1  0.66198000  0.60482000  0.44510000  1.0 -0.3003150021
N  N13  1  0.32769000  0.39551000  0.95110000  1.0 -0.3088053172
N  N14  1  0.39551000  0.32769000  0.54890000  1.0 -0.3088053172
N  N15  1  0.67231000  0.60449000  0.04890000  1.0 -0.3088053172
N  N16  1  0.60449000  0.67231000  0.45110000  1.0 -0.3088053172
N  N17  1  0.00160000  0.26540000  0.04760000  1.0 -0.3855166738
N  N18  1  0.26540000  0.00160000  0.45240000  1.0 -0.3855166738
N  N19  1  0.99840000  0.73460000  0.95240000  1.0 -0.3855166738
N  N20  1  0.73460000  0.99840000  0.54760000  1.0 -0.3855166738
N  N21  1  0.19920000  0.47160000  0.04130000  1.0 -0.3718377357
N  N22  1  0.47160000  0.19920000  0.45870000  1.0 -0.3718377357
N  N23  1  0.80080000  0.52840000  0.95870000  1.0 -0.3718377357
N  N24  1  0.52840000  0.80080000  0.54130000  1.0 -0.3718377357
N  N25  1  0.13130000  0.53170000  0.05610000  1.0 -0.377434697
N  N26  1  0.53170000  0.13130000  0.44390000  1.0 -0.377434697
N  N27  1  0.86870000  0.46830000  0.94390000  1.0 -0.377434697
N  N28  1  0.46830000  0.86870000  0.55610000  1.0 -0.377434697
N  N29  1  0.92510000  0.32330000  0.05570000  1.0 -0.377434697
N  N30  1  0.32330000  0.92510000  0.44430000  1.0 -0.377434697
N  N31  1  0.07490000  0.67670000  0.94430000  1.0 -0.377434697
N  N32  1  0.67670000  0.07490000  0.55570000  1.0 -0.3718377357
N  N33  1  0.54087000  0.80793000  0.94640000  1.0 -0.3003150021
N  N34  1  0.80793000  0.54087000  0.55360000  1.0 -0.3003150021
N  N35  1  0.45913000  0.19207000  0.05360000  1.0 -0.3003150021
N  N36  1  0.19207000  0.45913000  0.44640000  1.0 -0.3003150021
N  N37  1  0.47825000  0.86515000  0.95830000  1.0 -0.2882084086
N  N38  1  0.86515000  0.47825000  0.54170000  1.0 -0.2849423592
N  N39  1  0.52175000  0.13485000  0.04170000  1.0 -0.2882084086
N  N40  1  0.13485000  0.52175000  0.45830000  1.0 -0.2882084086
N  N41  1  0.66277000  0.05683000  0.95330000  1.0 -0.3003150021
N  N42  1  0.05683000  0.66277000  0.54670000  1.0 -0.3003150021
N  N43  1  0.33723000  0.94317000  0.04670000  1.0 -0.3003150021
N  N44  1  0.94317000  0.33723000  0.45330000  1.0 -0.3003150021
N  N45  1  0.73280000  0.00200000  0.94630000  1.0 -0.3003150021
N  N46  1  0.00200000  0.73280000  0.55370000  1.0 -0.3003150021
N  N47  1  0.26720000  0.99800000  0.05370000  1.0 -0.3003150021
N  N48  1  0.99800000  0.26720000  0.44630000  1.0 -0.3003150021
N  N49  1  0.24196000  0.28644000  0.88300000  1.0 -0.1495809502
N  N50  1  0.28644000  0.24196000  0.61700000  1.0 -0.1495809502
N  N51  1  0.75804000  0.71356000  0.11700000  1.0 -0.1495809502
N  N52  1  0.71356000  0.75804000  0.38300000  1.0 -0.1495809502
N  N53  1  0.21600000  0.32440000  0.71800000  1.0 -0.1495809502
N  N54  1  0.32440000  0.21600000  0.78200000  1.0 -0.1495809502
N  N55  1  0.78400000  0.67560000  0.28200000  1.0 -0.1495809502
N  N56  1  0.67560000  0.78400000  0.21800000  1.0 -0.1495809502
N  N57  1  0.19520000  0.33240000  0.67390000  1.0 -0.1565446813
N  N58  1  0.33240000  0.19520000  0.82610000  1.0 -0.1565446813
N  N59  1  0.80480000  0.66760000  0.32610000  1.0 -0.1565446813
N  N60  1  0.66760000  0.80480000  0.17390000  1.0 -0.1565446813
N  N61  1  0.08362000  0.36798000  0.51770000  1.0 -0.1406414376
N  N62  1  0.36798000  0.08362000  0.98230000  1.0 -0.1406414376
N  N63  1  0.91638000  0.63202000  0.48230000  1.0 -0.1406414376
N  N64  1  0.63202000  0.91638000  0.01770000  1.0 -0.1406414376
N  N65  1  0.09218000  0.37982000  0.11960000  1.0 -0.2095208993
N  N66  1  0.37982000  0.09218000  0.38040000  1.0 -0.2095208993
N  N67  1  0.90782000  0.62018000  0.88040000  1.0 -0.2095208993
N  N68  1  0.62018000  0.90782000  0.61960000  1.0 -0.2095208993
N  N69  1  0.12040000  0.34220000  0.28450000  1.0 -0.1495809502
N  N70  1  0.34220000  0.12040000  0.21550000  1.0 -0.1495809502
N  N71  1  0.87960000  0.65780000  0.71550000  1.0 -0.1406414376
N  N72  1  0.65780000  0.87960000  0.78450000  1.0 -0.1406414376
N  N73  1  0.14250000  0.33490000  0.32840000  1.0 -0.1495809502
N  N74  1  0.33490000  0.14250000  0.17160000  1.0 -0.1495809502
N  N75  1  0.85750000  0.66510000  0.67160000  1.0 -0.1495809502
N  N76  1  0.66510000  0.85750000  0.82840000  1.0 -0.1495809502
N  N77  1  0.25300000  0.29540000  0.48480000  1.0 -0.1406414376
N  N78  1  0.29540000  0.25300000  0.01520000  1.0 -0.1406414376
N  N79  1  0.74700000  0.70460000  0.51520000  1.0 -0.1406414376
N  N80  1  0.70460000  0.74700000  0.98480000  1.0 -0.1406414376
N  N81  1  0.57674000  0.94906000  0.88530000  1.0 -0.1495809502
N  N82  1  0.94906000  0.57674000  0.61470000  1.0 -0.1495809502
N  N83  1  0.42326000  0.05094000  0.11470000  1.0 -0.1495809502
N  N84  1  0.05094000  0.42326000  0.38530000  1.0 -0.1495809502
N  N85  1  0.54760000  0.98560000  0.72020000  1.0 -0.1406414376
N  N86  1  0.98560000  0.54760000  0.77980000  1.0 -0.1406414376
N  N87  1  0.45240000  0.01440000  0.27980000  1.0 -0.1406414376
N  N88  1  0.01440000  0.45240000  0.22020000  1.0 -0.1406414376
N  N89  1  0.52640000  0.99300000  0.67620000  1.0 -0.1495809502
N  N90  1  0.99300000  0.52640000  0.82380000  1.0 -0.1495809502
N  N91  1  0.47360000  0.00700000  0.32380000  1.0 -0.1495809502
N  N92  1  0.00700000  0.47360000  0.17620000  1.0 -0.1495809502
N  N93  1  0.41550000  0.03130000  0.51990000  1.0 -0.2095208993
N  N94  1  0.03130000  0.41550000  0.98010000  1.0 -0.2095208993
N  N95  1  0.58450000  0.96870000  0.48010000  1.0 -0.2095208993
N  N96  1  0.96870000  0.58450000  0.01990000  1.0 -0.2095208993
