# DDEC6 charges by PACMAN v1.1 (https://github.com/mtap-research/PACMAN-charge/)
data_AXUHEH_ASR_pacman
_symmetry_space_group_name_H-M   'P 1'
_cell_length_a   12.72590000
_cell_length_b   36.79320000
_cell_length_c   20.46260000
_cell_angle_alpha   90.00000000
_cell_angle_beta   116.10400000
_cell_angle_gamma   90.00000000
_symmetry_Int_Tables_number   1
_chemical_formula_structural   Na2Co3H150C138S8(N2O7)4
_chemical_formula_sum   'Na4 Co6 H300 C276 S16 N16 O56'
_cell_volume   8603.82761465
_cell_formula_units_Z   2
loop_
 _symmetry_equiv_pos_site_id
 _symmetry_equiv_pos_as_xyz
  1  'x, y, z'
loop_
 _atom_site_type_symbol
 _atom_site_label
 _atom_site_symmetry_multiplicity
 _atom_site_fract_x
 _atom_site_fract_y
 _atom_site_fract_z
 _atom_site_occupancy
 _atom_site_charge
Na  Na1  1  0.01480000  0.84611000  0.98074000  1.0 0.8382441774
Na  Na2  1  0.98520000  0.34611000  0.51926000  1.0 0.8382441774
Na  Na3  1  0.98520000  0.15389000  0.01926000  1.0 0.8382441774
Na  Na4  1  0.01480000  0.65389000  0.48074000  1.0 0.8382441774
Co  Co1  1  0.00000000  0.00000000  0.00000000  1.0 0.7882550881
Co  Co2  1  0.00000000  0.50000000  0.50000000  1.0 0.7882550881
Co  Co3  1  0.75162000  0.71069000  0.17109000  1.0 0.8823928759
Co  Co4  1  0.24838000  0.21069000  0.32891000  1.0 0.8823928759
Co  Co5  1  0.24838000  0.28931000  0.82891000  1.0 0.8823928759
Co  Co6  1  0.75162000  0.78931000  0.67109000  1.0 0.8823928759
H  H1  1  0.27590000  0.79660000  0.29790000  1.0 0.1191972054
H  H2  1  0.72410000  0.29660000  0.20210000  1.0 0.1191972054
H  H3  1  0.72410000  0.20340000  0.70210000  1.0 0.1191972054
H  H4  1  0.27590000  0.70340000  0.79790000  1.0 0.1191972054
H  H5  1  0.51020000  0.80760000  0.21630000  1.0 0.1191972054
H  H6  1  0.48980000  0.30760000  0.28370000  1.0 0.1191972054
H  H7  1  0.48980000  0.19240000  0.78370000  1.0 0.1191972054
H  H8  1  0.51020000  0.69240000  0.71630000  1.0 0.1191972054
H  H9  1  0.28910000  0.89890000  0.97950000  1.0 0.1191972054
H  H10  1  0.71090000  0.39890000  0.52050000  1.0 0.1191972054
H  H11  1  0.71090000  0.10110000  0.02050000  1.0 0.1191972054
H  H12  1  0.28910000  0.60110000  0.47950000  1.0 0.1191972054
H  H13  1  0.12540000  0.82400000  0.82370000  1.0 0.1191972054
H  H14  1  0.87460000  0.32400000  0.67630000  1.0 0.1191972054
H  H15  1  0.87460000  0.17600000  0.17630000  1.0 0.1191972054
H  H16  1  0.12540000  0.67600000  0.32370000  1.0 0.1191972054
H  H17  1  0.25280000  0.69540000  0.98100000  1.0 0.1191972054
H  H18  1  0.74720000  0.19540000  0.51900000  1.0 0.1191972054
H  H19  1  0.74720000  0.30460000  0.01900000  1.0 0.1191972054
H  H20  1  0.25280000  0.80460000  0.48100000  1.0 0.1191972054
H  H21  1  0.00830000  0.68560000  0.05460000  1.0 0.1191972054
H  H22  1  0.99170000  0.18560000  0.44540000  1.0 0.1191972054
H  H23  1  0.99170000  0.31440000  0.94540000  1.0 0.1191972054
H  H24  1  0.00830000  0.81440000  0.55460000  1.0 0.1191972054
H  H25  1  0.72060000  0.80420000  0.95520000  1.0 0.1191972054
H  H26  1  0.27940000  0.30420000  0.54480000  1.0 0.1191972054
H  H27  1  0.27940000  0.19580000  0.04480000  1.0 0.1191972054
H  H28  1  0.72060000  0.69580000  0.45520000  1.0 0.1191972054
H  H29  1  0.88850000  0.87700000  0.11480000  1.0 0.1191972054
H  H30  1  0.11150000  0.37700000  0.38520000  1.0 0.1191972054
H  H31  1  0.11150000  0.12300000  0.88520000  1.0 0.1191972054
H  H32  1  0.88850000  0.62300000  0.61480000  1.0 0.1191972054
H  H33  1  0.16910000  0.90810000  0.15850000  1.0 0.1016183892
H  H34  1  0.83090000  0.40810000  0.34150000  1.0 0.1016183892
H  H35  1  0.83090000  0.09190000  0.84150000  1.0 0.1016183892
H  H36  1  0.16910000  0.59190000  0.65850000  1.0 0.1016183892
H  H37  1  0.26430000  0.91060000  0.12720000  1.0 0.1118772598
H  H38  1  0.73570000  0.41060000  0.37280000  1.0 0.1118772598
H  H39  1  0.73570000  0.08940000  0.87280000  1.0 0.1118772598
H  H40  1  0.26430000  0.58940000  0.62720000  1.0 0.1118772598
H  H41  1  0.46570000  0.77140000  0.00990000  1.0 0.1289149688
H  H42  1  0.53430000  0.27140000  0.49010000  1.0 0.1289149688
H  H43  1  0.53430000  0.22860000  0.99010000  1.0 0.1289149688
H  H44  1  0.46570000  0.72860000  0.50990000  1.0 0.1289149688
H  H45  1  0.51140000  0.79860000  0.07790000  1.0 0.1118772598
H  H46  1  0.48860000  0.29860000  0.42210000  1.0 0.1118772598
H  H47  1  0.48860000  0.20140000  0.92210000  1.0 0.1118772598
H  H48  1  0.51140000  0.70140000  0.57790000  1.0 0.1118772598
H  H49  1  0.94450000  0.77300000  0.82070000  1.0 0.1118772598
H  H50  1  0.05550000  0.27300000  0.67930000  1.0 0.1118772598
H  H51  1  0.05550000  0.22700000  0.17930000  1.0 0.1118772598
H  H52  1  0.94450000  0.72700000  0.32070000  1.0 0.1118772598
H  H53  1  0.84360000  0.76350000  0.84480000  1.0 0.1191972054
H  H54  1  0.15640000  0.26350000  0.65520000  1.0 0.1191972054
H  H55  1  0.15640000  0.23650000  0.15520000  1.0 0.1191972054
H  H56  1  0.84360000  0.73650000  0.34480000  1.0 0.1191972054
H  H57  1  0.14570000  0.73680000  0.21420000  1.0 0.1481642269
H  H58  1  0.85430000  0.23680000  0.28580000  1.0 0.1481642269
H  H59  1  0.85430000  0.26320000  0.78580000  1.0 0.1481642269
H  H60  1  0.14570000  0.76320000  0.71420000  1.0 0.1481642269
H  H61  1  0.08400000  0.77020000  0.23360000  1.0 0.1016183892
H  H62  1  0.91600000  0.27020000  0.26640000  1.0 0.1016183892
H  H63  1  0.91600000  0.22980000  0.76640000  1.0 0.1016183892
H  H64  1  0.08400000  0.72980000  0.73360000  1.0 0.1016183892
H  H65  1  0.64010000  0.78320000  0.32330000  1.0 0.1289149688
H  H66  1  0.35990000  0.28320000  0.17670000  1.0 0.1289149688
H  H67  1  0.35990000  0.21680000  0.67670000  1.0 0.1289149688
H  H68  1  0.64010000  0.71680000  0.82330000  1.0 0.1289149688
H  H69  1  0.63990000  0.74170000  0.34650000  1.0 0.1289149688
H  H70  1  0.36010000  0.24170000  0.15350000  1.0 0.1289149688
H  H71  1  0.36010000  0.25830000  0.65350000  1.0 0.1289149688
H  H72  1  0.63990000  0.75830000  0.84650000  1.0 0.1289149688
H  H73  1  0.57600000  0.75300000  0.26240000  1.0 0.1402198122
H  H74  1  0.42400000  0.25300000  0.23760000  1.0 0.1402198122
H  H75  1  0.42400000  0.24700000  0.73760000  1.0 0.1402198122
H  H76  1  0.57600000  0.74700000  0.76240000  1.0 0.1402198122
H  H77  1  0.55400000  0.80080000  0.40810000  1.0 0.1289149688
H  H78  1  0.44600000  0.30080000  0.09190000  1.0 0.1289149688
H  H79  1  0.44600000  0.19920000  0.59190000  1.0 0.1289149688
H  H80  1  0.55400000  0.69920000  0.90810000  1.0 0.1289149688
H  H81  1  0.43780000  0.78090000  0.40120000  1.0 0.1191972054
H  H82  1  0.56220000  0.28090000  0.09880000  1.0 0.1191972054
H  H83  1  0.56220000  0.21910000  0.59880000  1.0 0.1191972054
H  H84  1  0.43780000  0.71910000  0.90120000  1.0 0.1191972054
H  H85  1  0.55830000  0.75890000  0.42950000  1.0 0.1289149688
H  H86  1  0.44170000  0.25890000  0.07050000  1.0 0.1289149688
H  H87  1  0.44170000  0.24110000  0.57050000  1.0 0.1289149688
H  H88  1  0.55830000  0.74110000  0.92950000  1.0 0.1289149688
H  H89  1  0.45880000  0.71300000  0.33570000  1.0 0.1402198122
H  H90  1  0.54120000  0.21300000  0.16430000  1.0 0.1402198122
H  H91  1  0.54120000  0.28700000  0.66430000  1.0 0.1402198122
H  H92  1  0.45880000  0.78700000  0.83570000  1.0 0.1402198122
H  H93  1  0.34000000  0.73590000  0.30780000  1.0 0.1191972054
H  H94  1  0.66000000  0.23590000  0.19220000  1.0 0.1191972054
H  H95  1  0.66000000  0.26410000  0.69220000  1.0 0.1191972054
H  H96  1  0.34000000  0.76410000  0.80780000  1.0 0.1191972054
H  H97  1  0.39120000  0.72460000  0.25190000  1.0 0.1402198122
H  H98  1  0.60880000  0.22460000  0.24810000  1.0 0.1402198122
H  H99  1  0.60880000  0.27540000  0.74810000  1.0 0.1402198122
H  H100  1  0.39120000  0.77540000  0.75190000  1.0 0.1402198122
H  H101  1  0.01470000  0.91260000  0.85280000  1.0 0.0683226544
H  H102  1  0.98530000  0.41260000  0.64720000  1.0 0.0683226544
H  H103  1  0.98530000  0.08740000  0.14720000  1.0 0.0683226544
H  H104  1  0.01470000  0.58740000  0.35280000  1.0 0.0683226544
H  H105  1  0.13350000  0.93260000  0.90590000  1.0 0.0816811703
H  H106  1  0.86650000  0.43260000  0.59410000  1.0 0.0816811703
H  H107  1  0.86650000  0.06740000  0.09410000  1.0 0.0816811703
H  H108  1  0.13350000  0.56740000  0.40590000  1.0 0.0816811703
H  H109  1  0.06500000  0.94510000  0.82280000  1.0 0.0683226544
H  H110  1  0.93500000  0.44510000  0.67720000  1.0 0.0683226544
H  H111  1  0.93500000  0.05490000  0.17720000  1.0 0.0683226544
H  H112  1  0.06500000  0.55490000  0.32280000  1.0 0.0683226544
H  H113  1  0.34180000  0.90890000  0.87740000  1.0 0.0816811703
H  H114  1  0.65820000  0.40890000  0.62260000  1.0 0.0816811703
H  H115  1  0.65820000  0.09110000  0.12260000  1.0 0.0816811703
H  H116  1  0.34180000  0.59110000  0.37740000  1.0 0.0816811703
H  H117  1  0.27290000  0.91930000  0.79300000  1.0 0.0574884173
H  H118  1  0.72710000  0.41930000  0.70700000  1.0 0.0574884173
H  H119  1  0.72710000  0.08070000  0.20700000  1.0 0.0574884173
H  H120  1  0.27290000  0.58070000  0.29300000  1.0 0.0574884173
H  H121  1  0.26400000  0.94500000  0.85340000  1.0 0.0373959457
H  H122  1  0.73600000  0.44500000  0.64660000  1.0 0.0373959457
H  H123  1  0.73600000  0.05500000  0.14660000  1.0 0.0373959457
H  H124  1  0.26400000  0.55500000  0.35340000  1.0 0.0373959457
H  H125  1  0.14470000  0.88220000  0.73730000  1.0 0.0373959457
H  H126  1  0.85530000  0.38220000  0.76270000  1.0 0.0373959457
H  H127  1  0.85530000  0.11780000  0.26270000  1.0 0.0373959457
H  H128  1  0.14470000  0.61780000  0.23730000  1.0 0.0373959457
H  H129  1  0.05320000  0.86180000  0.75870000  1.0 0.0816811703
H  H130  1  0.94680000  0.36180000  0.74130000  1.0 0.0816811703
H  H131  1  0.94680000  0.13820000  0.24130000  1.0 0.0816811703
H  H132  1  0.05320000  0.63820000  0.25870000  1.0 0.0816811703
H  H133  1  0.03180000  0.90330000  0.73290000  1.0 0.0907146056
H  H134  1  0.96820000  0.40330000  0.76710000  1.0 0.0907146056
H  H135  1  0.96820000  0.09670000  0.26710000  1.0 0.0907146056
H  H136  1  0.03180000  0.59670000  0.23290000  1.0 0.0907146056
H  H137  1  0.24000000  0.62720000  0.98640000  1.0 0.1118772598
H  H138  1  0.76000000  0.12720000  0.51360000  1.0 0.1118772598
H  H139  1  0.76000000  0.37280000  0.01360000  1.0 0.1118772598
H  H140  1  0.24000000  0.87280000  0.48640000  1.0 0.1118772598
H  H141  1  0.34000000  0.65230000  0.04480000  1.0 0.1191972054
H  H142  1  0.66000000  0.15230000  0.45520000  1.0 0.1191972054
H  H143  1  0.66000000  0.34770000  0.95520000  1.0 0.1191972054
H  H144  1  0.34000000  0.84770000  0.54480000  1.0 0.1191972054
H  H145  1  0.31870000  0.61220000  0.06680000  1.0 0.1289149688
H  H146  1  0.68130000  0.11220000  0.43320000  1.0 0.1289149688
H  H147  1  0.68130000  0.38780000  0.93320000  1.0 0.1289149688
H  H148  1  0.31870000  0.88780000  0.56680000  1.0 0.1289149688
H  H149  1  0.20160000  0.66790000  0.16020000  1.0 0.1402198122
H  H150  1  0.79840000  0.16790000  0.33980000  1.0 0.1402198122
H  H151  1  0.79840000  0.33210000  0.83980000  1.0 0.1402198122
H  H152  1  0.20160000  0.83210000  0.66020000  1.0 0.1402198122
H  H153  1  0.29370000  0.63600000  0.17140000  1.0 0.1402198122
H  H154  1  0.70630000  0.13600000  0.32860000  1.0 0.1402198122
H  H155  1  0.70630000  0.36400000  0.82860000  1.0 0.1402198122
H  H156  1  0.29370000  0.86400000  0.67140000  1.0 0.1402198122
H  H157  1  0.31810000  0.67620000  0.15130000  1.0 0.1402198122
H  H158  1  0.68190000  0.17620000  0.34870000  1.0 0.1402198122
H  H159  1  0.68190000  0.32380000  0.84870000  1.0 0.1402198122
H  H160  1  0.31810000  0.82380000  0.65130000  1.0 0.1402198122
H  H161  1  0.05850000  0.61480000  0.99980000  1.0 0.1289149688
H  H162  1  0.94150000  0.11480000  0.50020000  1.0 0.1289149688
H  H163  1  0.94150000  0.38520000  0.00020000  1.0 0.1289149688
H  H164  1  0.05850000  0.88520000  0.49980000  1.0 0.1289149688
H  H165  1  0.13820000  0.59850000  0.07880000  1.0 0.1402198122
H  H166  1  0.86180000  0.09850000  0.42120000  1.0 0.1402198122
H  H167  1  0.86180000  0.40150000  0.92120000  1.0 0.1402198122
H  H168  1  0.13820000  0.90150000  0.57880000  1.0 0.1402198122
H  H169  1  0.04610000  0.63000000  0.06930000  1.0 0.1289149688
H  H170  1  0.95390000  0.13000000  0.43070000  1.0 0.1289149688
H  H171  1  0.95390000  0.37000000  0.93070000  1.0 0.1289149688
H  H172  1  0.04610000  0.87000000  0.56930000  1.0 0.1289149688
H  H173  1  0.61190000  0.86680000  0.06370000  1.0 0.1289149688
H  H174  1  0.38810000  0.36680000  0.43630000  1.0 0.1289149688
H  H175  1  0.38810000  0.13320000  0.93630000  1.0 0.1289149688
H  H176  1  0.61190000  0.63320000  0.56370000  1.0 0.1289149688
H  H177  1  0.70780000  0.89850000  0.08610000  1.0 0.1118772598
H  H178  1  0.29220000  0.39850000  0.41390000  1.0 0.1118772598
H  H179  1  0.29220000  0.10150000  0.91390000  1.0 0.1118772598
H  H180  1  0.70780000  0.60150000  0.58610000  1.0 0.1118772598
H  H181  1  0.58010000  0.90470000  0.02090000  1.0 0.1289149688
H  H182  1  0.41990000  0.40470000  0.47910000  1.0 0.1289149688
H  H183  1  0.41990000  0.09530000  0.97910000  1.0 0.1402198122
H  H184  1  0.58010000  0.59530000  0.52090000  1.0 0.1289149688
H  H185  1  0.55020000  0.83510000  0.94500000  1.0 0.1289149688
H  H186  1  0.44980000  0.33510000  0.55500000  1.0 0.1289149688
H  H187  1  0.44980000  0.16490000  0.05500000  1.0 0.1289149688
H  H188  1  0.55020000  0.66490000  0.44500000  1.0 0.1289149688
H  H189  1  0.52040000  0.87370000  0.90500000  1.0 0.1402198122
H  H190  1  0.47960000  0.37370000  0.59500000  1.0 0.1402198122
H  H191  1  0.47960000  0.12630000  0.09500000  1.0 0.1402198122
H  H192  1  0.52040000  0.62630000  0.40500000  1.0 0.1402198122
H  H193  1  0.60690000  0.84620000  0.89200000  1.0 0.1289149688
H  H194  1  0.39310000  0.34620000  0.60800000  1.0 0.1289149688
H  H195  1  0.39310000  0.15380000  0.10800000  1.0 0.1289149688
H  H196  1  0.60690000  0.65380000  0.39200000  1.0 0.1289149688
H  H197  1  0.67150000  0.92120000  0.93860000  1.0 0.1289149688
H  H198  1  0.32850000  0.42120000  0.56140000  1.0 0.1289149688
H  H199  1  0.32850000  0.07880000  0.06140000  1.0 0.1289149688
H  H200  1  0.67150000  0.57880000  0.43860000  1.0 0.1289149688
H  H201  1  0.79850000  0.91480000  0.00430000  1.0 0.1191972054
H  H202  1  0.20150000  0.41480000  0.49570000  1.0 0.1191972054
H  H203  1  0.20150000  0.08520000  0.99570000  1.0 0.1191972054
H  H204  1  0.79850000  0.58520000  0.50430000  1.0 0.1191972054
H  H205  1  0.76100000  0.89370000  0.92890000  1.0 0.1481642269
H  H206  1  0.23900000  0.39370000  0.57110000  1.0 0.1481642269
H  H207  1  0.23900000  0.10630000  0.07110000  1.0 0.1481642269
H  H208  1  0.76100000  0.60630000  0.42890000  1.0 0.1481642269
H  H209  1  0.27330000  0.04870000  0.79830000  1.0 0.2789581121
H  H210  1  0.72670000  0.54870000  0.70170000  1.0 0.2789581121
H  H211  1  0.72670000  0.95130000  0.20170000  1.0 0.2789581121
H  H212  1  0.27330000  0.45130000  0.29830000  1.0 0.2789581121
H  H213  1  0.49760000  0.09180000  0.59520000  1.0 0.2667128867
H  H214  1  0.50240000  0.59180000  0.90480000  1.0 0.2667128867
H  H215  1  0.50240000  0.90820000  0.40480000  1.0 0.2667128867
H  H216  1  0.49760000  0.40820000  0.09520000  1.0 0.2667128867
H  H217  1  0.37530000  0.00560000  0.97030000  1.0 0.1735682488
H  H218  1  0.62470000  0.50560000  0.52970000  1.0 0.1735682488
H  H219  1  0.62470000  0.99440000  0.02970000  1.0 0.1735682488
H  H220  1  0.37530000  0.49440000  0.47030000  1.0 0.1735682488
H  H221  1  0.25370000  0.99430000  0.02410000  1.0 0.1118772598
H  H222  1  0.74630000  0.49430000  0.47590000  1.0 0.1118772598
H  H223  1  0.74630000  0.00570000  0.97590000  1.0 0.1118772598
H  H224  1  0.25370000  0.50570000  0.52410000  1.0 0.1118772598
H  H225  1  0.97920000  0.02940000  0.85350000  1.0 0.1118772598
H  H226  1  0.02080000  0.52940000  0.64650000  1.0 0.1118772598
H  H227  1  0.02080000  0.97060000  0.14650000  1.0 0.1118772598
H  H228  1  0.97920000  0.47060000  0.35350000  1.0 0.1118772598
H  H229  1  0.08960000  0.04310000  0.79490000  1.0 0.1481642269
H  H230  1  0.91040000  0.54310000  0.70510000  1.0 0.1481642269
H  H231  1  0.91040000  0.95690000  0.20510000  1.0 0.1481642269
H  H232  1  0.08960000  0.45690000  0.29490000  1.0 0.1481642269
H  H233  1  0.61410000  0.00530000  0.84860000  1.0 0.1289149688
H  H234  1  0.38590000  0.50530000  0.65140000  1.0 0.1289149688
H  H235  1  0.38590000  0.99470000  0.15140000  1.0 0.1289149688
H  H236  1  0.61410000  0.49470000  0.34860000  1.0 0.1289149688
H  H237  1  0.69610000  0.02110000  0.77180000  1.0 0.1289149688
H  H238  1  0.30390000  0.52110000  0.72820000  1.0 0.1289149688
H  H239  1  0.30390000  0.97890000  0.22820000  1.0 0.1289149688
H  H240  1  0.69610000  0.47890000  0.27180000  1.0 0.1289149688
H  H241  1  0.60540000  0.06350000  0.68050000  1.0 0.1118772598
H  H242  1  0.39460000  0.56350000  0.81950000  1.0 0.1118772598
H  H243  1  0.39460000  0.93650000  0.31950000  1.0 0.1118772598
H  H244  1  0.60540000  0.43650000  0.18050000  1.0 0.1118772598
H  H245  1  0.34120000  0.07170000  0.73880000  1.0 0.1191972054
H  H246  1  0.65880000  0.57170000  0.76120000  1.0 0.1191972054
H  H247  1  0.65880000  0.92830000  0.26120000  1.0 0.1191972054
H  H248  1  0.34120000  0.42830000  0.23880000  1.0 0.1191972054
H  H249  1  0.22270000  0.13380000  0.52310000  1.0 0.1481642269
H  H250  1  0.77730000  0.63380000  0.97690000  1.0 0.1481642269
H  H251  1  0.77730000  0.86620000  0.47690000  1.0 0.1481642269
H  H252  1  0.22270000  0.36620000  0.02310000  1.0 0.1481642269
H  H253  1  0.15580000  0.17050000  0.42200000  1.0 0.1118772598
H  H254  1  0.84420000  0.67050000  0.07800000  1.0 0.1118772598
H  H255  1  0.84420000  0.82950000  0.57800000  1.0 0.1118772598
H  H256  1  0.15580000  0.32950000  0.92200000  1.0 0.1118772598
H  H257  1  0.46060000  0.16790000  0.41810000  1.0 0.1191972054
H  H258  1  0.53940000  0.66790000  0.08190000  1.0 0.1191972054
H  H259  1  0.53940000  0.83210000  0.58190000  1.0 0.1191972054
H  H260  1  0.46060000  0.33210000  0.91810000  1.0 0.1191972054
H  H261  1  0.53270000  0.12790000  0.51450000  1.0 0.1402198122
H  H262  1  0.46730000  0.62790000  0.98550000  1.0 0.1402198122
H  H263  1  0.46730000  0.87210000  0.48550000  1.0 0.1402198122
H  H264  1  0.53270000  0.37210000  0.01450000  1.0 0.1402198122
H  H265  1  0.12000000  0.93860000  0.87610000  1.0 0.0373959457
H  H266  1  0.88000000  0.43860000  0.62390000  1.0 0.0373959457
H  H267  1  0.88000000  0.06140000  0.12390000  1.0 0.0373959457
H  H268  1  0.12000000  0.56140000  0.37610000  1.0 0.0373959457
H  H269  1  0.25700000  0.93110000  0.90460000  1.0 0.0683226544
H  H270  1  0.74300000  0.43110000  0.59540000  1.0 0.0683226544
H  H271  1  0.74300000  0.06890000  0.09540000  1.0 0.0683226544
H  H272  1  0.25700000  0.56890000  0.40460000  1.0 0.0683226544
H  H273  1  0.18220000  0.94730000  0.82480000  1.0 0.0816811703
H  H274  1  0.81780000  0.44730000  0.67520000  1.0 0.0816811703
H  H275  1  0.81780000  0.05270000  0.17520000  1.0 0.0816811703
H  H276  1  0.18220000  0.55270000  0.32480000  1.0 0.0816811703
H  H277  1  0.27290000  0.88840000  0.79220000  1.0 0.0513304919
H  H278  1  0.72710000  0.38840000  0.70780000  1.0 0.0513304919
H  H279  1  0.72710000  0.11160000  0.20780000  1.0 0.0513304919
H  H280  1  0.27290000  0.61160000  0.29220000  1.0 0.0513304919
H  H281  1  0.16780000  0.85970000  0.76380000  1.0 0.0816811703
H  H282  1  0.83220000  0.35970000  0.73620000  1.0 0.0816811703
H  H283  1  0.83220000  0.14030000  0.23620000  1.0 0.0816811703
H  H284  1  0.16780000  0.64030000  0.26380000  1.0 0.0816811703
H  H285  1  0.14590000  0.90030000  0.73230000  1.0 0.0513304919
H  H286  1  0.85410000  0.40030000  0.76770000  1.0 0.0513304919
H  H287  1  0.85410000  0.09970000  0.26770000  1.0 0.0513304919
H  H288  1  0.14590000  0.59970000  0.23230000  1.0 0.0513304919
H  H289  1  0.99380000  0.86900000  0.81900000  1.0 0.1016183892
H  H290  1  0.00620000  0.36900000  0.68100000  1.0 0.1016183892
H  H291  1  0.00620000  0.13100000  0.18100000  1.0 0.1016183892
H  H292  1  0.99380000  0.63100000  0.31900000  1.0 0.1016183892
H  H293  1  0.97440000  0.91190000  0.80710000  1.0 0.0683226544
H  H294  1  0.02560000  0.41190000  0.69290000  1.0 0.0683226544
H  H295  1  0.02560000  0.08810000  0.19290000  1.0 0.0683226544
H  H296  1  0.97440000  0.58810000  0.30710000  1.0 0.0683226544
H  H297  1  0.98160000  0.88710000  0.74490000  1.0 0.0373959457
H  H298  1  0.01840000  0.38710000  0.75510000  1.0 0.0343615078
H  H299  1  0.01840000  0.11290000  0.25510000  1.0 0.0343615078
H  H300  1  0.98160000  0.61290000  0.24490000  1.0 0.0373959457
C  C1  1  0.25120000  0.84388000  0.15713000  1.0 0.1402198122
C  C2  1  0.74880000  0.34388000  0.34287000  1.0 0.1402198122
C  C3  1  0.74880000  0.15612000  0.84287000  1.0 0.1402198122
C  C4  1  0.25120000  0.65612000  0.65713000  1.0 0.1402198122
C  C5  1  0.21970000  0.82938000  0.20892000  1.0 -0.0278527498
C  C6  1  0.78030000  0.32938000  0.29108000  1.0 -0.0278527498
C  C7  1  0.78030000  0.17062000  0.79108000  1.0 -0.0278527498
C  C8  1  0.21970000  0.67062000  0.70892000  1.0 -0.0278527498
C  C9  1  0.29730000  0.80614000  0.26228000  1.0 -0.1973424156
C  C10  1  0.70270000  0.30614000  0.23772000  1.0 -0.1973424156
C  C11  1  0.70270000  0.19386000  0.73772000  1.0 -0.1973424156
C  C12  1  0.29730000  0.69386000  0.76228000  1.0 -0.1973424156
C  C13  1  0.40530000  0.79648000  0.26507000  1.0 0.1016183892
C  C14  1  0.59470000  0.29648000  0.23493000  1.0 0.1016183892
C  C15  1  0.59470000  0.20352000  0.73493000  1.0 0.1016183892
C  C16  1  0.40530000  0.70352000  0.76507000  1.0 0.1016183892
C  C17  1  0.43590000  0.81282000  0.21460000  1.0 -0.1718132513
C  C18  1  0.56410000  0.31282000  0.28540000  1.0 -0.1718132513
C  C19  1  0.56410000  0.18718000  0.78540000  1.0 -0.1718132513
C  C20  1  0.43590000  0.68718000  0.71460000  1.0 -0.1718132513
C  C21  1  0.36080000  0.83651000  0.16172000  1.0 -0.0214905994
C  C22  1  0.63920000  0.33651000  0.33828000  1.0 -0.0214905994
C  C23  1  0.63920000  0.16349000  0.83828000  1.0 -0.0214905994
C  C24  1  0.36080000  0.66349000  0.66172000  1.0 -0.0214905994
C  C25  1  0.29670000  0.81075000  0.99586000  1.0 0.1289149688
C  C26  1  0.70330000  0.31075000  0.50414000  1.0 0.1289149688
C  C27  1  0.70330000  0.18925000  0.00414000  1.0 0.1289149688
C  C28  1  0.29670000  0.68925000  0.49586000  1.0 0.1289149688
C  C29  1  0.31890000  0.84691000  0.01657000  1.0 -0.0278527498
C  C30  1  0.68110000  0.34691000  0.48343000  1.0 -0.0278527498
C  C31  1  0.68110000  0.15309000  0.98343000  1.0 -0.0278527498
C  C32  1  0.31890000  0.65309000  0.51657000  1.0 -0.0278527498
C  C33  1  0.27270000  0.87423000  0.96460000  1.0 -0.2389584953
C  C34  1  0.72730000  0.37423000  0.53540000  1.0 -0.2389584953
C  C35  1  0.72730000  0.12577000  0.03540000  1.0 -0.2389584953
C  C36  1  0.27270000  0.62577000  0.46460000  1.0 -0.2389584953
C  C37  1  0.20330000  0.86656000  0.89170000  1.0 0.0574884173
C  C38  1  0.79670000  0.36656000  0.60830000  1.0 0.0574884173
C  C39  1  0.79670000  0.13344000  0.10830000  1.0 0.0574884173
C  C40  1  0.20330000  0.63344000  0.39170000  1.0 0.0574884173
C  C41  1  0.17610000  0.83010000  0.87270000  1.0 -0.2515696299
C  C42  1  0.82390000  0.33010000  0.62730000  1.0 -0.2515696299
C  C43  1  0.82390000  0.16990000  0.12730000  1.0 -0.2515696299
C  C44  1  0.17610000  0.66990000  0.37270000  1.0 -0.2515696299
C  C45  1  0.22140000  0.80261000  0.92370000  1.0 -0.0434277796
C  C46  1  0.77860000  0.30261000  0.57630000  1.0 -0.0434277796
C  C47  1  0.77860000  0.19739000  0.07630000  1.0 -0.0434277796
C  C48  1  0.22140000  0.69739000  0.42370000  1.0 -0.0434277796
C  C49  1  0.03650000  0.75059000  0.95554000  1.0 0.1481642269
C  C50  1  0.96350000  0.25059000  0.54446000  1.0 0.1481642269
C  C51  1  0.96350000  0.24941000  0.04446000  1.0 0.1481642269
C  C52  1  0.03650000  0.74941000  0.45554000  1.0 0.1481642269
C  C53  1  0.13460000  0.73694000  0.95037000  1.0 -0.0278527498
C  C54  1  0.86540000  0.23694000  0.54963000  1.0 -0.0278527498
C  C55  1  0.86540000  0.26306000  0.04963000  1.0 -0.0278527498
C  C56  1  0.13460000  0.76306000  0.45037000  1.0 -0.0278527498
C  C57  1  0.18490000  0.70414000  0.98420000  1.0 -0.1782916076
C  C58  1  0.81510000  0.20414000  0.51580000  1.0 -0.1782916076
C  C59  1  0.81510000  0.29586000  0.01580000  1.0 -0.1782916076
C  C60  1  0.18490000  0.79586000  0.48420000  1.0 -0.1782916076
C  C61  1  0.13800000  0.68410000  0.02230000  1.0 0.0907146056
C  C62  1  0.86200000  0.18410000  0.47770000  1.0 0.0907146056
C  C63  1  0.86200000  0.31590000  0.97770000  1.0 0.0907146056
C  C64  1  0.13800000  0.81590000  0.52230000  1.0 0.0907146056
C  C65  1  0.04050000  0.69845000  0.02740000  1.0 -0.1718132513
C  C66  1  0.95950000  0.19845000  0.47260000  1.0 -0.1718132513
C  C67  1  0.95950000  0.30155000  0.97260000  1.0 -0.1718132513
C  C68  1  0.04050000  0.80155000  0.52740000  1.0 -0.1718132513
C  C69  1  0.98960000  0.73049000  0.99434000  1.0 -0.0214905994
C  C70  1  0.01040000  0.23049000  0.50566000  1.0 -0.0214905994
C  C71  1  0.01040000  0.26951000  0.00566000  1.0 -0.0214905994
C  C72  1  0.98960000  0.76951000  0.49434000  1.0 -0.0214905994
C  C73  1  0.96810000  0.79423000  0.10014000  1.0 0.155492507
C  C74  1  0.03190000  0.29423000  0.39986000  1.0 0.155492507
C  C75  1  0.03190000  0.20577000  0.89986000  1.0 0.155492507
C  C76  1  0.96810000  0.70577000  0.60014000  1.0 0.155492507
C  C77  1  0.87400000  0.78580000  0.03385000  1.0 -0.0487006865
C  C78  1  0.12600000  0.28580000  0.46615000  1.0 -0.0434277796
C  C79  1  0.12600000  0.21420000  0.96615000  1.0 -0.0434277796
C  C80  1  0.87400000  0.71420000  0.53385000  1.0 -0.0487006865
C  C81  1  0.78410000  0.81062000  0.00020000  1.0 -0.1904792637
C  C82  1  0.21590000  0.31062000  0.49980000  1.0 -0.1904792637
C  C83  1  0.21590000  0.18938000  0.99980000  1.0 -0.1904792637
C  C84  1  0.78410000  0.68938000  0.50020000  1.0 -0.1904792637
C  C85  1  0.78370000  0.84461000  0.03000000  1.0 0.0907146056
C  C86  1  0.21630000  0.34461000  0.47000000  1.0 0.0907146056
C  C87  1  0.21630000  0.15539000  0.97000000  1.0 0.0907146056
C  C88  1  0.78370000  0.65539000  0.53000000  1.0 0.0907146056
C  C89  1  0.88320000  0.85346000  0.09440000  1.0 -0.1973424156
C  C90  1  0.11680000  0.35346000  0.40560000  1.0 -0.1973424156
C  C91  1  0.11680000  0.14654000  0.90560000  1.0 -0.1973424156
C  C92  1  0.88320000  0.64654000  0.59440000  1.0 -0.1973424156
C  C93  1  0.97420000  0.82895000  0.12921000  1.0 -0.0487006865
C  C94  1  0.02580000  0.32895000  0.37079000  1.0 -0.0487006865
C  C95  1  0.02580000  0.17105000  0.87079000  1.0 -0.0487006865
C  C96  1  0.97420000  0.67105000  0.62921000  1.0 -0.0487006865
C  C97  1  0.18340000  0.90297000  0.11560000  1.0 -0.1973424156
C  C98  1  0.81660000  0.40297000  0.38440000  1.0 -0.1973424156
C  C99  1  0.81660000  0.09703000  0.88440000  1.0 -0.1973424156
C  C100  1  0.18340000  0.59703000  0.61560000  1.0 -0.1973424156
C  C101  1  0.09930000  0.92405000  0.05190000  1.0 0.5874594674
C  C102  1  0.90070000  0.42405000  0.44810000  1.0 0.5874594674
C  C103  1  0.90070000  0.07595000  0.94810000  1.0 0.5874594674
C  C104  1  0.09930000  0.57595000  0.55190000  1.0 0.5874594674
C  C105  1  0.46450000  0.77639000  0.05710000  1.0 -0.1904792637
C  C106  1  0.53550000  0.27639000  0.44290000  1.0 -0.1904792637
C  C107  1  0.53550000  0.22361000  0.94290000  1.0 -0.1904792637
C  C108  1  0.46450000  0.72361000  0.55710000  1.0 -0.1904792637
C  C109  1  0.52010000  0.74474000  0.10820000  1.0 0.5805744753
C  C110  1  0.47990000  0.24474000  0.39180000  1.0 0.5805744753
C  C111  1  0.47990000  0.25526000  0.89180000  1.0 0.5805744753
C  C112  1  0.52010000  0.75526000  0.60820000  1.0 0.5805744753
C  C113  1  0.90490000  0.78138000  0.85019000  1.0 -0.2207530786
C  C114  1  0.09510000  0.28138000  0.64981000  1.0 -0.2207530786
C  C115  1  0.09510000  0.21862000  0.14981000  1.0 -0.2207530786
C  C116  1  0.90490000  0.71862000  0.35019000  1.0 -0.2207530786
C  C117  1  0.85000000  0.81792000  0.82360000  1.0 0.6095358953
C  C118  1  0.15000000  0.31792000  0.67640000  1.0 0.6095358953
C  C119  1  0.15000000  0.18208000  0.17640000  1.0 0.6095358953
C  C120  1  0.85000000  0.68208000  0.32360000  1.0 0.6095358953
C  C121  1  0.07320000  0.75145000  0.19650000  1.0 -0.1782916076
C  C122  1  0.92680000  0.25145000  0.30350000  1.0 -0.1782916076
C  C123  1  0.92680000  0.24855000  0.80350000  1.0 -0.1782916076
C  C124  1  0.07320000  0.74855000  0.69650000  1.0 -0.1782916076
C  C125  1  0.97280000  0.72705000  0.18834000  1.0 0.5543545113
C  C126  1  0.02720000  0.22705000  0.31166000  1.0 0.5543545113
C  C127  1  0.02720000  0.27295000  0.81166000  1.0 0.5543545113
C  C128  1  0.97280000  0.77295000  0.68834000  1.0 0.5543545113
C  C129  1  0.48160000  0.76721000  0.31870000  1.0 0.2789581121
C  C130  1  0.51840000  0.26721000  0.18130000  1.0 0.2789581121
C  C131  1  0.51840000  0.23279000  0.68130000  1.0 0.2789581121
C  C132  1  0.48160000  0.73279000  0.81870000  1.0 0.2789581121
C  C133  1  0.59440000  0.76070000  0.31210000  1.0 -0.4766187808
C  C134  1  0.40560000  0.26070000  0.18790000  1.0 -0.4736271575
C  C135  1  0.40560000  0.23930000  0.68790000  1.0 -0.4736271575
C  C136  1  0.59440000  0.73930000  0.81210000  1.0 -0.4736271575
C  C137  1  0.51050000  0.77789000  0.39620000  1.0 -0.4766187808
C  C138  1  0.48950000  0.27789000  0.10380000  1.0 -0.4766187808
C  C139  1  0.48950000  0.22211000  0.60380000  1.0 -0.4766187808
C  C140  1  0.51050000  0.72211000  0.89620000  1.0 -0.4766187808
C  C141  1  0.41170000  0.73208000  0.30200000  1.0 -0.4736271575
C  C142  1  0.58830000  0.23208000  0.19800000  1.0 -0.4736271575
C  C143  1  0.58830000  0.26792000  0.69800000  1.0 -0.4736271575
C  C144  1  0.41170000  0.76792000  0.80200000  1.0 -0.4736271575
C  C145  1  0.15670000  0.89678000  0.83460000  1.0 0.1735682488
C  C146  1  0.84330000  0.39678000  0.66540000  1.0 0.1735682488
C  C147  1  0.84330000  0.10322000  0.16540000  1.0 0.1735682488
C  C148  1  0.15670000  0.60322000  0.33460000  1.0 0.1735682488
C  C149  1  0.08610000  0.92430000  0.85600000  1.0 -0.1782916076
C  C150  1  0.91390000  0.42430000  0.64400000  1.0 -0.1782916076
C  C151  1  0.91390000  0.07570000  0.14400000  1.0 -0.1782916076
C  C152  1  0.08610000  0.57570000  0.35600000  1.0 -0.1782916076
C  C153  1  0.27020000  0.91980000  0.84010000  1.0 -0.1718132513
C  C154  1  0.72980000  0.41980000  0.65990000  1.0 -0.1718132513
C  C155  1  0.72980000  0.08020000  0.15990000  1.0 -0.1718132513
C  C156  1  0.27020000  0.58020000  0.34010000  1.0 -0.1718132513
C  C157  1  0.09130000  0.88510000  0.75980000  1.0 -0.1904792637
C  C158  1  0.90870000  0.38510000  0.74020000  1.0 -0.1904792637
C  C159  1  0.90870000  0.11490000  0.24020000  1.0 -0.1904792637
C  C160  1  0.09130000  0.61490000  0.25980000  1.0 -0.1904792637
C  C161  1  0.19330000  0.64877000  0.06290000  1.0 0.2490208075
C  C162  1  0.80670000  0.14877000  0.43710000  1.0 0.2490208075
C  C163  1  0.80670000  0.35123000  0.93710000  1.0 0.2490208075
C  C164  1  0.19330000  0.85123000  0.56290000  1.0 0.2490208075
C  C165  1  0.28080000  0.63381000  0.03800000  1.0 -0.4614243209
C  C166  1  0.71920000  0.13381000  0.46200000  1.0 -0.4614243209
C  C167  1  0.71920000  0.36619000  0.96200000  1.0 -0.4614243209
C  C168  1  0.28080000  0.86619000  0.53800000  1.0 -0.4614243209
C  C169  1  0.25740000  0.65804000  0.14370000  1.0 -0.4766187808
C  C170  1  0.74260000  0.15804000  0.35630000  1.0 -0.4766187808
C  C171  1  0.74260000  0.34196000  0.85630000  1.0 -0.4766187808
C  C172  1  0.25740000  0.84196000  0.64370000  1.0 -0.4766187808
C  C173  1  0.10090000  0.62056000  0.05170000  1.0 -0.4614243209
C  C174  1  0.89910000  0.12056000  0.44830000  1.0 -0.4614243209
C  C175  1  0.89910000  0.37944000  0.94830000  1.0 -0.4614243209
C  C176  1  0.10090000  0.87944000  0.55170000  1.0 -0.4614243209
C  C177  1  0.68450000  0.87199000  0.99130000  1.0 0.2667128867
C  C178  1  0.31550000  0.37199000  0.50870000  1.0 0.2667128867
C  C179  1  0.31550000  0.12801000  0.00870000  1.0 0.2667128867
C  C180  1  0.68450000  0.62801000  0.49130000  1.0 0.2667128867
C  C181  1  0.64230000  0.88683000  0.04530000  1.0 -0.4736271575
C  C182  1  0.35770000  0.38683000  0.45470000  1.0 -0.4736271575
C  C183  1  0.35770000  0.11317000  0.95470000  1.0 -0.4736271575
C  C184  1  0.64230000  0.61317000  0.54530000  1.0 -0.4736271575
C  C185  1  0.58140000  0.85527000  0.92770000  1.0 -0.4914706721
C  C186  1  0.41860000  0.35527000  0.57230000  1.0 -0.4914706721
C  C187  1  0.41860000  0.14473000  0.07230000  1.0 -0.4914706721
C  C188  1  0.58140000  0.64473000  0.42770000  1.0 -0.4914706721
C  C189  1  0.73330000  0.90324000  0.96320000  1.0 -0.4614243209
C  C190  1  0.26670000  0.40324000  0.53680000  1.0 -0.4614243209
C  C191  1  0.26670000  0.09676000  0.03680000  1.0 -0.4614243209
C  C192  1  0.73330000  0.59676000  0.46320000  1.0 -0.4614243209
C  C193  1  0.29410000  0.01089000  0.94510000  1.0 -0.2207530786
C  C194  1  0.70590000  0.51089000  0.55490000  1.0 -0.2207530786
C  C195  1  0.70590000  0.98911000  0.05490000  1.0 -0.2207530786
C  C196  1  0.29410000  0.48911000  0.44510000  1.0 -0.2207530786
C  C197  1  0.22030000  0.00426000  0.97640000  1.0 0.0816811703
C  C198  1  0.77970000  0.50426000  0.52360000  1.0 0.0816811703
C  C199  1  0.77970000  0.99574000  0.02360000  1.0 0.0816811703
C  C200  1  0.22030000  0.49574000  0.47640000  1.0 0.0816811703
C  C201  1  0.06100000  0.02476000  0.87760000  1.0 0.0816811703
C  C202  1  0.93900000  0.52476000  0.62240000  1.0 0.0816811703
C  C203  1  0.93900000  0.97524000  0.12240000  1.0 0.0816811703
C  C204  1  0.06100000  0.47524000  0.37760000  1.0 0.0816811703
C  C205  1  0.12570000  0.03271000  0.84220000  1.0 -0.2515696299
C  C206  1  0.87430000  0.53271000  0.65780000  1.0 -0.2515696299
C  C207  1  0.87430000  0.96729000  0.15780000  1.0 -0.2515696299
C  C208  1  0.12570000  0.46729000  0.34220000  1.0 -0.2515696299
C  C209  1  0.24630000  0.02566000  0.87490000  1.0 0.2667128867
C  C210  1  0.75370000  0.52566000  0.62510000  1.0 0.2667128867
C  C211  1  0.75370000  0.97434000  0.12510000  1.0 0.2667128867
C  C212  1  0.24630000  0.47434000  0.37490000  1.0 0.2667128867
C  C213  1  0.42000000  0.02391000  0.85160000  1.0 0.459012948
C  C214  1  0.58000000  0.52391000  0.64840000  1.0 0.459012948
C  C215  1  0.58000000  0.97609000  0.14840000  1.0 0.459012948
C  C216  1  0.42000000  0.47609000  0.35160000  1.0 0.459012948
C  C217  1  0.46880000  0.03629000  0.80080000  1.0 -0.0278527498
C  C218  1  0.53120000  0.53629000  0.69920000  1.0 -0.0278527498
C  C219  1  0.53120000  0.96371000  0.19920000  1.0 -0.0278527498
C  C220  1  0.46880000  0.46371000  0.30080000  1.0 -0.0278527498
C  C221  1  0.57460000  0.02210000  0.81020000  1.0 -0.0874956622
C  C222  1  0.42540000  0.52210000  0.68980000  1.0 -0.0874956622
C  C223  1  0.42540000  0.97790000  0.18980000  1.0 -0.0874956622
C  C224  1  0.57460000  0.47790000  0.31020000  1.0 -0.0874956622
C  C225  1  0.62400000  0.03167000  0.76520000  1.0 -0.0803559571
C  C226  1  0.37600000  0.53167000  0.73480000  1.0 -0.0803559571
C  C227  1  0.37600000  0.96833000  0.23480000  1.0 -0.0803559571
C  C228  1  0.62400000  0.46833000  0.26520000  1.0 -0.0803559571
C  C229  1  0.57000000  0.05641000  0.71090000  1.0 -0.1390376724
C  C230  1  0.43000000  0.55641000  0.78910000  1.0 -0.1390376724
C  C231  1  0.43000000  0.94359000  0.28910000  1.0 -0.1390376724
C  C232  1  0.57000000  0.44359000  0.21090000  1.0 -0.1390376724
C  C233  1  0.46150000  0.07137000  0.70000000  1.0 -0.0278527498
C  C234  1  0.53850000  0.57137000  0.80000000  1.0 -0.0278527498
C  C235  1  0.53850000  0.92863000  0.30000000  1.0 -0.0278527498
C  C236  1  0.46150000  0.42863000  0.20000000  1.0 -0.0278527498
C  C237  1  0.41360000  0.06133000  0.74530000  1.0 -0.1390376724
C  C238  1  0.58640000  0.56133000  0.75470000  1.0 -0.1390376724
C  C239  1  0.58640000  0.93867000  0.25470000  1.0 -0.1390376724
C  C240  1  0.41360000  0.43867000  0.24530000  1.0 -0.1390376724
C  C241  1  0.39650000  0.09758000  0.64110000  1.0 0.459012948
C  C242  1  0.60350000  0.59758000  0.85890000  1.0 0.459012948
C  C243  1  0.60350000  0.90242000  0.35890000  1.0 0.459012948
C  C244  1  0.39650000  0.40242000  0.14110000  1.0 0.459012948
C  C245  1  0.38590000  0.12691000  0.53040000  1.0 0.2628290281
C  C246  1  0.61410000  0.62691000  0.96960000  1.0 0.2628290281
C  C247  1  0.61410000  0.87309000  0.46960000  1.0 0.2628290281
C  C248  1  0.38590000  0.37309000  0.03040000  1.0 0.2628290281
C  C249  1  0.27320000  0.14010000  0.50170000  1.0 -0.2207530786
C  C250  1  0.72680000  0.64010000  0.99830000  1.0 -0.2207530786
C  C251  1  0.72680000  0.85990000  0.49830000  1.0 -0.2207530786
C  C252  1  0.27320000  0.35990000  0.00170000  1.0 -0.2207530786
C  C253  1  0.23470000  0.16240000  0.44200000  1.0 0.0907146056
C  C254  1  0.76530000  0.66240000  0.05800000  1.0 0.0907146056
C  C255  1  0.76530000  0.83760000  0.55800000  1.0 0.0907146056
C  C256  1  0.23470000  0.33760000  0.94200000  1.0 0.0907146056
C  C257  1  0.41090000  0.16040000  0.43920000  1.0 0.0816811703
C  C258  1  0.58910000  0.66040000  0.06080000  1.0 0.0816811703
C  C259  1  0.58910000  0.83960000  0.56080000  1.0 0.0816811703
C  C260  1  0.41090000  0.33960000  0.93920000  1.0 0.0816811703
C  C261  1  0.45520000  0.13704000  0.49730000  1.0 -0.2389584953
C  C262  1  0.54480000  0.63704000  0.00270000  1.0 -0.2389584953
C  C263  1  0.54480000  0.86296000  0.50270000  1.0 -0.2389584953
C  C264  1  0.45520000  0.36296000  0.99730000  1.0 -0.2389584953
C  C265  1  0.18100000  0.93080000  0.86190000  1.0 -0.1718132513
C  C266  1  0.81900000  0.43080000  0.63810000  1.0 -0.1718132513
C  C267  1  0.81900000  0.06920000  0.13810000  1.0 -0.1718132513
C  C268  1  0.18100000  0.56920000  0.36190000  1.0 -0.1718132513
C  C269  1  0.18860000  0.88530000  0.77570000  1.0 -0.1718132513
C  C270  1  0.81140000  0.38530000  0.72430000  1.0 -0.1718132513
C  C271  1  0.81140000  0.11470000  0.22430000  1.0 -0.1718132513
C  C272  1  0.18860000  0.61470000  0.27570000  1.0 -0.1718132513
C  C273  1  0.01160000  0.89060000  0.79750000  1.0 -0.1718132513
C  C274  1  0.98840000  0.39060000  0.70250000  1.0 -0.1718132513
C  C275  1  0.98840000  0.10940000  0.20250000  1.0 -0.1718132513
C  C276  1  0.01160000  0.60940000  0.29750000  1.0 -0.1718132513
S  S1  1  0.41491000  0.86006000  0.10682000  1.0 -0.0214905994
S  S2  1  0.58509000  0.36006000  0.39318000  1.0 -0.0214905994
S  S3  1  0.58509000  0.13994000  0.89318000  1.0 -0.0214905994
S  S4  1  0.41491000  0.63994000  0.60682000  1.0 -0.0214905994
S  S5  1  0.19184000  0.75708000  0.89383000  1.0 0.0106887049
S  S6  1  0.80816000  0.25708000  0.60617000  1.0 0.0106887049
S  S7  1  0.80816000  0.24292000  0.10617000  1.0 0.0106887049
S  S8  1  0.19184000  0.74292000  0.39383000  1.0 0.0106887049
S  S9  1  0.85472000  0.74212000  0.99491000  1.0 0.0194673022
S  S10  1  0.14528000  0.24212000  0.50509000  1.0 0.0194673022
S  S11  1  0.14528000  0.25788000  0.00509000  1.0 0.0194673022
S  S12  1  0.85472000  0.75788000  0.49491000  1.0 0.0194673022
S  S13  1  0.08908000  0.84267000  0.21360000  1.0 -0.0065105566
S  S14  1  0.91092000  0.34267000  0.28640000  1.0 -0.0065105566
S  S15  1  0.91092000  0.15733000  0.78640000  1.0 -0.0065105566
S  S16  1  0.08908000  0.65733000  0.71360000  1.0 -0.0065105566
N  N1  1  0.10540000  0.01067000  0.94532000  1.0 -0.2694056518
N  N2  1  0.89460000  0.51067000  0.55468000  1.0 -0.2694056518
N  N3  1  0.89460000  0.98933000  0.05468000  1.0 -0.2694056518
N  N4  1  0.10540000  0.48933000  0.44532000  1.0 -0.2694056518
N  N5  1  0.30890000  0.03460000  0.83650000  1.0 -0.336340405
N  N6  1  0.69110000  0.53460000  0.66350000  1.0 -0.336340405
N  N7  1  0.69110000  0.96540000  0.16350000  1.0 -0.336340405
N  N8  1  0.30890000  0.46540000  0.33650000  1.0 -0.336340405
N  N9  1  0.43460000  0.10379000  0.59010000  1.0 -0.3639831617
N  N10  1  0.56540000  0.60379000  0.90990000  1.0 -0.3639831617
N  N11  1  0.56540000  0.89621000  0.40990000  1.0 -0.3639831617
N  N12  1  0.43460000  0.39621000  0.09010000  1.0 -0.3639831617
N  N13  1  0.30010000  0.17335000  0.41034000  1.0 -0.2694056518
N  N14  1  0.69990000  0.67335000  0.08966000  1.0 -0.2694056518
N  N15  1  0.69990000  0.82665000  0.58966000  1.0 -0.2694056518
N  N16  1  0.30010000  0.32665000  0.91034000  1.0 -0.2694056518
O  O1  1  0.17080000  0.86456000  0.10038000  1.0 -0.2515696299
O  O2  1  0.82920000  0.36456000  0.39962000  1.0 -0.2515696299
O  O3  1  0.82920000  0.13544000  0.89962000  1.0 -0.2515696299
O  O4  1  0.17080000  0.63544000  0.60038000  1.0 -0.2515696299
O  O5  1  0.11110000  0.95790000  0.05975000  1.0 -0.5681788288
O  O6  1  0.88890000  0.45790000  0.44025000  1.0 -0.5681788288
O  O7  1  0.88890000  0.04210000  0.94025000  1.0 -0.5681788288
O  O8  1  0.11110000  0.54210000  0.55975000  1.0 -0.5681788288
O  O9  1  0.02500000  0.90784000  0.99774000  1.0 -0.5845055356
O  O10  1  0.97500000  0.40784000  0.50226000  1.0 -0.5845055356
O  O11  1  0.97500000  0.09216000  0.00226000  1.0 -0.5845055356
O  O12  1  0.02500000  0.59216000  0.49774000  1.0 -0.5845055356
O  O13  1  0.34670000  0.78277000  0.04509000  1.0 -0.1527809128
O  O14  1  0.65330000  0.28277000  0.45491000  1.0 -0.1527809128
O  O15  1  0.65330000  0.21723000  0.95491000  1.0 -0.1527809128
O  O16  1  0.34670000  0.71723000  0.54509000  1.0 -0.1527809128
O  O17  1  0.63120000  0.74734000  0.13747000  1.0 -0.5681788288
O  O18  1  0.36880000  0.24734000  0.36253000  1.0 -0.5681788288
O  O19  1  0.36880000  0.25266000  0.86253000  1.0 -0.5681788288
O  O20  1  0.63120000  0.75266000  0.63747000  1.0 -0.5681788288
O  O21  1  0.46220000  0.72058000  0.11650000  1.0 -0.5151822343
O  O22  1  0.53780000  0.22058000  0.38350000  1.0 -0.5151822343
O  O23  1  0.53780000  0.27942000  0.88350000  1.0 -0.5151822343
O  O24  1  0.46220000  0.77942000  0.61650000  1.0 -0.5151822343
O  O25  1  0.98910000  0.78393000  0.92597000  1.0 -0.2389584953
O  O26  1  0.01090000  0.28393000  0.57403000  1.0 -0.2389584953
O  O27  1  0.01090000  0.21607000  0.07403000  1.0 -0.2389584953
O  O28  1  0.98910000  0.71607000  0.42597000  1.0 -0.2389584953
O  O29  1  0.77950000  0.81892000  0.75595000  1.0 -0.5681788288
O  O30  1  0.22050000  0.31892000  0.74405000  1.0 -0.5681788288
O  O31  1  0.22050000  0.18108000  0.24405000  1.0 -0.5681788288
O  O32  1  0.77950000  0.68108000  0.25595000  1.0 -0.5681788288
O  O33  1  0.87120000  0.84371000  0.86539000  1.0 -0.5681788288
O  O34  1  0.12880000  0.34371000  0.63461000  1.0 -0.5681788288
O  O35  1  0.12880000  0.15629000  0.13461000  1.0 -0.5681788288
O  O36  1  0.87120000  0.65629000  0.36539000  1.0 -0.5681788288
O  O37  1  0.05590000  0.76918000  0.12986000  1.0 -0.16452118
O  O38  1  0.94410000  0.26918000  0.37014000  1.0 -0.1718132513
O  O39  1  0.94410000  0.23082000  0.87014000  1.0 -0.1718132513
O  O40  1  0.05590000  0.73082000  0.62986000  1.0 -0.16452118
O  O41  1  0.87890000  0.74285000  0.17839000  1.0 -0.5387761071
O  O42  1  0.12110000  0.24285000  0.32161000  1.0 -0.5387761071
O  O43  1  0.12110000  0.25715000  0.82161000  1.0 -0.5387761071
O  O44  1  0.87890000  0.75715000  0.67839000  1.0 -0.5387761071
O  O45  1  0.98650000  0.69397000  0.19261000  1.0 -0.5387761071
O  O46  1  0.01350000  0.19397000  0.30739000  1.0 -0.5387761071
O  O47  1  0.01350000  0.30603000  0.80739000  1.0 -0.5387761071
O  O48  1  0.98650000  0.80603000  0.69261000  1.0 -0.5387761071
O  O49  1  0.47480000  0.00313000  0.90200000  1.0 -0.4614243209
O  O50  1  0.52520000  0.50313000  0.59800000  1.0 -0.4614243209
O  O51  1  0.52520000  0.99687000  0.09800000  1.0 -0.4614243209
O  O52  1  0.47480000  0.49687000  0.40200000  1.0 -0.4614243209
O  O53  1  0.30760000  0.11265000  0.63820000  1.0 -0.4530173614
O  O54  1  0.69240000  0.61265000  0.86180000  1.0 -0.4530173614
O  O55  1  0.69240000  0.88735000  0.36180000  1.0 -0.4530173614
O  O56  1  0.30760000  0.38735000  0.13820000  1.0 -0.4530173614
