# DDEC6 charges by PACMAN v1.1 (https://github.com/mtap-research/PACMAN-charge/)
data_AXUHAD_ASR_pacman
_symmetry_space_group_name_H-M   'P 1'
_cell_length_a   27.69470000
_cell_length_b   27.69470000
_cell_length_c   27.69470000
_cell_angle_alpha   131.81000000
_cell_angle_beta   131.81000000
_cell_angle_gamma   70.52960000
_symmetry_Int_Tables_number   1
_chemical_formula_structural   CoH52C40S2(NO3)2
_chemical_formula_sum   'Co8 H416 C320 S16 N16 O48'
_cell_volume   11562.61977445
_cell_formula_units_Z   8
loop_
 _symmetry_equiv_pos_site_id
 _symmetry_equiv_pos_as_xyz
  1  'x, y, z'
loop_
 _atom_site_type_symbol
 _atom_site_label
 _atom_site_symmetry_multiplicity
 _atom_site_fract_x
 _atom_site_fract_y
 _atom_site_fract_z
 _atom_site_occupancy
 _atom_site_charge
Co  Co1  1  0.12500000  0.43293000  0.80793000  1.0 0.8057044997
Co  Co2  1  0.62500000  0.31707000  0.19207000  1.0 0.8057044997
Co  Co3  1  0.18293000  0.87500000  0.80793000  1.0 0.8048227086
Co  Co4  1  0.06707000  0.37500000  0.19207000  1.0 0.8048227086
Co  Co5  1  0.62500000  0.81707000  0.69207000  1.0 0.8057044997
Co  Co6  1  0.12500000  0.93293000  0.30793000  1.0 0.8057044997
Co  Co7  1  0.56707000  0.37500000  0.69207000  1.0 0.8057044997
Co  Co8  1  0.68293000  0.87500000  0.30793000  1.0 0.8057044997
H  H1  1  0.79190000  0.30530000  0.71660000  1.0 0.1212387845
H  H2  1  0.58870000  0.07530000  0.28340000  1.0 0.1212387845
H  H3  1  0.05530000  0.83870000  0.01340000  1.0 0.1212387845
H  H4  1  0.82530000  0.04190000  0.98660000  1.0 0.1212387845
H  H5  1  0.66130000  0.44470000  0.98660000  1.0 0.1212387845
H  H6  1  0.45810000  0.67470000  0.01340000  1.0 0.1212387845
H  H7  1  0.42470000  0.91130000  0.71660000  1.0 0.1212387845
H  H8  1  0.19470000  0.70810000  0.28340000  1.0 0.1212387845
H  H9  1  0.95810000  0.94470000  0.78340000  1.0 0.1212387845
H  H10  1  0.16130000  0.17470000  0.21660000  1.0 0.1212387845
H  H11  1  0.69470000  0.41130000  0.48660000  1.0 0.1212387845
H  H12  1  0.92470000  0.20810000  0.51340000  1.0 0.1212387845
H  H13  1  0.08870000  0.80530000  0.51340000  1.0 0.1212387845
H  H14  1  0.29190000  0.57530000  0.48660000  1.0 0.1212387845
H  H15  1  0.32530000  0.33870000  0.78340000  1.0 0.1212387845
H  H16  1  0.55530000  0.54190000  0.21660000  1.0 0.1212387845
H  H17  1  0.82900000  0.13070000  0.58150000  1.0 0.1301302194
H  H18  1  0.54920000  0.24750000  0.41850000  1.0 0.1301302194
H  H19  1  0.88070000  0.79920000  0.80170000  1.0 0.1301302194
H  H20  1  0.99750000  0.07900000  0.19830000  1.0 0.1301302194
H  H21  1  0.70080000  0.61930000  0.19830000  1.0 0.1301302194
H  H22  1  0.42100000  0.50250000  0.80170000  1.0 0.1301302194
H  H23  1  0.25250000  0.95080000  0.58150000  1.0 0.1301302194
H  H24  1  0.36930000  0.67100000  0.41850000  1.0 0.1301302194
H  H25  1  0.92100000  0.11930000  0.91850000  1.0 0.1301302194
H  H26  1  0.20080000  0.00250000  0.08150000  1.0 0.1301302194
H  H27  1  0.86930000  0.45080000  0.69830000  1.0 0.1301302194
H  H28  1  0.75250000  0.17100000  0.30170000  1.0 0.1301302194
H  H29  1  0.04920000  0.63070000  0.30170000  1.0 0.1301302194
H  H30  1  0.32900000  0.74750000  0.69830000  1.0 0.1301302194
H  H31  1  0.49750000  0.29920000  0.91850000  1.0 0.1301302194
H  H32  1  0.38070000  0.57900000  0.08150000  1.0 0.1301302194
H  H33  1  0.98350000  0.28540000  0.70110000  1.0 0.1117929223
H  H34  1  0.58430000  0.28240000  0.29890000  1.0 0.1117929223
H  H35  1  0.03540000  0.83430000  0.80190000  1.0 0.1117929223
H  H36  1  0.03240000  0.23350000  0.19810000  1.0 0.1117929223
H  H37  1  0.66570000  0.46460000  0.19810000  1.0 0.1117929223
H  H38  1  0.26650000  0.46760000  0.80190000  1.0 0.1117929223
H  H39  1  0.21760000  0.91570000  0.70110000  1.0 0.1117929223
H  H40  1  0.21460000  0.51650000  0.29890000  1.0 0.1117929223
H  H41  1  0.76650000  0.96460000  0.79890000  1.0 0.1117929223
H  H42  1  0.16570000  0.96760000  0.20110000  1.0 0.1117929223
H  H43  1  0.71460000  0.41570000  0.69810000  1.0 0.1117929223
H  H44  1  0.71760000  0.01650000  0.30190000  1.0 0.1117929223
H  H45  1  0.08430000  0.78540000  0.30190000  1.0 0.1117929223
H  H46  1  0.48350000  0.78240000  0.69810000  1.0 0.1117929223
H  H47  1  0.53240000  0.33430000  0.79890000  1.0 0.1117929223
H  H48  1  0.53540000  0.73350000  0.20110000  1.0 0.1117929223
H  H49  1  0.96990000  0.34960000  0.76230000  1.0 0.1212387845
H  H50  1  0.58730000  0.20760000  0.23770000  1.0 0.1212387845
H  H51  1  0.09960000  0.83730000  0.87970000  1.0 0.1212387845
H  H52  1  0.95760000  0.21990000  0.12030000  1.0 0.1212387845
H  H53  1  0.66270000  0.40040000  0.12030000  1.0 0.1212387845
H  H54  1  0.28010000  0.54240000  0.87970000  1.0 0.1212387845
H  H55  1  0.29240000  0.91270000  0.76230000  1.0 0.1212387845
H  H56  1  0.15040000  0.53010000  0.23770000  1.0 0.1212387845
H  H57  1  0.78010000  0.90040000  0.73770000  1.0 0.1212387845
H  H58  1  0.16270000  0.04240000  0.26230000  1.0 0.1212387845
H  H59  1  0.65040000  0.41270000  0.62030000  1.0 0.1212387845
H  H60  1  0.79240000  0.03010000  0.37970000  1.0 0.1212387845
H  H61  1  0.08730000  0.84960000  0.37970000  1.0 0.1212387845
H  H62  1  0.46990000  0.70760000  0.62030000  1.0 0.1212387845
H  H63  1  0.45760000  0.33730000  0.73770000  1.0 0.1212387845
H  H64  1  0.59960000  0.71990000  0.26230000  1.0 0.1212387845
H  H65  1  0.81160000  0.09690000  0.61910000  1.0 0.0514945221
H  H66  1  0.47780000  0.19250000  0.38090000  1.0 0.0514945221
H  H67  1  0.84690000  0.72780000  0.78530000  1.0 0.0514945221
H  H68  1  0.94250000  0.06160000  0.21470000  1.0 0.0514945221
H  H69  1  0.77220000  0.65310000  0.21470000  1.0 0.0514945221
H  H70  1  0.43840000  0.55750000  0.78530000  1.0 0.0514945221
H  H71  1  0.30750000  0.02220000  0.61910000  1.0 0.0514945221
H  H72  1  0.40310000  0.68840000  0.38090000  1.0 0.0514945221
H  H73  1  0.93840000  0.15310000  0.88090000  1.0 0.0514945221
H  H74  1  0.27220000  0.05750000  0.11910000  1.0 0.0514945221
H  H75  1  0.90310000  0.52220000  0.71470000  1.0 0.0514945221
H  H76  1  0.80750000  0.18840000  0.28530000  1.0 0.0514945221
H  H77  1  0.97780000  0.59690000  0.28530000  1.0 0.0514945221
H  H78  1  0.31160000  0.69250000  0.71470000  1.0 0.0514945221
H  H79  1  0.44250000  0.22780000  0.88090000  1.0 0.0514945221
H  H80  1  0.34690000  0.56160000  0.11910000  1.0 0.0514945221
H  H81  1  0.73350000  0.09060000  0.55710000  1.0 0.06067515
H  H82  1  0.53350000  0.17640000  0.44290000  1.0 0.06067515
H  H83  1  0.84060000  0.78350000  0.85710000  1.0 0.06067515
H  H84  1  0.92640000  0.98350000  0.14290000  1.0 0.06067515
H  H85  1  0.71650000  0.65940000  0.14290000  1.0 0.06067515
H  H86  1  0.51650000  0.57360000  0.85710000  1.0 0.06067515
H  H87  1  0.32360000  0.96650000  0.55710000  1.0 0.06067515
H  H88  1  0.40940000  0.76650000  0.44290000  1.0 0.06067515
H  H89  1  0.01650000  0.15940000  0.94290000  1.0 0.06067515
H  H90  1  0.21650000  0.07360000  0.05710000  1.0 0.06067515
H  H91  1  0.90940000  0.46650000  0.64290000  1.0 0.06067515
H  H92  1  0.82360000  0.26650000  0.35710000  1.0 0.06067515
H  H93  1  0.03350000  0.59060000  0.35710000  1.0 0.06067515
H  H94  1  0.23350000  0.67640000  0.64290000  1.0 0.06067515
H  H95  1  0.42640000  0.28350000  0.94290000  1.0 0.06067515
H  H96  1  0.34060000  0.48350000  0.05710000  1.0 0.06067515
H  H97  1  0.76660000  0.10030000  0.63810000  1.0 0.06067515
H  H98  1  0.46220000  0.12850000  0.36190000  1.0 0.06067515
H  H99  1  0.85030000  0.71220000  0.83370000  1.0 0.06067515
H  H100  1  0.87850000  0.01660000  0.16630000  1.0 0.06067515
H  H101  1  0.78780000  0.64970000  0.16630000  1.0 0.06067515
H  H102  1  0.48340000  0.62150000  0.83370000  1.0 0.06067515
H  H103  1  0.37150000  0.03780000  0.63810000  1.0 0.06067515
H  H104  1  0.39970000  0.73340000  0.36190000  1.0 0.06067515
H  H105  1  0.98340000  0.14970000  0.86190000  1.0 0.06067515
H  H106  1  0.28780000  0.12150000  0.13810000  1.0 0.06067515
H  H107  1  0.89970000  0.53780000  0.66630000  1.0 0.06067515
H  H108  1  0.87150000  0.23340000  0.33370000  1.0 0.06067515
H  H109  1  0.96220000  0.60030000  0.33370000  1.0 0.06067515
H  H110  1  0.26660000  0.62850000  0.66630000  1.0 0.06067515
H  H111  1  0.37850000  0.21220000  0.86190000  1.0 0.06067515
H  H112  1  0.35030000  0.51660000  0.13810000  1.0 0.06067515
H  H113  1  0.73530000  0.25990000  0.69900000  1.0 0.0889096321
H  H114  1  0.56090000  0.03630000  0.30100000  1.0 0.0889096321
H  H115  1  0.00990000  0.81090000  0.02460000  1.0 0.0889096321
H  H116  1  0.78630000  0.98530000  0.97540000  1.0 0.0889096321
H  H117  1  0.68910000  0.49010000  0.97540000  1.0 0.0889096321
H  H118  1  0.51470000  0.71370000  0.02460000  1.0 0.0889096321
H  H119  1  0.46370000  0.93910000  0.69900000  1.0 0.0889096321
H  H120  1  0.24010000  0.76470000  0.30100000  1.0 0.0889096321
H  H121  1  0.01470000  0.99010000  0.80100000  1.0 0.0889096321
H  H122  1  0.18910000  0.21370000  0.19900000  1.0 0.0889096321
H  H123  1  0.74010000  0.43910000  0.47540000  1.0 0.0889096321
H  H124  1  0.96370000  0.26470000  0.52460000  1.0 0.0889096321
H  H125  1  0.06090000  0.75990000  0.52460000  1.0 0.0889096321
H  H126  1  0.23530000  0.53630000  0.47540000  1.0 0.0889096321
H  H127  1  0.28630000  0.31090000  0.80100000  1.0 0.0889096321
H  H128  1  0.50990000  0.48530000  0.19900000  1.0 0.0889096321
H  H129  1  0.71770000  0.20050000  0.68560000  1.0 0.06067515
H  H130  1  0.51490000  0.03210000  0.31440000  1.0 0.06067515
H  H131  1  0.95050000  0.76490000  0.98280000  1.0 0.06067515
H  H132  1  0.78210000  0.96770000  0.01720000  1.0 0.06067515
H  H133  1  0.73510000  0.54950000  0.01720000  1.0 0.06067515
H  H134  1  0.53230000  0.71790000  0.98280000  1.0 0.06067515
H  H135  1  0.46790000  0.98510000  0.68560000  1.0 0.06067515
H  H136  1  0.29950000  0.78230000  0.31440000  1.0 0.06067515
H  H137  1  0.03230000  0.04950000  0.81440000  1.0 0.06067515
H  H138  1  0.23510000  0.21790000  0.18560000  1.0 0.06067515
H  H139  1  0.79950000  0.48510000  0.51720000  1.0 0.06067515
H  H140  1  0.96790000  0.28230000  0.48280000  1.0 0.06067515
H  H141  1  0.01490000  0.70050000  0.48280000  1.0 0.06067515
H  H142  1  0.21770000  0.53210000  0.51720000  1.0 0.06067515
H  H143  1  0.28210000  0.26490000  0.81440000  1.0 0.06067515
H  H144  1  0.45050000  0.46770000  0.18560000  1.0 0.06067515
H  H145  1  0.68480000  0.19340000  0.60640000  1.0 0.06067515
H  H146  1  0.58700000  0.07840000  0.39360000  1.0 0.06067515
H  H147  1  0.94340000  0.83700000  0.00860000  1.0 0.06067515
H  H148  1  0.82840000  0.93480000  0.99140000  1.0 0.06067515
H  H149  1  0.66300000  0.55660000  0.99140000  1.0 0.06067515
H  H150  1  0.56520000  0.67160000  0.00860000  1.0 0.06067515
H  H151  1  0.42160000  0.91300000  0.60640000  1.0 0.06067515
H  H152  1  0.30660000  0.81520000  0.39360000  1.0 0.06067515
H  H153  1  0.06520000  0.05660000  0.89360000  1.0 0.06067515
H  H154  1  0.16300000  0.17160000  0.10640000  1.0 0.06067515
H  H155  1  0.80660000  0.41300000  0.49140000  1.0 0.06067515
H  H156  1  0.92160000  0.31520000  0.50860000  1.0 0.06067515
H  H157  1  0.08700000  0.69340000  0.50860000  1.0 0.06067515
H  H158  1  0.18480000  0.57840000  0.49140000  1.0 0.06067515
H  H159  1  0.32840000  0.33700000  0.89360000  1.0 0.06067515
H  H160  1  0.44340000  0.43480000  0.10640000  1.0 0.06067515
H  H161  1  0.84140000  0.26230000  0.79490000  1.0 0.0889096321
H  H162  1  0.46740000  0.04650000  0.20510000  1.0 0.0889096321
H  H163  1  0.01230000  0.71740000  0.92090000  1.0 0.0889096321
H  H164  1  0.79650000  0.09140000  0.07910000  1.0 0.0889096321
H  H165  1  0.78260000  0.48770000  0.07910000  1.0 0.0889096321
H  H166  1  0.40860000  0.70350000  0.92090000  1.0 0.0889096321
H  H167  1  0.45350000  0.03260000  0.79490000  1.0 0.0889096321
H  H168  1  0.23770000  0.65860000  0.20510000  1.0 0.0889096321
H  H169  1  0.90860000  0.98770000  0.70510000  1.0 0.0889096321
H  H170  1  0.28260000  0.20350000  0.29490000  1.0 0.0889096321
H  H171  1  0.73770000  0.53260000  0.57910000  1.0 0.0889096321
H  H172  1  0.95350000  0.15860000  0.42090000  1.0 0.0889096321
H  H173  1  0.96740000  0.76230000  0.42090000  1.0 0.0889096321
H  H174  1  0.34140000  0.54650000  0.57910000  1.0 0.0889096321
H  H175  1  0.29650000  0.21740000  0.70510000  1.0 0.0889096321
H  H176  1  0.51230000  0.59140000  0.29490000  1.0 0.0889096321
H  H177  1  0.87670000  0.20030000  0.77180000  1.0 0.0817176728
H  H178  1  0.42850000  0.10490000  0.22820000  1.0 0.0817176728
H  H179  1  0.95030000  0.67850000  0.82360000  1.0 0.0817176728
H  H180  1  0.85490000  0.12670000  0.17640000  1.0 0.0817176728
H  H181  1  0.82150000  0.54970000  0.17640000  1.0 0.0817176728
H  H182  1  0.37330000  0.64510000  0.82360000  1.0 0.0817176728
H  H183  1  0.39510000  0.07150000  0.77180000  1.0 0.0817176728
H  H184  1  0.29970000  0.62330000  0.22820000  1.0 0.0817176728
H  H185  1  0.87330000  0.04970000  0.72820000  1.0 0.0817176728
H  H186  1  0.32150000  0.14510000  0.27180000  1.0 0.0817176728
H  H187  1  0.79970000  0.57150000  0.67640000  1.0 0.0817176728
H  H188  1  0.89510000  0.12330000  0.32360000  1.0 0.0817176728
H  H189  1  0.92850000  0.70030000  0.32360000  1.0 0.0817176728
H  H190  1  0.37670000  0.60490000  0.67640000  1.0 0.0817176728
H  H191  1  0.35490000  0.17850000  0.72820000  1.0 0.0817176728
H  H192  1  0.45030000  0.62670000  0.27180000  1.0 0.0817176728
H  H193  1  0.81860000  0.19820000  0.77020000  1.0 0.0696949608
H  H194  1  0.42800000  0.04840000  0.22980000  1.0 0.0696949608
H  H195  1  0.94820000  0.67800000  0.87960000  1.0 0.0696949608
H  H196  1  0.79840000  0.06860000  0.12040000  1.0 0.0696949608
H  H197  1  0.82200000  0.55180000  0.12040000  1.0 0.0696949608
H  H198  1  0.43140000  0.70160000  0.87960000  1.0 0.0696949608
H  H199  1  0.45160000  0.07200000  0.77020000  1.0 0.0696949608
H  H200  1  0.30180000  0.68140000  0.22980000  1.0 0.0696949608
H  H201  1  0.93140000  0.05180000  0.72980000  1.0 0.0696949608
H  H202  1  0.32200000  0.20160000  0.27020000  1.0 0.0696949608
H  H203  1  0.80180000  0.57200000  0.62040000  1.0 0.0696949608
H  H204  1  0.95160000  0.18140000  0.37960000  1.0 0.0696949608
H  H205  1  0.92800000  0.69820000  0.37960000  1.0 0.0696949608
H  H206  1  0.31860000  0.54840000  0.62040000  1.0 0.0696949608
H  H207  1  0.29840000  0.17800000  0.72980000  1.0 0.0696949608
H  H208  1  0.44820000  0.56860000  0.27020000  1.0 0.0696949608
H  H209  1  0.19830000  0.86970000  0.23800000  1.0 0.099833639
H  H210  1  0.63170000  0.96030000  0.76200000  1.0 0.099833639
H  H211  1  0.61970000  0.88170000  0.17140000  1.0 0.099833639
H  H212  1  0.71030000  0.44830000  0.82860000  1.0 0.099833639
H  H213  1  0.61830000  0.88030000  0.82860000  1.0 0.099833639
H  H214  1  0.05170000  0.78970000  0.17140000  1.0 0.099833639
H  H215  1  0.53970000  0.86830000  0.23800000  1.0 0.099833639
H  H216  1  0.63030000  0.30170000  0.76200000  1.0 0.099833639
H  H217  1  0.55170000  0.38030000  0.26200000  1.0 0.099833639
H  H218  1  0.11830000  0.28970000  0.73800000  1.0 0.099833639
H  H219  1  0.13030000  0.36830000  0.32860000  1.0 0.099833639
H  H220  1  0.03970000  0.80170000  0.67140000  1.0 0.099833639
H  H221  1  0.13170000  0.36970000  0.67140000  1.0 0.099833639
H  H222  1  0.69830000  0.46030000  0.32860000  1.0 0.099833639
H  H223  1  0.21030000  0.38170000  0.26200000  1.0 0.099833639
H  H224  1  0.11970000  0.94830000  0.73800000  1.0 0.099833639
H  H225  1  0.20160000  0.76840000  0.13780000  1.0 0.1301302194
H  H226  1  0.63060000  0.06380000  0.86220000  1.0 0.1301302194
H  H227  1  0.51840000  0.88060000  0.06680000  1.0 0.1301302194
H  H228  1  0.81380000  0.45160000  0.93320000  1.0 0.1301302194
H  H229  1  0.61940000  0.98160000  0.93320000  1.0 0.1301302194
H  H230  1  0.04840000  0.68620000  0.06680000  1.0 0.1301302194
H  H231  1  0.43620000  0.86940000  0.13780000  1.0 0.1301302194
H  H232  1  0.73160000  0.29840000  0.86220000  1.0 0.1301302194
H  H233  1  0.54840000  0.48160000  0.36220000  1.0 0.1301302194
H  H234  1  0.11940000  0.18620000  0.63780000  1.0 0.1301302194
H  H235  1  0.23160000  0.36940000  0.43320000  1.0 0.1301302194
H  H236  1  0.93620000  0.79840000  0.56680000  1.0 0.1301302194
H  H237  1  0.13060000  0.26840000  0.56680000  1.0 0.1301302194
H  H238  1  0.70160000  0.56380000  0.43320000  1.0 0.1301302194
H  H239  1  0.31380000  0.38060000  0.36220000  1.0 0.1301302194
H  H240  1  0.01840000  0.95160000  0.63780000  1.0 0.1301302194
H  H241  1  0.22420000  0.66160000  0.09000000  1.0 0.1480252809
H  H242  1  0.57160000  0.13420000  0.91000000  1.0 0.1480252809
H  H243  1  0.41160000  0.82160000  0.93740000  1.0 0.1480252809
H  H244  1  0.88420000  0.47420000  0.06260000  1.0 0.1480252809
H  H245  1  0.67840000  0.08840000  0.06260000  1.0 0.1480252809
H  H246  1  0.02580000  0.61580000  0.93740000  1.0 0.1480252809
H  H247  1  0.36580000  0.92840000  0.09000000  1.0 0.1480252809
H  H248  1  0.83840000  0.27580000  0.91000000  1.0 0.1480252809
H  H249  1  0.52580000  0.58840000  0.41000000  1.0 0.1480252809
H  H250  1  0.17840000  0.11580000  0.59000000  1.0 0.1480252809
H  H251  1  0.33840000  0.42840000  0.56260000  1.0 0.1480252809
H  H252  1  0.86580000  0.77580000  0.43740000  1.0 0.1480252809
H  H253  1  0.07160000  0.16160000  0.43740000  1.0 0.1480252809
H  H254  1  0.72420000  0.63420000  0.56260000  1.0 0.1480252809
H  H255  1  0.38420000  0.32160000  0.41000000  1.0 0.1480252809
H  H256  1  0.91160000  0.97420000  0.59000000  1.0 0.1480252809
H  H257  1  0.22150000  0.55870000  0.98620000  1.0 0.1117929223
H  H258  1  0.57250000  0.23530000  0.01380000  1.0 0.1117929223
H  H259  1  0.30870000  0.82250000  0.83720000  1.0 0.1117929223
H  H260  1  0.98530000  0.47150000  0.16280000  1.0 0.1117929223
H  H261  1  0.67750000  0.19130000  0.16280000  1.0 0.1117929223
H  H262  1  0.02850000  0.51470000  0.83720000  1.0 0.1117929223
H  H263  1  0.26470000  0.92750000  0.98620000  1.0 0.1117929223
H  H264  1  0.94130000  0.27850000  0.01380000  1.0 0.1117929223
H  H265  1  0.52850000  0.69130000  0.51380000  1.0 0.1117929223
H  H266  1  0.17750000  0.01470000  0.48620000  1.0 0.1117929223
H  H267  1  0.44130000  0.42750000  0.66280000  1.0 0.1117929223
H  H268  1  0.76470000  0.77850000  0.33720000  1.0 0.1117929223
H  H269  1  0.07250000  0.05870000  0.33720000  1.0 0.1117929223
H  H270  1  0.72150000  0.73530000  0.66280000  1.0 0.1117929223
H  H271  1  0.48530000  0.32250000  0.51380000  1.0 0.1117929223
H  H272  1  0.80870000  0.97150000  0.48620000  1.0 0.1117929223
H  H273  1  0.77840000  0.08310000  0.58170000  1.0 0.0696949608
H  H274  1  0.50140000  0.19670000  0.41830000  1.0 0.0696949608
H  H275  1  0.83310000  0.75140000  0.80470000  1.0 0.0696949608
H  H276  1  0.94670000  0.02840000  0.19530000  1.0 0.0696949608
H  H277  1  0.74860000  0.66690000  0.19530000  1.0 0.0696949608
H  H278  1  0.47160000  0.55330000  0.80470000  1.0 0.0696949608
H  H279  1  0.30330000  0.99860000  0.58170000  1.0 0.0696949608
H  H280  1  0.41690000  0.72160000  0.41830000  1.0 0.0696949608
H  H281  1  0.97160000  0.16690000  0.91830000  1.0 0.0696949608
H  H282  1  0.24860000  0.05330000  0.08170000  1.0 0.0696949608
H  H283  1  0.91690000  0.49860000  0.69530000  1.0 0.0696949608
H  H284  1  0.80330000  0.22160000  0.30470000  1.0 0.0696949608
H  H285  1  0.00140000  0.58310000  0.30470000  1.0 0.0696949608
H  H286  1  0.27840000  0.69670000  0.69530000  1.0 0.0696949608
H  H287  1  0.44670000  0.25140000  0.91830000  1.0 0.0696949608
H  H288  1  0.33310000  0.52840000  0.08170000  1.0 0.0696949608
H  H289  1  0.79590000  0.10320000  0.66170000  1.0 0.06067515
H  H290  1  0.44150000  0.13420000  0.33830000  1.0 0.06067515
H  H291  1  0.85320000  0.69150000  0.80730000  1.0 0.06067515
H  H292  1  0.88420000  0.04590000  0.19270000  1.0 0.06067515
H  H293  1  0.80850000  0.64680000  0.19270000  1.0 0.06067515
H  H294  1  0.45410000  0.61580000  0.80730000  1.0 0.06067515
H  H295  1  0.36580000  0.05850000  0.66170000  1.0 0.06067515
H  H296  1  0.39680000  0.70410000  0.33830000  1.0 0.06067515
H  H297  1  0.95410000  0.14680000  0.83830000  1.0 0.06067515
H  H298  1  0.30850000  0.11580000  0.16170000  1.0 0.06067515
H  H299  1  0.89680000  0.55850000  0.69270000  1.0 0.06067515
H  H300  1  0.86580000  0.20410000  0.30730000  1.0 0.06067515
H  H301  1  0.94150000  0.60320000  0.30730000  1.0 0.06067515
H  H302  1  0.29590000  0.63420000  0.69270000  1.0 0.06067515
H  H303  1  0.38420000  0.19150000  0.83830000  1.0 0.06067515
H  H304  1  0.35320000  0.54590000  0.16170000  1.0 0.06067515
H  H305  1  0.85100000  0.12220000  0.67000000  1.0 0.099833639
H  H306  1  0.45220000  0.18100000  0.33000000  1.0 0.099833639
H  H307  1  0.87220000  0.70220000  0.77120000  1.0 0.099833639
H  H308  1  0.93100000  0.10100000  0.22880000  1.0 0.099833639
H  H309  1  0.79780000  0.62780000  0.22880000  1.0 0.099833639
H  H310  1  0.39900000  0.56900000  0.77120000  1.0 0.099833639
H  H311  1  0.31900000  0.04780000  0.67000000  1.0 0.099833639
H  H312  1  0.37780000  0.64900000  0.33000000  1.0 0.099833639
H  H313  1  0.89900000  0.12780000  0.83000000  1.0 0.099833639
H  H314  1  0.29780000  0.06900000  0.17000000  1.0 0.099833639
H  H315  1  0.87780000  0.54780000  0.72880000  1.0 0.099833639
H  H316  1  0.81900000  0.14900000  0.27120000  1.0 0.099833639
H  H317  1  0.95220000  0.62220000  0.27120000  1.0 0.099833639
H  H318  1  0.35100000  0.68100000  0.72880000  1.0 0.099833639
H  H319  1  0.43100000  0.20220000  0.83000000  1.0 0.099833639
H  H320  1  0.37220000  0.60100000  0.17000000  1.0 0.099833639
H  H321  1  0.69870000  0.12590000  0.53460000  1.0 0.0696949608
H  H322  1  0.59130000  0.16410000  0.46540000  1.0 0.0696949608
H  H323  1  0.87590000  0.84130000  0.92720000  1.0 0.0696949608
H  H324  1  0.91410000  0.94870000  0.07280000  1.0 0.0696949608
H  H325  1  0.65870000  0.62410000  0.07280000  1.0 0.0696949608
H  H326  1  0.55130000  0.58590000  0.92720000  1.0 0.0696949608
H  H327  1  0.33590000  0.90870000  0.53460000  1.0 0.0696949608
H  H328  1  0.37410000  0.80130000  0.46540000  1.0 0.0696949608
H  H329  1  0.05130000  0.12410000  0.96540000  1.0 0.0696949608
H  H330  1  0.15870000  0.08590000  0.03460000  1.0 0.0696949608
H  H331  1  0.87410000  0.40870000  0.57280000  1.0 0.0696949608
H  H332  1  0.83590000  0.30130000  0.42720000  1.0 0.0696949608
H  H333  1  0.09130000  0.62590000  0.42720000  1.0 0.0696949608
H  H334  1  0.19870000  0.66410000  0.57280000  1.0 0.0696949608
H  H335  1  0.41410000  0.34130000  0.96540000  1.0 0.0696949608
H  H336  1  0.37590000  0.44870000  0.03460000  1.0 0.0696949608
H  H337  1  0.68680000  0.19740000  0.58940000  1.0 0.0889096321
H  H338  1  0.60800000  0.09740000  0.41060000  1.0 0.0889096321
H  H339  1  0.94740000  0.85800000  0.01060000  1.0 0.0889096321
H  H340  1  0.84740000  0.93680000  0.98940000  1.0 0.0889096321
H  H341  1  0.64200000  0.55260000  0.98940000  1.0 0.0889096321
H  H342  1  0.56320000  0.65260000  0.01060000  1.0 0.0889096321
H  H343  1  0.40260000  0.89200000  0.58940000  1.0 0.0889096321
H  H344  1  0.30260000  0.81320000  0.41060000  1.0 0.0889096321
H  H345  1  0.06320000  0.05260000  0.91060000  1.0 0.0889096321
H  H346  1  0.14200000  0.15260000  0.08940000  1.0 0.0889096321
H  H347  1  0.80260000  0.39200000  0.48940000  1.0 0.0889096321
H  H348  1  0.90260000  0.31320000  0.51060000  1.0 0.0889096321
H  H349  1  0.10800000  0.69740000  0.51060000  1.0 0.0889096321
H  H350  1  0.18680000  0.59740000  0.48940000  1.0 0.0889096321
H  H351  1  0.34740000  0.35800000  0.91060000  1.0 0.0889096321
H  H352  1  0.44740000  0.43680000  0.08940000  1.0 0.0889096321
H  H353  1  0.68300000  0.14070000  0.58910000  1.0 0.0696949608
H  H354  1  0.55160000  0.09390000  0.41090000  1.0 0.0696949608
H  H355  1  0.89070000  0.80160000  0.95770000  1.0 0.0696949608
H  H356  1  0.84390000  0.93300000  0.04230000  1.0 0.0696949608
H  H357  1  0.69840000  0.60930000  0.04230000  1.0 0.0696949608
H  H358  1  0.56700000  0.65610000  0.95770000  1.0 0.0696949608
H  H359  1  0.40610000  0.94840000  0.58910000  1.0 0.0696949608
H  H360  1  0.35930000  0.81700000  0.41090000  1.0 0.0696949608
H  H361  1  0.06700000  0.10930000  0.91090000  1.0 0.0696949608
H  H362  1  0.19840000  0.15610000  0.08910000  1.0 0.0696949608
H  H363  1  0.85930000  0.44840000  0.54230000  1.0 0.0696949608
H  H364  1  0.90610000  0.31700000  0.45770000  1.0 0.0696949608
H  H365  1  0.05160000  0.64070000  0.45770000  1.0 0.0696949608
H  H366  1  0.18300000  0.59390000  0.54230000  1.0 0.0696949608
H  H367  1  0.34390000  0.30160000  0.91090000  1.0 0.0696949608
H  H368  1  0.39070000  0.43300000  0.08910000  1.0 0.0696949608
H  H369  1  0.75660000  0.20660000  0.73100000  1.0 0.0696949608
H  H370  1  0.47560000  0.02560000  0.26900000  1.0 0.0696949608
H  H371  1  0.95660000  0.72560000  0.95000000  1.0 0.0696949608
H  H372  1  0.77560000  0.00660000  0.05000000  1.0 0.0696949608
H  H373  1  0.77440000  0.54340000  0.05000000  1.0 0.0696949608
H  H374  1  0.49340000  0.72440000  0.95000000  1.0 0.0696949608
H  H375  1  0.47440000  0.02440000  0.73100000  1.0 0.0696949608
H  H376  1  0.29340000  0.74340000  0.26900000  1.0 0.0696949608
H  H377  1  0.99340000  0.04340000  0.76900000  1.0 0.0696949608
H  H378  1  0.27440000  0.22440000  0.23100000  1.0 0.0696949608
H  H379  1  0.79340000  0.52440000  0.55000000  1.0 0.0696949608
H  H380  1  0.97440000  0.24340000  0.45000000  1.0 0.0696949608
H  H381  1  0.97560000  0.70660000  0.45000000  1.0 0.0696949608
H  H382  1  0.25660000  0.52560000  0.55000000  1.0 0.0696949608
H  H383  1  0.27560000  0.22560000  0.76900000  1.0 0.0696949608
H  H384  1  0.45660000  0.50660000  0.23100000  1.0 0.0696949608
H  H385  1  0.74450000  0.25930000  0.71840000  1.0 0.0889096321
H  H386  1  0.54090000  0.02610000  0.28160000  1.0 0.0889096321
H  H387  1  0.00930000  0.79090000  0.01480000  1.0 0.0889096321
H  H388  1  0.77610000  0.99450000  0.98520000  1.0 0.0889096321
H  H389  1  0.70910000  0.49070000  0.98520000  1.0 0.0889096321
H  H390  1  0.50550000  0.72390000  0.01480000  1.0 0.0889096321
H  H391  1  0.47390000  0.95910000  0.71840000  1.0 0.0889096321
H  H392  1  0.24070000  0.75550000  0.28160000  1.0 0.0889096321
H  H393  1  0.00550000  0.99070000  0.78160000  1.0 0.0889096321
H  H394  1  0.20910000  0.22390000  0.21840000  1.0 0.0889096321
H  H395  1  0.74070000  0.45910000  0.48520000  1.0 0.0889096321
H  H396  1  0.97390000  0.25550000  0.51480000  1.0 0.0889096321
H  H397  1  0.04090000  0.75930000  0.51480000  1.0 0.0889096321
H  H398  1  0.24450000  0.52610000  0.48520000  1.0 0.0889096321
H  H399  1  0.27610000  0.29090000  0.78160000  1.0 0.0889096321
H  H400  1  0.50930000  0.49450000  0.21840000  1.0 0.0889096321
H  H401  1  0.81790000  0.25840000  0.78490000  1.0 0.06067515
H  H402  1  0.47350000  0.03300000  0.21510000  1.0 0.06067515
H  H403  1  0.00840000  0.72350000  0.94050000  1.0 0.06067515
H  H404  1  0.78300000  0.06790000  0.05950000  1.0 0.06067515
H  H405  1  0.77650000  0.49160000  0.05950000  1.0 0.06067515
H  H406  1  0.43210000  0.71700000  0.94050000  1.0 0.06067515
H  H407  1  0.46700000  0.02650000  0.78490000  1.0 0.06067515
H  H408  1  0.24160000  0.68210000  0.21510000  1.0 0.06067515
H  H409  1  0.93210000  0.99160000  0.71510000  1.0 0.06067515
H  H410  1  0.27650000  0.21700000  0.28490000  1.0 0.06067515
H  H411  1  0.74160000  0.52650000  0.55950000  1.0 0.06067515
H  H412  1  0.96700000  0.18210000  0.44050000  1.0 0.06067515
H  H413  1  0.97350000  0.75840000  0.44050000  1.0 0.06067515
H  H414  1  0.31790000  0.53300000  0.55950000  1.0 0.06067515
H  H415  1  0.28300000  0.22350000  0.71510000  1.0 0.06067515
H  H416  1  0.50840000  0.56790000  0.28490000  1.0 0.06067515
C  C1  1  0.86380000  0.27233000  0.64331000  1.0 0.1480252809
C  C2  1  0.62902000  0.22049000  0.35669000  1.0 0.1480252809
C  C3  1  0.02233000  0.87902000  0.90853000  1.0 0.1480252809
C  C4  1  0.97049000  0.11380000  0.09147000  1.0 0.1480252809
C  C5  1  0.62098000  0.47767000  0.09147000  1.0 0.1480252809
C  C6  1  0.38620000  0.52951000  0.90853000  1.0 0.1480252809
C  C7  1  0.27951000  0.87098000  0.64331000  1.0 0.1480252809
C  C8  1  0.22767000  0.63620000  0.35669000  1.0 0.1480252809
C  C9  1  0.88620000  0.97767000  0.85669000  1.0 0.1480252809
C  C10  1  0.12098000  0.02951000  0.14331000  1.0 0.1480252809
C  C11  1  0.72767000  0.37098000  0.59147000  1.0 0.1480252809
C  C12  1  0.77951000  0.13620000  0.40853000  1.0 0.1480252809
C  C13  1  0.12902000  0.77233000  0.40853000  1.0 0.1480252809
C  C14  1  0.36380000  0.72049000  0.59147000  1.0 0.1480252809
C  C15  1  0.47049000  0.37902000  0.85669000  1.0 0.1480252809
C  C16  1  0.52233000  0.61380000  0.14331000  1.0 0.1480252809
C  C17  1  0.83745000  0.30946000  0.68467000  1.0 -0.015040148
C  C18  1  0.62479000  0.15278000  0.31533000  1.0 -0.015040148
C  C19  1  0.05946000  0.87479000  0.97201000  1.0 -0.015040148
C  C20  1  0.90278000  0.08745000  0.02799000  1.0 -0.015040148
C  C21  1  0.62521000  0.44054000  0.02799000  1.0 -0.015040148
C  C22  1  0.41255000  0.59722000  0.97201000  1.0 -0.0143535937
C  C23  1  0.34722000  0.87521000  0.68467000  1.0 -0.015040148
C  C24  1  0.19054000  0.66255000  0.31533000  1.0 -0.015040148
C  C25  1  0.91255000  0.94054000  0.81533000  1.0 -0.015040148
C  C26  1  0.12521000  0.09722000  0.18467000  1.0 -0.015040148
C  C27  1  0.69054000  0.37521000  0.52799000  1.0 -0.015040148
C  C28  1  0.84722000  0.16255000  0.47201000  1.0 -0.015040148
C  C29  1  0.12479000  0.80946000  0.47201000  1.0 -0.015040148
C  C30  1  0.33745000  0.65278000  0.52799000  1.0 -0.015040148
C  C31  1  0.40278000  0.37479000  0.81533000  1.0 -0.015040148
C  C32  1  0.55946000  0.58745000  0.18467000  1.0 -0.015040148
C  C33  1  0.81038000  0.27969000  0.68915000  1.0 -0.2397145979
C  C34  1  0.59054000  0.12123000  0.31085000  1.0 -0.2397145979
C  C35  1  0.02969000  0.84054000  0.96931000  1.0 -0.2397145979
C  C36  1  0.87123000  0.06038000  0.03069000  1.0 -0.2397145979
C  C37  1  0.65946000  0.47031000  0.03069000  1.0 -0.2397145979
C  C38  1  0.43962000  0.62877000  0.96931000  1.0 -0.2397145979
C  C39  1  0.37877000  0.90946000  0.68915000  1.0 -0.2397145979
C  C40  1  0.22031000  0.68962000  0.31085000  1.0 -0.2397145979
C  C41  1  0.93962000  0.97031000  0.81085000  1.0 -0.2397145979
C  C42  1  0.15946000  0.12877000  0.18915000  1.0 -0.2397145979
C  C43  1  0.72031000  0.40946000  0.53069000  1.0 -0.2397145979
C  C44  1  0.87877000  0.18962000  0.46931000  1.0 -0.2397145979
C  C45  1  0.09054000  0.77969000  0.46931000  1.0 -0.2397145979
C  C46  1  0.31038000  0.62123000  0.53069000  1.0 -0.2397145979
C  C47  1  0.37123000  0.34054000  0.81085000  1.0 -0.2397145979
C  C48  1  0.52969000  0.56038000  0.18915000  1.0 -0.2397145979
C  C49  1  0.80951000  0.21388000  0.65475000  1.0 0.06067515
C  C50  1  0.55913000  0.15476000  0.34525000  1.0 0.06067515
C  C51  1  0.96388000  0.80913000  0.90437000  1.0 0.06067515
C  C52  1  0.90476000  0.05951000  0.09563000  1.0 0.06067515
C  C53  1  0.69087000  0.53612000  0.09563000  1.0 0.06067515
C  C54  1  0.44049000  0.59524000  0.90437000  1.0 0.06067515
C  C55  1  0.34524000  0.94087000  0.65475000  1.0 0.06067515
C  C56  1  0.28612000  0.69049000  0.34525000  1.0 0.06067515
C  C57  1  0.94049000  0.03612000  0.84525000  1.0 0.06067515
C  C58  1  0.19087000  0.09524000  0.15475000  1.0 0.06067515
C  C59  1  0.78612000  0.44087000  0.59563000  1.0 0.06067515
C  C60  1  0.84524000  0.19049000  0.40437000  1.0 0.06067515
C  C61  1  0.05913000  0.71388000  0.40437000  1.0 0.06067515
C  C62  1  0.30951000  0.65476000  0.59563000  1.0 0.06067515
C  C63  1  0.40476000  0.30913000  0.84525000  1.0 0.06067515
C  C64  1  0.46388000  0.55951000  0.15475000  1.0 0.06067515
C  C65  1  0.83218000  0.17674000  0.60938000  1.0 -0.2182718114
C  C66  1  0.56736000  0.22280000  0.39062000  1.0 -0.2182718114
C  C67  1  0.92674000  0.81736000  0.84456000  1.0 -0.2182718114
C  C68  1  0.97280000  0.08218000  0.15544000  1.0 -0.2182718114
C  C69  1  0.68264000  0.57326000  0.15544000  1.0 -0.2182718114
C  C70  1  0.41782000  0.52720000  0.84456000  1.0 -0.2182718114
C  C71  1  0.27720000  0.93264000  0.60938000  1.0 -0.2182718114
C  C72  1  0.32326000  0.66782000  0.39062000  1.0 -0.2182718114
C  C73  1  0.91782000  0.07326000  0.89062000  1.0 -0.2182718114
C  C74  1  0.18264000  0.02720000  0.10938000  1.0 -0.2182718114
C  C75  1  0.82326000  0.43264000  0.65544000  1.0 -0.2182718114
C  C76  1  0.77720000  0.16782000  0.34456000  1.0 -0.2182718114
C  C77  1  0.06736000  0.67674000  0.34456000  1.0 -0.2182718114
C  C78  1  0.33218000  0.72280000  0.65544000  1.0 -0.2182718114
C  C79  1  0.47280000  0.31736000  0.89062000  1.0 -0.2182718114
C  C80  1  0.42674000  0.58218000  0.10938000  1.0 -0.2182718114
C  C81  1  0.79485000  0.39855000  0.65436000  1.0 -0.0143535937
C  C82  1  0.74419000  0.14049000  0.34564000  1.0 -0.0143535937
C  C83  1  0.14855000  0.99419000  0.10370000  1.0 -0.0143535937
C  C84  1  0.89049000  0.04485000  0.89630000  1.0 -0.0143535937
C  C85  1  0.50581000  0.35145000  0.89630000  1.0 -0.0143535937
C  C86  1  0.45515000  0.60951000  0.10370000  1.0 -0.0143535937
C  C87  1  0.35951000  0.75581000  0.65436000  1.0 -0.0143535937
C  C88  1  0.10145000  0.70515000  0.34564000  1.0 -0.0143535937
C  C89  1  0.95515000  0.85145000  0.84564000  1.0 -0.0143535937
C  C90  1  0.00581000  0.10951000  0.15436000  1.0 -0.0143535937
C  C91  1  0.60145000  0.25581000  0.39630000  1.0 -0.0143535937
C  C92  1  0.85951000  0.20515000  0.60370000  1.0 -0.0143535937
C  C93  1  0.24419000  0.89855000  0.60370000  1.0 -0.0143535937
C  C94  1  0.29485000  0.64049000  0.39630000  1.0 -0.0143535937
C  C95  1  0.39049000  0.49419000  0.84564000  1.0 -0.0143535937
C  C96  1  0.64855000  0.54485000  0.15436000  1.0 -0.0143535937
C  C97  1  0.96244000  0.32428000  0.70992000  1.0 -0.1730452998
C  C98  1  0.61436000  0.25252000  0.29008000  1.0 -0.1730452998
C  C99  1  0.07428000  0.86436000  0.86184000  1.0 -0.1730452998
C  C100  1  0.00252000  0.21244000  0.13816000  1.0 -0.1730452998
C  C101  1  0.63564000  0.42572000  0.13816000  1.0 -0.1730452998
C  C102  1  0.28756000  0.49748000  0.86184000  1.0 -0.1730452998
C  C103  1  0.24748000  0.88564000  0.70992000  1.0 -0.1730452998
C  C104  1  0.17572000  0.53756000  0.29008000  1.0 -0.1730452998
C  C105  1  0.78756000  0.92572000  0.79008000  1.0 -0.1730452998
C  C106  1  0.13564000  0.99748000  0.20992000  1.0 -0.1730452998
C  C107  1  0.67572000  0.38564000  0.63816000  1.0 -0.1730452998
C  C108  1  0.74748000  0.03756000  0.36184000  1.0 -0.1730452998
C  C109  1  0.11436000  0.82428000  0.36184000  1.0 -0.1730452998
C  C110  1  0.46244000  0.75252000  0.63816000  1.0 -0.1730452998
C  C111  1  0.50252000  0.36436000  0.79008000  1.0 -0.1730452998
C  C112  1  0.57428000  0.71244000  0.20992000  1.0 -0.1730452998
C  C113  1  0.99426000  0.36694000  0.71874000  1.0 0.564191307
C  C114  1  0.64820000  0.27552000  0.28126000  1.0 0.564191307
C  C115  1  0.11694000  0.89820000  0.87268000  1.0 0.564191307
C  C116  1  0.02552000  0.24426000  0.12732000  1.0 0.564191307
C  C117  1  0.60180000  0.38306000  0.12732000  1.0 0.564191307
C  C118  1  0.25574000  0.47448000  0.87268000  1.0 0.564191307
C  C119  1  0.22448000  0.85180000  0.71874000  1.0 0.564191307
C  C120  1  0.13306000  0.50574000  0.28126000  1.0 0.564191307
C  C121  1  0.75574000  0.88306000  0.78126000  1.0 0.564191307
C  C122  1  0.10180000  0.97448000  0.21874000  1.0 0.564191307
C  C123  1  0.63306000  0.35180000  0.62732000  1.0 0.564191307
C  C124  1  0.72448000  0.00574000  0.37268000  1.0 0.564191307
C  C125  1  0.14820000  0.86694000  0.37268000  1.0 0.564191307
C  C126  1  0.49426000  0.77552000  0.62732000  1.0 0.564191307
C  C127  1  0.52552000  0.39820000  0.78126000  1.0 0.564191307
C  C128  1  0.61694000  0.74426000  0.21874000  1.0 0.564191307
C  C129  1  0.78193000  0.18290000  0.66369000  1.0 0.2147891327
C  C130  1  0.51921000  0.11824000  0.33631000  1.0 0.2147891327
C  C131  1  0.93290000  0.76921000  0.90097000  1.0 0.2147891327
C  C132  1  0.86824000  0.03193000  0.09903000  1.0 0.2147891327
C  C133  1  0.73079000  0.56710000  0.09903000  1.0 0.2147891327
C  C134  1  0.46807000  0.63176000  0.90097000  1.0 0.2147891327
C  C135  1  0.38176000  0.98079000  0.66369000  1.0 0.2147891327
C  C136  1  0.31710000  0.71807000  0.33631000  1.0 0.2147891327
C  C137  1  0.96807000  0.06710000  0.83631000  1.0 0.2147891327
C  C138  1  0.23079000  0.13176000  0.16369000  1.0 0.2152738824
C  C139  1  0.81710000  0.48079000  0.59903000  1.0 0.2147891327
C  C140  1  0.88176000  0.21807000  0.40097000  1.0 0.2147891327
C  C141  1  0.01921000  0.68290000  0.40097000  1.0 0.2147891327
C  C142  1  0.28193000  0.61824000  0.59903000  1.0 0.2147891327
C  C143  1  0.36824000  0.26921000  0.83631000  1.0 0.2147891327
C  C144  1  0.43290000  0.53193000  0.16369000  1.0 0.2147891327
C  C145  1  0.77270000  0.11200000  0.61570000  1.0 -0.1813473775
C  C146  1  0.49630000  0.15700000  0.38430000  1.0 -0.1813473775
C  C147  1  0.86200000  0.74630000  0.83930000  1.0 -0.1813473775
C  C148  1  0.90700000  0.02270000  0.16070000  1.0 -0.1813473775
C  C149  1  0.75370000  0.63800000  0.16070000  1.0 -0.1813473775
C  C150  1  0.47730000  0.59300000  0.83930000  1.0 -0.1813473775
C  C151  1  0.34300000  0.00370000  0.61570000  1.0 -0.1813473775
C  C152  1  0.38800000  0.72730000  0.38430000  1.0 -0.1813473775
C  C153  1  0.97730000  0.13800000  0.88430000  1.0 -0.1813473775
C  C154  1  0.25370000  0.09300000  0.11570000  1.0 -0.1813473775
C  C155  1  0.88800000  0.50370000  0.66070000  1.0 -0.1813473775
C  C156  1  0.84300000  0.22730000  0.33930000  1.0 -0.1813473775
C  C157  1  0.99630000  0.61200000  0.33930000  1.0 -0.1813473775
C  C158  1  0.27270000  0.65700000  0.66070000  1.0 -0.1813473775
C  C159  1  0.40700000  0.24630000  0.88430000  1.0 -0.1813473775
C  C160  1  0.36200000  0.52270000  0.11570000  1.0 -0.1813473775
C  C161  1  0.72486000  0.21166000  0.66360000  1.0 -0.2103967987
C  C162  1  0.54806000  0.06126000  0.33640000  1.0 -0.2103967987
C  C163  1  0.96166000  0.79806000  0.98680000  1.0 -0.2103967987
C  C164  1  0.81126000  0.97486000  0.01320000  1.0 -0.2103967987
C  C165  1  0.70194000  0.53834000  0.01320000  1.0 -0.2103967987
C  C166  1  0.52514000  0.68874000  0.98680000  1.0 -0.2103967987
C  C167  1  0.43874000  0.95194000  0.66360000  1.0 -0.2103967987
C  C168  1  0.28834000  0.77514000  0.33640000  1.0 -0.2103967987
C  C169  1  0.02514000  0.03834000  0.83640000  1.0 -0.2103967987
C  C170  1  0.20194000  0.18874000  0.16360000  1.0 -0.2103967987
C  C171  1  0.78834000  0.45194000  0.51320000  1.0 -0.2103967987
C  C172  1  0.93874000  0.27514000  0.48680000  1.0 -0.2103967987
C  C173  1  0.04806000  0.71166000  0.48680000  1.0 -0.2103967987
C  C174  1  0.22486000  0.56126000  0.51320000  1.0 -0.2103967987
C  C175  1  0.31126000  0.29806000  0.83640000  1.0 -0.2103967987
C  C176  1  0.46166000  0.47486000  0.16360000  1.0 -0.2103967987
C  C177  1  0.83476000  0.21386000  0.75930000  1.0 -0.2886493587
C  C178  1  0.45456000  0.07546000  0.24070000  1.0 -0.2886493587
C  C179  1  0.96386000  0.70456000  0.87910000  1.0 -0.2886493587
C  C180  1  0.82546000  0.08476000  0.12090000  1.0 -0.2886493587
C  C181  1  0.79544000  0.53614000  0.12090000  1.0 -0.2886493587
C  C182  1  0.41524000  0.67454000  0.87910000  1.0 -0.2886493587
C  C183  1  0.42454000  0.04544000  0.75930000  1.0 -0.2886493587
C  C184  1  0.28614000  0.66524000  0.24070000  1.0 -0.2886493587
C  C185  1  0.91524000  0.03614000  0.74070000  1.0 -0.2886493587
C  C186  1  0.29544000  0.17454000  0.25930000  1.0 -0.2886493587
C  C187  1  0.78614000  0.54544000  0.62090000  1.0 -0.2886493587
C  C188  1  0.92454000  0.16524000  0.37910000  1.0 -0.2886493587
C  C189  1  0.95456000  0.71386000  0.37910000  1.0 -0.2886493587
C  C190  1  0.33476000  0.57546000  0.62090000  1.0 -0.2886493587
C  C191  1  0.32546000  0.20456000  0.74070000  1.0 -0.2886493587
C  C192  1  0.46386000  0.58476000  0.25930000  1.0 -0.2886493587
C  C193  1  0.16774000  0.83158000  0.20286000  1.0 0.06067515
C  C194  1  0.62872000  0.96488000  0.79714000  1.0 0.06067515
C  C195  1  0.58158000  0.87872000  0.16384000  1.0 0.06067515
C  C196  1  0.71488000  0.41774000  0.83616000  1.0 0.06067515
C  C197  1  0.62128000  0.91842000  0.83616000  1.0 0.06067515
C  C198  1  0.08226000  0.78512000  0.16384000  1.0 0.06067515
C  C199  1  0.53512000  0.87128000  0.20286000  1.0 0.06067515
C  C200  1  0.66842000  0.33226000  0.79714000  1.0 0.06067515
C  C201  1  0.58226000  0.41842000  0.29714000  1.0 0.06067515
C  C202  1  0.12128000  0.28512000  0.70286000  1.0 0.06067515
C  C203  1  0.16842000  0.37128000  0.33616000  1.0 0.06067515
C  C204  1  0.03512000  0.83226000  0.66384000  1.0 0.06067515
C  C205  1  0.12872000  0.33158000  0.66384000  1.0 0.06067515
C  C206  1  0.66774000  0.46488000  0.33616000  1.0 0.06067515
C  C207  1  0.21488000  0.37872000  0.29714000  1.0 0.06067515
C  C208  1  0.08158000  0.91774000  0.70286000  1.0 0.06067515
C  C209  1  0.16984000  0.77142000  0.14298000  1.0 -0.2182718114
C  C210  1  0.62844000  0.02686000  0.85702000  1.0 -0.2182718114
C  C211  1  0.52142000  0.87844000  0.10158000  1.0 -0.2182718114
C  C212  1  0.77686000  0.41984000  0.89842000  1.0 -0.2182718114
C  C213  1  0.62156000  0.97858000  0.89842000  1.0 -0.2182718114
C  C214  1  0.08016000  0.72314000  0.10158000  1.0 -0.2182718114
C  C215  1  0.47314000  0.87156000  0.14298000  1.0 -0.2182718114
C  C216  1  0.72858000  0.33016000  0.85702000  1.0 -0.2182718114
C  C217  1  0.58016000  0.47858000  0.35702000  1.0 -0.2182718114
C  C218  1  0.12156000  0.22314000  0.64298000  1.0 -0.2182718114
C  C219  1  0.22858000  0.37156000  0.39842000  1.0 -0.2182718114
C  C220  1  0.97314000  0.83016000  0.60158000  1.0 -0.2182718114
C  C221  1  0.12844000  0.27142000  0.60158000  1.0 -0.2182718114
C  C222  1  0.66984000  0.52686000  0.39842000  1.0 -0.2182718114
C  C223  1  0.27686000  0.37844000  0.35702000  1.0 -0.2182718114
C  C224  1  0.02142000  0.91984000  0.64298000  1.0 -0.2182718114
C  C225  1  0.12500000  0.71562000  0.09062000  1.0 0.0889096321
C  C226  1  0.62500000  0.03438000  0.90938000  1.0 0.0889096321
C  C227  1  0.46562000  0.87500000  0.09062000  1.0 0.0889096321
C  C228  1  0.78438000  0.37500000  0.90938000  1.0 0.0889096321
C  C229  1  0.62500000  0.53438000  0.40938000  1.0 0.0889096321
C  C230  1  0.12500000  0.21562000  0.59062000  1.0 0.0889096321
C  C231  1  0.28438000  0.37500000  0.40938000  1.0 0.0889096321
C  C232  1  0.96562000  0.87500000  0.59062000  1.0 0.0889096321
C  C233  1  0.12500000  0.64995000  0.02495000  1.0 0.0889096321
C  C234  1  0.62500000  0.10005000  0.97505000  1.0 0.0889096321
C  C235  1  0.39995000  0.87500000  0.02495000  1.0 0.0889096321
C  C236  1  0.85005000  0.37500000  0.97505000  1.0 0.0889096321
C  C237  1  0.62500000  0.60005000  0.47505000  1.0 0.0889096321
C  C238  1  0.12500000  0.14995000  0.52495000  1.0 0.0889096321
C  C239  1  0.35005000  0.37500000  0.47505000  1.0 0.0889096321
C  C240  1  0.89995000  0.87500000  0.52495000  1.0 0.0889096321
C  C241  1  0.18305000  0.63195000  0.03826000  1.0 -0.2103967987
C  C242  1  0.59369000  0.14479000  0.96174000  1.0 -0.2103967987
C  C243  1  0.38195000  0.84369000  0.94890000  1.0 -0.2103967987
C  C244  1  0.89479000  0.43305000  0.05110000  1.0 -0.2103967987
C  C245  1  0.65631000  0.11805000  0.05110000  1.0 -0.2103967987
C  C246  1  0.06695000  0.60521000  0.94890000  1.0 -0.2103967987
C  C247  1  0.35521000  0.90631000  0.03826000  1.0 -0.2103967987
C  C248  1  0.86805000  0.31695000  0.96174000  1.0 -0.2103967987
C  C249  1  0.56695000  0.61805000  0.46174000  1.0 -0.2103967987
C  C250  1  0.15631000  0.10521000  0.53826000  1.0 -0.2103967987
C  C251  1  0.36805000  0.40631000  0.55110000  1.0 -0.2103967987
C  C252  1  0.85521000  0.81695000  0.44890000  1.0 -0.2103967987
C  C253  1  0.09369000  0.13195000  0.44890000  1.0 -0.2103967987
C  C254  1  0.68305000  0.64479000  0.55110000  1.0 -0.2103967987
C  C255  1  0.39479000  0.34369000  0.46174000  1.0 -0.2103967987
C  C256  1  0.88195000  0.93305000  0.53826000  1.0 -0.2103967987
C  C257  1  0.18098000  0.57062000  0.97596000  1.0 0.0817176728
C  C258  1  0.59466000  0.20502000  0.02404000  1.0 0.0817176728
C  C259  1  0.32062000  0.84466000  0.88964000  1.0 0.0817176728
C  C260  1  0.95502000  0.43098000  0.11036000  1.0 0.0817176728
C  C261  1  0.65534000  0.17938000  0.11036000  1.0 0.0817176728
C  C262  1  0.06902000  0.54498000  0.88964000  1.0 0.0817176728
C  C263  1  0.29498000  0.90534000  0.97596000  1.0 0.0817176728
C  C264  1  0.92938000  0.31902000  0.02404000  1.0 0.0817176728
C  C265  1  0.56902000  0.67938000  0.52404000  1.0 0.0817176728
C  C266  1  0.15534000  0.04498000  0.47596000  1.0 0.0817176728
C  C267  1  0.42938000  0.40534000  0.61036000  1.0 0.0817176728
C  C268  1  0.79498000  0.81902000  0.38964000  1.0 0.0817176728
C  C269  1  0.09466000  0.07062000  0.38964000  1.0 0.0817176728
C  C270  1  0.68098000  0.70502000  0.61036000  1.0 0.0817176728
C  C271  1  0.45502000  0.34466000  0.52404000  1.0 0.0817176728
C  C272  1  0.82062000  0.93098000  0.47596000  1.0 0.0817176728
C  C273  1  0.80374000  0.11684000  0.64230000  1.0 -0.2259222752
C  C274  1  0.47454000  0.16144000  0.35770000  1.0 -0.2259222752
C  C275  1  0.86684000  0.72454000  0.81310000  1.0 -0.2259222752
C  C276  1  0.91144000  0.05374000  0.18690000  1.0 -0.2259222752
C  C277  1  0.77546000  0.63316000  0.18690000  1.0 -0.2259222752
C  C278  1  0.44626000  0.58856000  0.81310000  1.0 -0.2259222752
C  C279  1  0.33856000  0.02546000  0.64230000  1.0 -0.2259222752
C  C280  1  0.38316000  0.69626000  0.35770000  1.0 -0.2259222752
C  C281  1  0.94626000  0.13316000  0.85770000  1.0 -0.2259222752
C  C282  1  0.27546000  0.08856000  0.14230000  1.0 -0.2259222752
C  C283  1  0.88316000  0.52546000  0.68690000  1.0 -0.2259222752
C  C284  1  0.83856000  0.19626000  0.31310000  1.0 -0.2259222752
C  C285  1  0.97454000  0.61684000  0.31310000  1.0 -0.2259222752
C  C286  1  0.30374000  0.66144000  0.68690000  1.0 -0.2259222752
C  C287  1  0.41144000  0.22454000  0.85770000  1.0 -0.2259222752
C  C288  1  0.36684000  0.55374000  0.14230000  1.0 -0.2259222752
C  C289  1  0.70526000  0.15946000  0.58680000  1.0 -0.2103967987
C  C290  1  0.57266000  0.11846000  0.41320000  1.0 -0.2103967987
C  C291  1  0.90946000  0.82266000  0.95420000  1.0 -0.2103967987
C  C292  1  0.86846000  0.95526000  0.04580000  1.0 -0.2103967987
C  C293  1  0.67734000  0.59054000  0.04580000  1.0 -0.2103967987
C  C294  1  0.54474000  0.63154000  0.95420000  1.0 -0.2103967987
C  C295  1  0.38154000  0.92734000  0.58680000  1.0 -0.2103967987
C  C296  1  0.34054000  0.79474000  0.41320000  1.0 -0.2103967987
C  C297  1  0.04474000  0.09054000  0.91320000  1.0 -0.2103967987
C  C298  1  0.17734000  0.13154000  0.08680000  1.0 -0.2103967987
C  C299  1  0.84054000  0.42734000  0.54580000  1.0 -0.2103967987
C  C300  1  0.88154000  0.29474000  0.45420000  1.0 -0.2103967987
C  C301  1  0.07266000  0.65946000  0.45420000  1.0 -0.2103967987
C  C302  1  0.20526000  0.61846000  0.54580000  1.0 -0.2103967987
C  C303  1  0.36846000  0.32266000  0.91320000  1.0 -0.2103967987
C  C304  1  0.40946000  0.45526000  0.08680000  1.0 -0.2103967987
C  C305  1  0.77462000  0.23102000  0.73040000  1.0 -0.1947660519
C  C306  1  0.50062000  0.04422000  0.26960000  1.0 -0.1947660519
C  C307  1  0.98102000  0.75062000  0.95640000  1.0 -0.1947660519
C  C308  1  0.79422000  0.02462000  0.04360000  1.0 -0.1947660519
C  C309  1  0.74938000  0.51898000  0.04360000  1.0 -0.1947660519
C  C310  1  0.47538000  0.70578000  0.95640000  1.0 -0.1947660519
C  C311  1  0.45578000  0.99938000  0.73040000  1.0 -0.1947660519
C  C312  1  0.26898000  0.72538000  0.26960000  1.0 -0.1947660519
C  C313  1  0.97538000  0.01898000  0.76960000  1.0 -0.1947660519
C  C314  1  0.24938000  0.20578000  0.23040000  1.0 -0.1947660519
C  C315  1  0.76898000  0.49938000  0.54360000  1.0 -0.1947660519
C  C316  1  0.95578000  0.22538000  0.45640000  1.0 -0.1947660519
C  C317  1  0.00062000  0.73102000  0.45640000  1.0 -0.1947660519
C  C318  1  0.27462000  0.54422000  0.54360000  1.0 -0.1947660519
C  C319  1  0.29422000  0.25062000  0.76960000  1.0 -0.1947660519
C  C320  1  0.48102000  0.52462000  0.23040000  1.0 -0.1947660519
S  S1  1  0.84372000  0.39576000  0.73768000  1.0 0.0375538655
S  S2  1  0.65808000  0.10604000  0.26232000  1.0 0.0375538655
S  S3  1  0.14576000  0.90808000  0.05204000  1.0 0.0375538655
S  S4  1  0.85604000  0.09372000  0.94796000  1.0 0.0375538655
S  S5  1  0.59192000  0.35424000  0.94796000  1.0 0.0375538655
S  S6  1  0.40628000  0.64396000  0.05204000  1.0 0.0375538655
S  S7  1  0.39396000  0.84192000  0.73768000  1.0 0.0375538655
S  S8  1  0.10424000  0.65628000  0.26232000  1.0 0.0375538655
S  S9  1  0.90628000  0.85424000  0.76232000  1.0 0.0375538655
S  S10  1  0.09192000  0.14396000  0.23768000  1.0 0.0375538655
S  S11  1  0.60424000  0.34192000  0.44796000  1.0 0.0375538655
S  S12  1  0.89396000  0.15628000  0.55204000  1.0 0.0375538655
S  S13  1  0.15808000  0.89576000  0.55204000  1.0 0.0375538655
S  S14  1  0.34372000  0.60604000  0.44796000  1.0 0.0375538655
S  S15  1  0.35604000  0.40808000  0.76232000  1.0 0.0375538655
S  S16  1  0.64576000  0.59372000  0.23768000  1.0 0.0375538655
N  N1  1  0.12500000  0.83870000  0.21370000  1.0 -0.2538358391
N  N2  1  0.62500000  0.91130000  0.78630000  1.0 -0.2538358391
N  N3  1  0.58870000  0.87500000  0.21370000  1.0 -0.2538358391
N  N4  1  0.66130000  0.37500000  0.78630000  1.0 -0.2538358391
N  N5  1  0.62500000  0.41130000  0.28630000  1.0 -0.2538358391
N  N6  1  0.12500000  0.33870000  0.71370000  1.0 -0.2538358391
N  N7  1  0.16130000  0.37500000  0.28630000  1.0 -0.2538358391
N  N8  1  0.08870000  0.87500000  0.71370000  1.0 -0.2538358391
N  N9  1  0.12500000  0.52695000  0.90195000  1.0 -0.2397145979
N  N10  1  0.62500000  0.22305000  0.09805000  1.0 -0.2397145979
N  N11  1  0.27695000  0.87500000  0.90195000  1.0 -0.2397145979
N  N12  1  0.97305000  0.37500000  0.09805000  1.0 -0.2397145979
N  N13  1  0.62500000  0.72305000  0.59805000  1.0 -0.2397145979
N  N14  1  0.12500000  0.02695000  0.40195000  1.0 -0.2397145979
N  N15  1  0.47305000  0.37500000  0.59805000  1.0 -0.2397145979
N  N16  1  0.77695000  0.87500000  0.40195000  1.0 -0.2397145979
O  O1  1  0.89307000  0.30218000  0.64171000  1.0 -0.2103967987
O  O2  1  0.66047000  0.25136000  0.35829000  1.0 -0.2103967987
O  O3  1  0.05218000  0.91047000  0.90911000  1.0 -0.2103967987
O  O4  1  0.00136000  0.14307000  0.09089000  1.0 -0.2103967987
O  O5  1  0.58953000  0.44782000  0.09089000  1.0 -0.2103967987
O  O6  1  0.35693000  0.49864000  0.90911000  1.0 -0.2103967987
O  O7  1  0.24864000  0.83953000  0.64171000  1.0 -0.2103967987
O  O8  1  0.19782000  0.60693000  0.35829000  1.0 -0.2103967987
O  O9  1  0.85693000  0.94782000  0.85829000  1.0 -0.2103967987
O  O10  1  0.08953000  0.99864000  0.14171000  1.0 -0.2103967987
O  O11  1  0.69782000  0.33953000  0.59089000  1.0 -0.2103967987
O  O12  1  0.74864000  0.10693000  0.40911000  1.0 -0.2103967987
O  O13  1  0.16047000  0.80218000  0.40911000  1.0 -0.2103967987
O  O14  1  0.39307000  0.75136000  0.59089000  1.0 -0.2103967987
O  O15  1  0.50136000  0.41047000  0.85829000  1.0 -0.2103967987
O  O16  1  0.55218000  0.64307000  0.14171000  1.0 -0.2103967987
O  O17  1  0.05551000  0.38918000  0.78141000  1.0 -0.574458775
O  O18  1  0.60777000  0.27410000  0.21859000  1.0 -0.574458775
O  O19  1  0.13918000  0.85777000  0.83367000  1.0 -0.574458775
O  O20  1  0.02410000  0.30551000  0.16633000  1.0 -0.574458775
O  O21  1  0.64223000  0.36082000  0.16633000  1.0 -0.574458775
O  O22  1  0.19449000  0.47590000  0.83367000  1.0 -0.574458775
O  O23  1  0.22590000  0.89223000  0.78141000  1.0 -0.574458775
O  O24  1  0.11082000  0.44449000  0.21859000  1.0 -0.574458775
O  O25  1  0.69449000  0.86082000  0.71859000  1.0 -0.574458775
O  O26  1  0.14223000  0.97590000  0.28141000  1.0 -0.574458775
O  O27  1  0.61082000  0.39223000  0.66633000  1.0 -0.574458775
O  O28  1  0.72590000  0.94449000  0.33367000  1.0 -0.574458775
O  O29  1  0.10777000  0.88918000  0.33367000  1.0 -0.574458775
O  O30  1  0.55551000  0.77410000  0.66633000  1.0 -0.574458775
O  O31  1  0.52410000  0.35777000  0.71859000  1.0 -0.574458775
O  O32  1  0.63918000  0.80551000  0.28141000  1.0 -0.574458775
O  O33  1  0.96165000  0.37708000  0.66871000  1.0 -0.5025417478
O  O34  1  0.70837000  0.29294000  0.33129000  1.0 -0.5025417478
O  O35  1  0.12708000  0.95837000  0.91543000  1.0 -0.5025417478
O  O36  1  0.04294000  0.21165000  0.08457000  1.0 -0.5025417478
O  O37  1  0.54163000  0.37292000  0.08457000  1.0 -0.5025417478
O  O38  1  0.28835000  0.45706000  0.91543000  1.0 -0.5025417478
O  O39  1  0.20706000  0.79163000  0.66871000  1.0 -0.5025417478
O  O40  1  0.12292000  0.53835000  0.33129000  1.0 -0.5025417478
O  O41  1  0.78835000  0.87292000  0.83129000  1.0 -0.5025417478
O  O42  1  0.04163000  0.95706000  0.16871000  1.0 -0.5025417478
O  O43  1  0.62292000  0.29163000  0.58457000  1.0 -0.5025417478
O  O44  1  0.70706000  0.03835000  0.41543000  1.0 -0.5025417478
O  O45  1  0.20837000  0.87708000  0.41543000  1.0 -0.5025417478
O  O46  1  0.46165000  0.79294000  0.58457000  1.0 -0.5025417478
O  O47  1  0.54294000  0.45837000  0.83129000  1.0 -0.5025417478
O  O48  1  0.62708000  0.71165000  0.16871000  1.0 -0.5025417478
