# DDEC6 charges by PACMAN v1.1 (https://github.com/mtap-research/PACMAN-charge/)
data_AXUVAT_ASR_pacman
_symmetry_space_group_name_H-M   'P 1'
_cell_length_a   13.01860000
_cell_length_b   6.85560000
_cell_length_c   19.72440000
_cell_angle_alpha   90.00000000
_cell_angle_beta   116.63200000
_cell_angle_gamma   90.00000000
_symmetry_Int_Tables_number   1
_chemical_formula_structural   SrH4(C2O)4
_chemical_formula_sum   'Sr4 H16 C32 O16'
_cell_volume   1573.63659225
_cell_formula_units_Z   4
loop_
 _symmetry_equiv_pos_site_id
 _symmetry_equiv_pos_as_xyz
  1  'x, y, z'
loop_
 _atom_site_type_symbol
 _atom_site_label
 _atom_site_symmetry_multiplicity
 _atom_site_fract_x
 _atom_site_fract_y
 _atom_site_fract_z
 _atom_site_occupancy
 _atom_site_charge
Sr  Sr1  1  0.94055000  0.47224000  0.27633000  1.0 1.4169435153
Sr  Sr2  1  0.05945000  0.97224000  0.22367000  1.0 1.4149132619
Sr  Sr3  1  0.05945000  0.52776000  0.72367000  1.0 1.4169435153
Sr  Sr4  1  0.94055000  0.02776000  0.77633000  1.0 1.4169435153
H  H1  1  0.92930000  0.72300000  0.42930000  1.0 0.1043826814
H  H2  1  0.60840000  0.77590000  0.05010000  1.0 0.1101194571
H  H3  1  0.06520000  0.25520000  0.45410000  1.0 0.1101194571
H  H4  1  0.56620000  0.20260000  0.05790000  1.0 0.1101194571
H  H5  1  0.07070000  0.22300000  0.07070000  1.0 0.1043826814
H  H6  1  0.39160000  0.27590000  0.44990000  1.0 0.1101194571
H  H7  1  0.93480000  0.75520000  0.04590000  1.0 0.1101194571
H  H8  1  0.43380000  0.70260000  0.44210000  1.0 0.1101194571
H  H9  1  0.07070000  0.27700000  0.57070000  1.0 0.1043826814
H  H10  1  0.39160000  0.22410000  0.94990000  1.0 0.1101194571
H  H11  1  0.93480000  0.74480000  0.54590000  1.0 0.1101194571
H  H12  1  0.43380000  0.79740000  0.94210000  1.0 0.1101194571
H  H13  1  0.92930000  0.77700000  0.92930000  1.0 0.1043826814
H  H14  1  0.60840000  0.72410000  0.55010000  1.0 0.1101194571
H  H15  1  0.06520000  0.24480000  0.95410000  1.0 0.1101194571
H  H16  1  0.56620000  0.29740000  0.55790000  1.0 0.1101194571
C  C1  1  0.98930000  0.97640000  0.35050000  1.0 0.6121278057
C  C2  1  0.99510000  0.98710000  0.42820000  1.0 -0.0258087682
C  C3  1  0.95770000  0.83580000  0.45780000  1.0 -0.1095385735
C  C4  1  0.60280000  0.49010000  0.06610000  1.0 -0.0126517567
C  C5  1  0.56460000  0.66410000  0.03050000  1.0 -0.1095385735
C  C6  1  0.03850000  0.15190000  0.47240000  1.0 -0.1150595595
C  C7  1  0.71320000  0.48300000  0.13780000  1.0 0.5440119455
C  C8  1  0.53950000  0.32310000  0.03510000  1.0 -0.1095385735
C  C9  1  0.01070000  0.47640000  0.14950000  1.0 0.6121278057
C  C10  1  0.00490000  0.48710000  0.07180000  1.0 -0.0258087682
C  C11  1  0.04230000  0.33580000  0.04220000  1.0 -0.1095385735
C  C12  1  0.39720000  0.99010000  0.43390000  1.0 -0.0126517567
C  C13  1  0.43540000  0.16410000  0.46950000  1.0 -0.1095385735
C  C14  1  0.96150000  0.65190000  0.02760000  1.0 -0.1095385735
C  C15  1  0.28680000  0.98300000  0.36220000  1.0 0.5440119455
C  C16  1  0.46050000  0.82310000  0.46490000  1.0 -0.1095385735
C  C17  1  0.01070000  0.02360000  0.64950000  1.0 0.6121278057
C  C18  1  0.00490000  0.01290000  0.57180000  1.0 -0.0258087682
C  C19  1  0.04230000  0.16420000  0.54220000  1.0 -0.1095385735
C  C20  1  0.39720000  0.50990000  0.93390000  1.0 -0.0126517567
C  C21  1  0.43540000  0.33590000  0.96950000  1.0 -0.1095385735
C  C22  1  0.96150000  0.84810000  0.52760000  1.0 -0.1095385735
C  C23  1  0.28680000  0.51700000  0.86220000  1.0 0.5440119455
C  C24  1  0.46050000  0.67690000  0.96490000  1.0 -0.1095385735
C  C25  1  0.98930000  0.52360000  0.85050000  1.0 0.6121278057
C  C26  1  0.99510000  0.51290000  0.92820000  1.0 -0.0258087682
C  C27  1  0.95770000  0.66420000  0.95780000  1.0 -0.1095385735
C  C28  1  0.60280000  0.00990000  0.56610000  1.0 -0.0126517567
C  C29  1  0.56460000  0.83590000  0.53050000  1.0 -0.1095385735
C  C30  1  0.03850000  0.34810000  0.97240000  1.0 -0.1095385735
C  C31  1  0.71320000  0.01700000  0.63780000  1.0 0.5440119455
C  C32  1  0.53950000  0.17690000  0.53510000  1.0 -0.1095385735
O  O1  1  0.99270000  0.13160000  0.31870000  1.0 -0.6728926649
O  O2  1  0.98300000  0.81280000  0.32140000  1.0 -0.6575725426
O  O3  1  0.75510000  0.31960000  0.16440000  1.0 -0.6064962496
O  O4  1  0.75820000  0.63670000  0.16990000  1.0 -0.5923602333
O  O5  1  0.00730000  0.63160000  0.18130000  1.0 -0.6728926649
O  O6  1  0.01700000  0.31280000  0.17860000  1.0 -0.6575725426
O  O7  1  0.24490000  0.81960000  0.33560000  1.0 -0.6064962496
O  O8  1  0.24180000  0.13670000  0.33010000  1.0 -0.5923602333
O  O9  1  0.00730000  0.86840000  0.68130000  1.0 -0.6728926649
O  O10  1  0.01700000  0.18720000  0.67860000  1.0 -0.6575725426
O  O11  1  0.24490000  0.68040000  0.83560000  1.0 -0.6064962496
O  O12  1  0.24180000  0.36330000  0.83010000  1.0 -0.5923602333
O  O13  1  0.99270000  0.36840000  0.81870000  1.0 -0.6728926649
O  O14  1  0.98300000  0.68720000  0.82140000  1.0 -0.6575725426
O  O15  1  0.75510000  0.18040000  0.66440000  1.0 -0.6064962496
O  O16  1  0.75820000  0.86330000  0.66990000  1.0 -0.5923602333
