# DDEC6 charges by PACMAN v1.1 (https://github.com/mtap-research/PACMAN-charge/)
data_AYOVAO_ASR_pacman
_symmetry_space_group_name_H-M   'P 1'
_cell_length_a   35.75100000
_cell_length_b   35.75100000
_cell_length_c   35.75100000
_cell_angle_alpha   90.00000000
_cell_angle_beta   90.00000000
_cell_angle_gamma   90.00000000
_symmetry_Int_Tables_number   1
_chemical_formula_structural   Fe3H84C138N6O25
_chemical_formula_sum   'Fe24 H672 C1104 N48 O200'
_cell_volume   45694.56866975
_cell_formula_units_Z   8
loop_
 _symmetry_equiv_pos_site_id
 _symmetry_equiv_pos_as_xyz
  1  'x, y, z'
loop_
 _atom_site_type_symbol
 _atom_site_label
 _atom_site_symmetry_multiplicity
 _atom_site_fract_x
 _atom_site_fract_y
 _atom_site_fract_z
 _atom_site_occupancy
 _atom_site_charge
Fe  Fe1  1  0.21232000  0.25000000  0.28768000  1.0 0.7802481084
Fe  Fe2  1  0.78768000  0.75000000  0.28768000  1.0 0.7802481084
Fe  Fe3  1  0.78768000  0.25000000  0.71232000  1.0 0.7802481084
Fe  Fe4  1  0.21232000  0.75000000  0.71232000  1.0 0.7802481084
Fe  Fe5  1  0.28768000  0.21232000  0.25000000  1.0 0.7802481084
Fe  Fe6  1  0.28768000  0.78768000  0.75000000  1.0 0.7802481084
Fe  Fe7  1  0.71232000  0.78768000  0.25000000  1.0 0.7802481084
Fe  Fe8  1  0.71232000  0.21232000  0.75000000  1.0 0.7802481084
Fe  Fe9  1  0.25000000  0.28768000  0.21232000  1.0 0.7802481084
Fe  Fe10  1  0.75000000  0.28768000  0.78768000  1.0 0.7802481084
Fe  Fe11  1  0.25000000  0.71232000  0.78768000  1.0 0.7802481084
Fe  Fe12  1  0.75000000  0.71232000  0.21232000  1.0 0.7802481084
Fe  Fe13  1  0.78768000  0.75000000  0.71232000  1.0 0.7802481084
Fe  Fe14  1  0.21232000  0.25000000  0.71232000  1.0 0.7802481084
Fe  Fe15  1  0.21232000  0.75000000  0.28768000  1.0 0.7802481084
Fe  Fe16  1  0.78768000  0.25000000  0.28768000  1.0 0.7802481084
Fe  Fe17  1  0.71232000  0.78768000  0.75000000  1.0 0.7802481084
Fe  Fe18  1  0.71232000  0.21232000  0.25000000  1.0 0.7802481084
Fe  Fe19  1  0.28768000  0.21232000  0.75000000  1.0 0.7802481084
Fe  Fe20  1  0.28768000  0.78768000  0.25000000  1.0 0.7802481084
Fe  Fe21  1  0.75000000  0.71232000  0.78768000  1.0 0.7802481084
Fe  Fe22  1  0.25000000  0.71232000  0.21232000  1.0 0.7802481084
Fe  Fe23  1  0.75000000  0.28768000  0.21232000  1.0 0.7802481084
Fe  Fe24  1  0.25000000  0.28768000  0.78768000  1.0 0.7802481084
H  H1  1  0.25371000  0.45427000  0.46702000  1.0 0.0635202503
H  H2  1  0.22129000  0.44388000  0.41390000  1.0 0.0895154557
H  H3  1  0.25127000  0.39880000  0.26225000  1.0 0.0895154557
H  H4  1  0.24573000  0.45442000  0.29630000  1.0 0.0895154557
H  H5  1  0.18631000  0.39979000  0.37590000  1.0 0.0895154557
H  H6  1  0.19185000  0.34416000  0.34186000  1.0 0.0727617963
H  H7  1  0.18539000  0.45522000  0.46750000  1.0 0.0727617963
H  H8  1  0.26614000  0.39557000  0.25967000  1.0 0.0727617963
H  H9  1  0.27525000  0.45019000  0.29456000  1.0 0.0812456411
H  H10  1  0.22044000  0.40343000  0.38208000  1.0 0.0812456411
H  H11  1  0.21133000  0.34881000  0.34719000  1.0 0.0895154557
H  H12  1  0.22653000  0.45412000  0.46706000  1.0 0.0727617963
H  H13  1  0.26526000  0.44404000  0.41499000  1.0 0.0995543321
H  H14  1  0.29018000  0.45232000  0.46741000  1.0 0.0727617963
H  H15  1  0.74629000  0.54573000  0.46702000  1.0 0.0635202503
H  H16  1  0.77871000  0.55612000  0.41390000  1.0 0.0895154557
H  H17  1  0.74873000  0.60120000  0.26225000  1.0 0.0895154557
H  H18  1  0.75427000  0.54558000  0.29630000  1.0 0.0895154557
H  H19  1  0.81369000  0.60021000  0.37590000  1.0 0.0895154557
H  H20  1  0.80815000  0.65584000  0.34186000  1.0 0.0727617963
H  H21  1  0.81461000  0.54478000  0.46750000  1.0 0.0727617963
H  H22  1  0.73386000  0.60443000  0.25967000  1.0 0.0727617963
H  H23  1  0.72475000  0.54981000  0.29456000  1.0 0.0812456411
H  H24  1  0.77956000  0.59657000  0.38208000  1.0 0.0812456411
H  H25  1  0.78867000  0.65119000  0.34719000  1.0 0.0895154557
H  H26  1  0.77347000  0.54588000  0.46706000  1.0 0.0727617963
H  H27  1  0.73474000  0.55596000  0.41499000  1.0 0.0995543321
H  H28  1  0.70982000  0.54768000  0.46741000  1.0 0.0727617963
H  H29  1  0.74629000  0.45427000  0.53298000  1.0 0.0635202503
H  H30  1  0.77871000  0.44388000  0.58610000  1.0 0.0895154557
H  H31  1  0.74873000  0.39880000  0.73775000  1.0 0.0895154557
H  H32  1  0.75427000  0.45442000  0.70370000  1.0 0.0895154557
H  H33  1  0.81369000  0.39979000  0.62410000  1.0 0.0895154557
H  H34  1  0.80815000  0.34416000  0.65814000  1.0 0.0727617963
H  H35  1  0.81461000  0.45522000  0.53250000  1.0 0.0727617963
H  H36  1  0.73386000  0.39557000  0.74033000  1.0 0.0727617963
H  H37  1  0.72475000  0.45019000  0.70544000  1.0 0.0812456411
H  H38  1  0.77956000  0.40343000  0.61792000  1.0 0.0812456411
H  H39  1  0.78867000  0.34881000  0.65281000  1.0 0.0895154557
H  H40  1  0.77347000  0.45412000  0.53294000  1.0 0.0727617963
H  H41  1  0.73474000  0.44404000  0.58501000  1.0 0.0995543321
H  H42  1  0.70982000  0.45232000  0.53259000  1.0 0.0727617963
H  H43  1  0.25371000  0.54573000  0.53298000  1.0 0.0635202503
H  H44  1  0.22129000  0.55612000  0.58610000  1.0 0.0895154557
H  H45  1  0.25127000  0.60120000  0.73775000  1.0 0.0895154557
H  H46  1  0.24573000  0.54558000  0.70370000  1.0 0.0895154557
H  H47  1  0.18631000  0.60021000  0.62410000  1.0 0.0895154557
H  H48  1  0.19185000  0.65584000  0.65814000  1.0 0.0727617963
H  H49  1  0.18539000  0.54478000  0.53250000  1.0 0.0727617963
H  H50  1  0.26614000  0.60443000  0.74033000  1.0 0.0727617963
H  H51  1  0.27525000  0.54981000  0.70544000  1.0 0.0812456411
H  H52  1  0.22044000  0.59657000  0.61792000  1.0 0.0812456411
H  H53  1  0.21133000  0.65119000  0.65281000  1.0 0.0895154557
H  H54  1  0.22653000  0.54588000  0.53294000  1.0 0.0727617963
H  H55  1  0.26526000  0.55596000  0.58501000  1.0 0.0995543321
H  H56  1  0.29018000  0.54768000  0.53259000  1.0 0.0727617963
H  H57  1  0.46702000  0.25371000  0.45427000  1.0 0.0635202503
H  H58  1  0.41390000  0.22129000  0.44388000  1.0 0.0895154557
H  H59  1  0.26225000  0.25127000  0.39880000  1.0 0.0895154557
H  H60  1  0.29630000  0.24573000  0.45442000  1.0 0.0895154557
H  H61  1  0.37590000  0.18631000  0.39979000  1.0 0.0895154557
H  H62  1  0.34186000  0.19185000  0.34416000  1.0 0.0727617963
H  H63  1  0.46750000  0.18539000  0.45522000  1.0 0.0727617963
H  H64  1  0.25967000  0.26614000  0.39557000  1.0 0.0727617963
H  H65  1  0.29456000  0.27525000  0.45019000  1.0 0.0812456411
H  H66  1  0.38208000  0.22044000  0.40343000  1.0 0.0812456411
H  H67  1  0.34719000  0.21133000  0.34881000  1.0 0.0895154557
H  H68  1  0.46706000  0.22653000  0.45412000  1.0 0.0727617963
H  H69  1  0.41499000  0.26526000  0.44404000  1.0 0.0995543321
H  H70  1  0.46741000  0.29018000  0.45232000  1.0 0.0727617963
H  H71  1  0.46702000  0.74629000  0.54573000  1.0 0.0635202503
H  H72  1  0.41390000  0.77871000  0.55612000  1.0 0.0895154557
H  H73  1  0.26225000  0.74873000  0.60120000  1.0 0.0895154557
H  H74  1  0.29630000  0.75427000  0.54558000  1.0 0.0895154557
H  H75  1  0.37590000  0.81369000  0.60021000  1.0 0.0895154557
H  H76  1  0.34186000  0.80815000  0.65584000  1.0 0.0727617963
H  H77  1  0.46750000  0.81461000  0.54478000  1.0 0.0727617963
H  H78  1  0.25967000  0.73386000  0.60443000  1.0 0.0727617963
H  H79  1  0.29456000  0.72475000  0.54981000  1.0 0.0812456411
H  H80  1  0.38208000  0.77956000  0.59657000  1.0 0.0812456411
H  H81  1  0.34719000  0.78867000  0.65119000  1.0 0.0895154557
H  H82  1  0.46706000  0.77347000  0.54588000  1.0 0.0727617963
H  H83  1  0.41499000  0.73474000  0.55596000  1.0 0.0995543321
H  H84  1  0.46741000  0.70982000  0.54768000  1.0 0.0727617963
H  H85  1  0.53298000  0.74629000  0.45427000  1.0 0.0635202503
H  H86  1  0.58610000  0.77871000  0.44388000  1.0 0.0895154557
H  H87  1  0.73775000  0.74873000  0.39880000  1.0 0.0895154557
H  H88  1  0.70370000  0.75427000  0.45442000  1.0 0.0895154557
H  H89  1  0.62410000  0.81369000  0.39979000  1.0 0.0895154557
H  H90  1  0.65814000  0.80815000  0.34416000  1.0 0.0727617963
H  H91  1  0.53250000  0.81461000  0.45522000  1.0 0.0727617963
H  H92  1  0.74033000  0.73386000  0.39557000  1.0 0.0727617963
H  H93  1  0.70544000  0.72475000  0.45019000  1.0 0.0812456411
H  H94  1  0.61792000  0.77956000  0.40343000  1.0 0.0812456411
H  H95  1  0.65281000  0.78867000  0.34881000  1.0 0.0895154557
H  H96  1  0.53294000  0.77347000  0.45412000  1.0 0.0727617963
H  H97  1  0.58501000  0.73474000  0.44404000  1.0 0.0995543321
H  H98  1  0.53259000  0.70982000  0.45232000  1.0 0.0727617963
H  H99  1  0.53298000  0.25371000  0.54573000  1.0 0.0635202503
H  H100  1  0.58610000  0.22129000  0.55612000  1.0 0.0895154557
H  H101  1  0.73775000  0.25127000  0.60120000  1.0 0.0895154557
H  H102  1  0.70370000  0.24573000  0.54558000  1.0 0.0895154557
H  H103  1  0.62410000  0.18631000  0.60021000  1.0 0.0895154557
H  H104  1  0.65814000  0.19185000  0.65584000  1.0 0.0727617963
H  H105  1  0.53250000  0.18539000  0.54478000  1.0 0.0727617963
H  H106  1  0.74033000  0.26614000  0.60443000  1.0 0.0727617963
H  H107  1  0.70544000  0.27525000  0.54981000  1.0 0.0812456411
H  H108  1  0.61792000  0.22044000  0.59657000  1.0 0.0812456411
H  H109  1  0.65281000  0.21133000  0.65119000  1.0 0.0895154557
H  H110  1  0.53294000  0.22653000  0.54588000  1.0 0.0727617963
H  H111  1  0.58501000  0.26526000  0.55596000  1.0 0.0995543321
H  H112  1  0.53259000  0.29018000  0.54768000  1.0 0.0727617963
H  H113  1  0.45427000  0.46702000  0.25371000  1.0 0.0635202503
H  H114  1  0.44388000  0.41390000  0.22129000  1.0 0.0895154557
H  H115  1  0.39880000  0.26225000  0.25127000  1.0 0.0895154557
H  H116  1  0.45442000  0.29630000  0.24573000  1.0 0.0895154557
H  H117  1  0.39979000  0.37590000  0.18631000  1.0 0.0895154557
H  H118  1  0.34416000  0.34186000  0.19185000  1.0 0.0727617963
H  H119  1  0.45522000  0.46750000  0.18539000  1.0 0.0727617963
H  H120  1  0.39557000  0.25967000  0.26614000  1.0 0.0727617963
H  H121  1  0.45019000  0.29456000  0.27525000  1.0 0.0812456411
H  H122  1  0.40343000  0.38208000  0.22044000  1.0 0.0812456411
H  H123  1  0.34881000  0.34719000  0.21133000  1.0 0.0895154557
H  H124  1  0.45412000  0.46706000  0.22653000  1.0 0.0727617963
H  H125  1  0.44404000  0.41499000  0.26526000  1.0 0.0995543321
H  H126  1  0.45232000  0.46741000  0.29018000  1.0 0.0727617963
H  H127  1  0.54573000  0.46702000  0.74629000  1.0 0.0635202503
H  H128  1  0.55612000  0.41390000  0.77871000  1.0 0.0895154557
H  H129  1  0.60120000  0.26225000  0.74873000  1.0 0.0895154557
H  H130  1  0.54558000  0.29630000  0.75427000  1.0 0.0895154557
H  H131  1  0.60021000  0.37590000  0.81369000  1.0 0.0895154557
H  H132  1  0.65584000  0.34186000  0.80815000  1.0 0.0727617963
H  H133  1  0.54478000  0.46750000  0.81461000  1.0 0.0727617963
H  H134  1  0.60443000  0.25967000  0.73386000  1.0 0.0727617963
H  H135  1  0.54981000  0.29456000  0.72475000  1.0 0.0812456411
H  H136  1  0.59657000  0.38208000  0.77956000  1.0 0.0812456411
H  H137  1  0.65119000  0.34719000  0.78867000  1.0 0.0895154557
H  H138  1  0.54588000  0.46706000  0.77347000  1.0 0.0727617963
H  H139  1  0.55596000  0.41499000  0.73474000  1.0 0.0995543321
H  H140  1  0.54768000  0.46741000  0.70982000  1.0 0.0727617963
H  H141  1  0.45427000  0.53298000  0.74629000  1.0 0.0635202503
H  H142  1  0.44388000  0.58610000  0.77871000  1.0 0.0895154557
H  H143  1  0.39880000  0.73775000  0.74873000  1.0 0.0895154557
H  H144  1  0.45442000  0.70370000  0.75427000  1.0 0.0895154557
H  H145  1  0.39979000  0.62410000  0.81369000  1.0 0.0895154557
H  H146  1  0.34416000  0.65814000  0.80815000  1.0 0.0727617963
H  H147  1  0.45522000  0.53250000  0.81461000  1.0 0.0727617963
H  H148  1  0.39557000  0.74033000  0.73386000  1.0 0.0727617963
H  H149  1  0.45019000  0.70544000  0.72475000  1.0 0.0812456411
H  H150  1  0.40343000  0.61792000  0.77956000  1.0 0.0812456411
H  H151  1  0.34881000  0.65281000  0.78867000  1.0 0.0895154557
H  H152  1  0.45412000  0.53294000  0.77347000  1.0 0.0727617963
H  H153  1  0.44404000  0.58501000  0.73474000  1.0 0.0995543321
H  H154  1  0.45232000  0.53259000  0.70982000  1.0 0.0727617963
H  H155  1  0.54573000  0.53298000  0.25371000  1.0 0.0635202503
H  H156  1  0.55612000  0.58610000  0.22129000  1.0 0.0895154557
H  H157  1  0.60120000  0.73775000  0.25127000  1.0 0.0895154557
H  H158  1  0.54558000  0.70370000  0.24573000  1.0 0.0895154557
H  H159  1  0.60021000  0.62410000  0.18631000  1.0 0.0895154557
H  H160  1  0.65584000  0.65814000  0.19185000  1.0 0.0727617963
H  H161  1  0.54478000  0.53250000  0.18539000  1.0 0.0727617963
H  H162  1  0.60443000  0.74033000  0.26614000  1.0 0.0727617963
H  H163  1  0.54981000  0.70544000  0.27525000  1.0 0.0812456411
H  H164  1  0.59657000  0.61792000  0.22044000  1.0 0.0812456411
H  H165  1  0.65119000  0.65281000  0.21133000  1.0 0.0895154557
H  H166  1  0.54588000  0.53294000  0.22653000  1.0 0.0727617963
H  H167  1  0.55596000  0.58501000  0.26526000  1.0 0.0995543321
H  H168  1  0.54768000  0.53259000  0.29018000  1.0 0.0727617963
H  H169  1  0.95427000  0.75371000  0.03298000  1.0 0.0635202503
H  H170  1  0.94388000  0.72129000  0.08610000  1.0 0.0895154557
H  H171  1  0.89880000  0.75127000  0.23775000  1.0 0.0895154557
H  H172  1  0.95442000  0.74573000  0.20370000  1.0 0.0895154557
H  H173  1  0.89979000  0.68631000  0.12410000  1.0 0.0895154557
H  H174  1  0.84416000  0.69185000  0.15814000  1.0 0.0727617963
H  H175  1  0.95522000  0.68539000  0.03250000  1.0 0.0727617963
H  H176  1  0.89557000  0.76614000  0.24033000  1.0 0.0727617963
H  H177  1  0.95019000  0.77525000  0.20544000  1.0 0.0812456411
H  H178  1  0.90343000  0.72044000  0.11792000  1.0 0.0812456411
H  H179  1  0.84881000  0.71133000  0.15281000  1.0 0.0895154557
H  H180  1  0.95412000  0.72653000  0.03294000  1.0 0.0727617963
H  H181  1  0.94404000  0.76526000  0.08501000  1.0 0.0995543321
H  H182  1  0.95232000  0.79018000  0.03259000  1.0 0.0727617963
H  H183  1  0.04573000  0.24629000  0.03298000  1.0 0.0635202503
H  H184  1  0.05612000  0.27871000  0.08610000  1.0 0.0895154557
H  H185  1  0.10120000  0.24873000  0.23775000  1.0 0.0895154557
H  H186  1  0.04558000  0.25427000  0.20370000  1.0 0.0895154557
H  H187  1  0.10021000  0.31369000  0.12410000  1.0 0.0895154557
H  H188  1  0.15584000  0.30815000  0.15814000  1.0 0.0727617963
H  H189  1  0.04478000  0.31461000  0.03250000  1.0 0.0727617963
H  H190  1  0.10443000  0.23386000  0.24033000  1.0 0.0727617963
H  H191  1  0.04981000  0.22475000  0.20544000  1.0 0.0812456411
H  H192  1  0.09657000  0.27956000  0.11792000  1.0 0.0812456411
H  H193  1  0.15119000  0.28867000  0.15281000  1.0 0.0895154557
H  H194  1  0.04588000  0.27347000  0.03294000  1.0 0.0727617963
H  H195  1  0.05596000  0.23474000  0.08501000  1.0 0.0995543321
H  H196  1  0.04768000  0.20982000  0.03259000  1.0 0.0727617963
H  H197  1  0.95427000  0.24629000  0.96702000  1.0 0.0635202503
H  H198  1  0.94388000  0.27871000  0.91390000  1.0 0.0895154557
H  H199  1  0.89880000  0.24873000  0.76225000  1.0 0.0895154557
H  H200  1  0.95442000  0.25427000  0.79630000  1.0 0.0895154557
H  H201  1  0.89979000  0.31369000  0.87590000  1.0 0.0895154557
H  H202  1  0.84416000  0.30815000  0.84186000  1.0 0.0727617963
H  H203  1  0.95522000  0.31461000  0.96750000  1.0 0.0727617963
H  H204  1  0.89557000  0.23386000  0.75967000  1.0 0.0727617963
H  H205  1  0.95019000  0.22475000  0.79456000  1.0 0.0812456411
H  H206  1  0.90343000  0.27956000  0.88208000  1.0 0.0812456411
H  H207  1  0.84881000  0.28867000  0.84719000  1.0 0.0895154557
H  H208  1  0.95412000  0.27347000  0.96706000  1.0 0.0727617963
H  H209  1  0.94404000  0.23474000  0.91499000  1.0 0.0995543321
H  H210  1  0.95232000  0.20982000  0.96741000  1.0 0.0727617963
H  H211  1  0.04573000  0.75371000  0.96702000  1.0 0.0635202503
H  H212  1  0.05612000  0.72129000  0.91390000  1.0 0.0895154557
H  H213  1  0.10120000  0.75127000  0.76225000  1.0 0.0895154557
H  H214  1  0.04558000  0.74573000  0.79630000  1.0 0.0895154557
H  H215  1  0.10021000  0.68631000  0.87590000  1.0 0.0895154557
H  H216  1  0.15584000  0.69185000  0.84186000  1.0 0.0727617963
H  H217  1  0.04478000  0.68539000  0.96750000  1.0 0.0727617963
H  H218  1  0.10443000  0.76614000  0.75967000  1.0 0.0727617963
H  H219  1  0.04981000  0.77525000  0.79456000  1.0 0.0812456411
H  H220  1  0.09657000  0.72044000  0.88208000  1.0 0.0812456411
H  H221  1  0.15119000  0.71133000  0.84719000  1.0 0.0895154557
H  H222  1  0.04588000  0.72653000  0.96706000  1.0 0.0727617963
H  H223  1  0.05596000  0.76526000  0.91499000  1.0 0.0995543321
H  H224  1  0.04768000  0.79018000  0.96741000  1.0 0.0727617963
H  H225  1  0.75371000  0.96702000  0.04573000  1.0 0.0635202503
H  H226  1  0.72129000  0.91390000  0.05612000  1.0 0.0895154557
H  H227  1  0.75127000  0.76225000  0.10120000  1.0 0.0895154557
H  H228  1  0.74573000  0.79630000  0.04558000  1.0 0.0895154557
H  H229  1  0.68631000  0.87590000  0.10021000  1.0 0.0895154557
H  H230  1  0.69185000  0.84186000  0.15584000  1.0 0.0727617963
H  H231  1  0.68539000  0.96750000  0.04478000  1.0 0.0812456411
H  H232  1  0.76614000  0.75967000  0.10443000  1.0 0.0727617963
H  H233  1  0.77525000  0.79456000  0.04981000  1.0 0.0812456411
H  H234  1  0.72044000  0.88208000  0.09657000  1.0 0.0812456411
H  H235  1  0.71133000  0.84719000  0.15119000  1.0 0.0895154557
H  H236  1  0.72653000  0.96706000  0.04588000  1.0 0.0727617963
H  H237  1  0.76526000  0.91499000  0.05596000  1.0 0.0995543321
H  H238  1  0.79018000  0.96741000  0.04768000  1.0 0.0727617963
H  H239  1  0.24629000  0.96702000  0.95427000  1.0 0.0635202503
H  H240  1  0.27871000  0.91390000  0.94388000  1.0 0.0895154557
H  H241  1  0.24873000  0.76225000  0.89880000  1.0 0.0895154557
H  H242  1  0.25427000  0.79630000  0.95442000  1.0 0.0895154557
H  H243  1  0.31369000  0.87590000  0.89979000  1.0 0.0895154557
H  H244  1  0.30815000  0.84186000  0.84416000  1.0 0.0812456411
H  H245  1  0.31461000  0.96750000  0.95522000  1.0 0.0727617963
H  H246  1  0.23386000  0.75967000  0.89557000  1.0 0.0727617963
H  H247  1  0.22475000  0.79456000  0.95019000  1.0 0.0812456411
H  H248  1  0.27956000  0.88208000  0.90343000  1.0 0.0812456411
H  H249  1  0.28867000  0.84719000  0.84881000  1.0 0.0895154557
H  H250  1  0.27347000  0.96706000  0.95412000  1.0 0.0727617963
H  H251  1  0.23474000  0.91499000  0.94404000  1.0 0.0995543321
H  H252  1  0.20982000  0.96741000  0.95232000  1.0 0.0727617963
H  H253  1  0.24629000  0.03298000  0.04573000  1.0 0.0635202503
H  H254  1  0.27871000  0.08610000  0.05612000  1.0 0.0895154557
H  H255  1  0.24873000  0.23775000  0.10120000  1.0 0.0895154557
H  H256  1  0.25427000  0.20370000  0.04558000  1.0 0.0895154557
H  H257  1  0.31369000  0.12410000  0.10021000  1.0 0.0895154557
H  H258  1  0.30815000  0.15814000  0.15584000  1.0 0.0727617963
H  H259  1  0.31461000  0.03250000  0.04478000  1.0 0.0727617963
H  H260  1  0.23386000  0.24033000  0.10443000  1.0 0.0727617963
H  H261  1  0.22475000  0.20544000  0.04981000  1.0 0.0812456411
H  H262  1  0.27956000  0.11792000  0.09657000  1.0 0.0812456411
H  H263  1  0.28867000  0.15281000  0.15119000  1.0 0.0895154557
H  H264  1  0.27347000  0.03294000  0.04588000  1.0 0.0727617963
H  H265  1  0.23474000  0.08501000  0.05596000  1.0 0.0995543321
H  H266  1  0.20982000  0.03259000  0.04768000  1.0 0.0727617963
H  H267  1  0.75371000  0.03298000  0.95427000  1.0 0.0635202503
H  H268  1  0.72129000  0.08610000  0.94388000  1.0 0.0895154557
H  H269  1  0.75127000  0.23775000  0.89880000  1.0 0.0895154557
H  H270  1  0.74573000  0.20370000  0.95442000  1.0 0.0895154557
H  H271  1  0.68631000  0.12410000  0.89979000  1.0 0.0895154557
H  H272  1  0.69185000  0.15814000  0.84416000  1.0 0.0727617963
H  H273  1  0.68539000  0.03250000  0.95522000  1.0 0.0727617963
H  H274  1  0.76614000  0.24033000  0.89557000  1.0 0.0727617963
H  H275  1  0.77525000  0.20544000  0.95019000  1.0 0.0812456411
H  H276  1  0.72044000  0.11792000  0.90343000  1.0 0.0812456411
H  H277  1  0.71133000  0.15281000  0.84881000  1.0 0.0895154557
H  H278  1  0.72653000  0.03294000  0.95412000  1.0 0.0727617963
H  H279  1  0.76526000  0.08501000  0.94404000  1.0 0.0995543321
H  H280  1  0.79018000  0.03259000  0.95232000  1.0 0.0727617963
H  H281  1  0.96702000  0.95427000  0.24629000  1.0 0.0635202503
H  H282  1  0.91390000  0.94388000  0.27871000  1.0 0.0895154557
H  H283  1  0.76225000  0.89880000  0.24873000  1.0 0.0895154557
H  H284  1  0.79630000  0.95442000  0.25427000  1.0 0.0895154557
H  H285  1  0.87590000  0.89979000  0.31369000  1.0 0.0895154557
H  H286  1  0.84186000  0.84416000  0.30815000  1.0 0.0727617963
H  H287  1  0.96750000  0.95522000  0.31461000  1.0 0.0727617963
H  H288  1  0.75967000  0.89557000  0.23386000  1.0 0.0727617963
H  H289  1  0.79456000  0.95019000  0.22475000  1.0 0.0812456411
H  H290  1  0.88208000  0.90343000  0.27956000  1.0 0.0812456411
H  H291  1  0.84719000  0.84881000  0.28867000  1.0 0.0895154557
H  H292  1  0.96706000  0.95412000  0.27347000  1.0 0.0727617963
H  H293  1  0.91499000  0.94404000  0.23474000  1.0 0.0995543321
H  H294  1  0.96741000  0.95232000  0.20982000  1.0 0.0727617963
H  H295  1  0.96702000  0.04573000  0.75371000  1.0 0.0635202503
H  H296  1  0.91390000  0.05612000  0.72129000  1.0 0.0895154557
H  H297  1  0.76225000  0.10120000  0.75127000  1.0 0.0895154557
H  H298  1  0.79630000  0.04558000  0.74573000  1.0 0.0895154557
H  H299  1  0.87590000  0.10021000  0.68631000  1.0 0.0895154557
H  H300  1  0.84186000  0.15584000  0.69185000  1.0 0.0727617963
H  H301  1  0.96750000  0.04478000  0.68539000  1.0 0.0727617963
H  H302  1  0.75967000  0.10443000  0.76614000  1.0 0.0727617963
H  H303  1  0.79456000  0.04981000  0.77525000  1.0 0.0812456411
H  H304  1  0.88208000  0.09657000  0.72044000  1.0 0.0812456411
H  H305  1  0.84719000  0.15119000  0.71133000  1.0 0.0895154557
H  H306  1  0.96706000  0.04588000  0.72653000  1.0 0.0727617963
H  H307  1  0.91499000  0.05596000  0.76526000  1.0 0.0995543321
H  H308  1  0.96741000  0.04768000  0.79018000  1.0 0.0727617963
H  H309  1  0.03298000  0.95427000  0.75371000  1.0 0.0635202503
H  H310  1  0.08610000  0.94388000  0.72129000  1.0 0.0895154557
H  H311  1  0.23775000  0.89880000  0.75127000  1.0 0.0895154557
H  H312  1  0.20370000  0.95442000  0.74573000  1.0 0.0895154557
H  H313  1  0.12410000  0.89979000  0.68631000  1.0 0.0895154557
H  H314  1  0.15814000  0.84416000  0.69185000  1.0 0.0727617963
H  H315  1  0.03250000  0.95522000  0.68539000  1.0 0.0727617963
H  H316  1  0.24033000  0.89557000  0.76614000  1.0 0.0727617963
H  H317  1  0.20544000  0.95019000  0.77525000  1.0 0.0812456411
H  H318  1  0.11792000  0.90343000  0.72044000  1.0 0.0812456411
H  H319  1  0.15281000  0.84881000  0.71133000  1.0 0.0895154557
H  H320  1  0.03294000  0.95412000  0.72653000  1.0 0.0727617963
H  H321  1  0.08501000  0.94404000  0.76526000  1.0 0.0995543321
H  H322  1  0.03259000  0.95232000  0.79018000  1.0 0.0727617963
H  H323  1  0.03298000  0.04573000  0.24629000  1.0 0.0635202503
H  H324  1  0.08610000  0.05612000  0.27871000  1.0 0.0895154557
H  H325  1  0.23775000  0.10120000  0.24873000  1.0 0.0895154557
H  H326  1  0.20370000  0.04558000  0.25427000  1.0 0.0895154557
H  H327  1  0.12410000  0.10021000  0.31369000  1.0 0.0895154557
H  H328  1  0.15814000  0.15584000  0.30815000  1.0 0.0727617963
H  H329  1  0.03250000  0.04478000  0.31461000  1.0 0.0727617963
H  H330  1  0.24033000  0.10443000  0.23386000  1.0 0.0727617963
H  H331  1  0.20544000  0.04981000  0.22475000  1.0 0.0812456411
H  H332  1  0.11792000  0.09657000  0.27956000  1.0 0.0812456411
H  H333  1  0.15281000  0.15119000  0.28867000  1.0 0.0895154557
H  H334  1  0.03294000  0.04588000  0.27347000  1.0 0.0727617963
H  H335  1  0.08501000  0.05596000  0.23474000  1.0 0.0995543321
H  H336  1  0.03259000  0.04768000  0.20982000  1.0 0.0727617963
H  H337  1  0.74629000  0.54573000  0.53298000  1.0 0.0635202503
H  H338  1  0.77871000  0.55612000  0.58610000  1.0 0.0895154557
H  H339  1  0.74873000  0.60120000  0.73775000  1.0 0.0895154557
H  H340  1  0.75427000  0.54558000  0.70370000  1.0 0.0895154557
H  H341  1  0.81369000  0.60021000  0.62410000  1.0 0.0895154557
H  H342  1  0.80815000  0.65584000  0.65814000  1.0 0.0727617963
H  H343  1  0.81461000  0.54478000  0.53250000  1.0 0.0727617963
H  H344  1  0.73386000  0.60443000  0.74033000  1.0 0.0727617963
H  H345  1  0.72475000  0.54981000  0.70544000  1.0 0.0812456411
H  H346  1  0.77956000  0.59657000  0.61792000  1.0 0.0812456411
H  H347  1  0.78867000  0.65119000  0.65281000  1.0 0.0895154557
H  H348  1  0.77347000  0.54588000  0.53294000  1.0 0.0727617963
H  H349  1  0.73474000  0.55596000  0.58501000  1.0 0.0995543321
H  H350  1  0.70982000  0.54768000  0.53259000  1.0 0.0727617963
H  H351  1  0.25371000  0.45427000  0.53298000  1.0 0.0635202503
H  H352  1  0.22129000  0.44388000  0.58610000  1.0 0.0895154557
H  H353  1  0.25127000  0.39880000  0.73775000  1.0 0.0895154557
H  H354  1  0.24573000  0.45442000  0.70370000  1.0 0.0895154557
H  H355  1  0.18631000  0.39979000  0.62410000  1.0 0.0895154557
H  H356  1  0.19185000  0.34416000  0.65814000  1.0 0.0727617963
H  H357  1  0.18539000  0.45522000  0.53250000  1.0 0.0727617963
H  H358  1  0.26614000  0.39557000  0.74033000  1.0 0.0727617963
H  H359  1  0.27525000  0.45019000  0.70544000  1.0 0.0812456411
H  H360  1  0.22044000  0.40343000  0.61792000  1.0 0.0812456411
H  H361  1  0.21133000  0.34881000  0.65281000  1.0 0.0895154557
H  H362  1  0.22653000  0.45412000  0.53294000  1.0 0.0727617963
H  H363  1  0.26526000  0.44404000  0.58501000  1.0 0.0995543321
H  H364  1  0.29018000  0.45232000  0.53259000  1.0 0.0727617963
H  H365  1  0.25371000  0.54573000  0.46702000  1.0 0.0635202503
H  H366  1  0.22129000  0.55612000  0.41390000  1.0 0.0895154557
H  H367  1  0.25127000  0.60120000  0.26225000  1.0 0.0895154557
H  H368  1  0.24573000  0.54558000  0.29630000  1.0 0.0895154557
H  H369  1  0.18631000  0.60021000  0.37590000  1.0 0.0895154557
H  H370  1  0.19185000  0.65584000  0.34186000  1.0 0.0727617963
H  H371  1  0.18539000  0.54478000  0.46750000  1.0 0.0727617963
H  H372  1  0.26614000  0.60443000  0.25967000  1.0 0.0727617963
H  H373  1  0.27525000  0.54981000  0.29456000  1.0 0.0812456411
H  H374  1  0.22044000  0.59657000  0.38208000  1.0 0.0812456411
H  H375  1  0.21133000  0.65119000  0.34719000  1.0 0.0895154557
H  H376  1  0.22653000  0.54588000  0.46706000  1.0 0.0727617963
H  H377  1  0.26526000  0.55596000  0.41499000  1.0 0.0995543321
H  H378  1  0.29018000  0.54768000  0.46741000  1.0 0.0727617963
H  H379  1  0.74629000  0.45427000  0.46702000  1.0 0.0635202503
H  H380  1  0.77871000  0.44388000  0.41390000  1.0 0.0895154557
H  H381  1  0.74873000  0.39880000  0.26225000  1.0 0.0895154557
H  H382  1  0.75427000  0.45442000  0.29630000  1.0 0.0895154557
H  H383  1  0.81369000  0.39979000  0.37590000  1.0 0.0895154557
H  H384  1  0.80815000  0.34416000  0.34186000  1.0 0.0727617963
H  H385  1  0.81461000  0.45522000  0.46750000  1.0 0.0727617963
H  H386  1  0.73386000  0.39557000  0.25967000  1.0 0.0727617963
H  H387  1  0.72475000  0.45019000  0.29456000  1.0 0.0812456411
H  H388  1  0.77956000  0.40343000  0.38208000  1.0 0.0812456411
H  H389  1  0.78867000  0.34881000  0.34719000  1.0 0.0895154557
H  H390  1  0.77347000  0.45412000  0.46706000  1.0 0.0727617963
H  H391  1  0.73474000  0.44404000  0.41499000  1.0 0.0995543321
H  H392  1  0.70982000  0.45232000  0.46741000  1.0 0.0727617963
H  H393  1  0.53298000  0.74629000  0.54573000  1.0 0.0635202503
H  H394  1  0.58610000  0.77871000  0.55612000  1.0 0.0895154557
H  H395  1  0.73775000  0.74873000  0.60120000  1.0 0.0895154557
H  H396  1  0.70370000  0.75427000  0.54558000  1.0 0.0895154557
H  H397  1  0.62410000  0.81369000  0.60021000  1.0 0.0895154557
H  H398  1  0.65814000  0.80815000  0.65584000  1.0 0.0727617963
H  H399  1  0.53250000  0.81461000  0.54478000  1.0 0.0727617963
H  H400  1  0.74033000  0.73386000  0.60443000  1.0 0.0727617963
H  H401  1  0.70544000  0.72475000  0.54981000  1.0 0.0812456411
H  H402  1  0.61792000  0.77956000  0.59657000  1.0 0.0812456411
H  H403  1  0.65281000  0.78867000  0.65119000  1.0 0.0895154557
H  H404  1  0.53294000  0.77347000  0.54588000  1.0 0.0727617963
H  H405  1  0.58501000  0.73474000  0.55596000  1.0 0.0995543321
H  H406  1  0.53259000  0.70982000  0.54768000  1.0 0.0727617963
H  H407  1  0.53298000  0.25371000  0.45427000  1.0 0.0635202503
H  H408  1  0.58610000  0.22129000  0.44388000  1.0 0.0895154557
H  H409  1  0.73775000  0.25127000  0.39880000  1.0 0.0895154557
H  H410  1  0.70370000  0.24573000  0.45442000  1.0 0.0895154557
H  H411  1  0.62410000  0.18631000  0.39979000  1.0 0.0895154557
H  H412  1  0.65814000  0.19185000  0.34416000  1.0 0.0727617963
H  H413  1  0.53250000  0.18539000  0.45522000  1.0 0.0727617963
H  H414  1  0.74033000  0.26614000  0.39557000  1.0 0.0727617963
H  H415  1  0.70544000  0.27525000  0.45019000  1.0 0.0812456411
H  H416  1  0.61792000  0.22044000  0.40343000  1.0 0.0812456411
H  H417  1  0.65281000  0.21133000  0.34881000  1.0 0.0895154557
H  H418  1  0.53294000  0.22653000  0.45412000  1.0 0.0727617963
H  H419  1  0.58501000  0.26526000  0.44404000  1.0 0.0995543321
H  H420  1  0.53259000  0.29018000  0.45232000  1.0 0.0727617963
H  H421  1  0.46702000  0.25371000  0.54573000  1.0 0.0635202503
H  H422  1  0.41390000  0.22129000  0.55612000  1.0 0.0895154557
H  H423  1  0.26225000  0.25127000  0.60120000  1.0 0.0895154557
H  H424  1  0.29630000  0.24573000  0.54558000  1.0 0.0895154557
H  H425  1  0.37590000  0.18631000  0.60021000  1.0 0.0895154557
H  H426  1  0.34186000  0.19185000  0.65584000  1.0 0.0727617963
H  H427  1  0.46750000  0.18539000  0.54478000  1.0 0.0727617963
H  H428  1  0.25967000  0.26614000  0.60443000  1.0 0.0727617963
H  H429  1  0.29456000  0.27525000  0.54981000  1.0 0.0812456411
H  H430  1  0.38208000  0.22044000  0.59657000  1.0 0.0812456411
H  H431  1  0.34719000  0.21133000  0.65119000  1.0 0.0895154557
H  H432  1  0.46706000  0.22653000  0.54588000  1.0 0.0727617963
H  H433  1  0.41499000  0.26526000  0.55596000  1.0 0.0995543321
H  H434  1  0.46741000  0.29018000  0.54768000  1.0 0.0727617963
H  H435  1  0.46702000  0.74629000  0.45427000  1.0 0.0635202503
H  H436  1  0.41390000  0.77871000  0.44388000  1.0 0.0895154557
H  H437  1  0.26225000  0.74873000  0.39880000  1.0 0.0895154557
H  H438  1  0.29630000  0.75427000  0.45442000  1.0 0.0895154557
H  H439  1  0.37590000  0.81369000  0.39979000  1.0 0.0895154557
H  H440  1  0.34186000  0.80815000  0.34416000  1.0 0.0727617963
H  H441  1  0.46750000  0.81461000  0.45522000  1.0 0.0727617963
H  H442  1  0.25967000  0.73386000  0.39557000  1.0 0.0727617963
H  H443  1  0.29456000  0.72475000  0.45019000  1.0 0.0812456411
H  H444  1  0.38208000  0.77956000  0.40343000  1.0 0.0812456411
H  H445  1  0.34719000  0.78867000  0.34881000  1.0 0.0895154557
H  H446  1  0.46706000  0.77347000  0.45412000  1.0 0.0727617963
H  H447  1  0.41499000  0.73474000  0.44404000  1.0 0.0995543321
H  H448  1  0.46741000  0.70982000  0.45232000  1.0 0.0727617963
H  H449  1  0.54573000  0.53298000  0.74629000  1.0 0.0635202503
H  H450  1  0.55612000  0.58610000  0.77871000  1.0 0.0895154557
H  H451  1  0.60120000  0.73775000  0.74873000  1.0 0.0895154557
H  H452  1  0.54558000  0.70370000  0.75427000  1.0 0.0895154557
H  H453  1  0.60021000  0.62410000  0.81369000  1.0 0.0895154557
H  H454  1  0.65584000  0.65814000  0.80815000  1.0 0.0727617963
H  H455  1  0.54478000  0.53250000  0.81461000  1.0 0.0727617963
H  H456  1  0.60443000  0.74033000  0.73386000  1.0 0.0727617963
H  H457  1  0.54981000  0.70544000  0.72475000  1.0 0.0812456411
H  H458  1  0.59657000  0.61792000  0.77956000  1.0 0.0812456411
H  H459  1  0.65119000  0.65281000  0.78867000  1.0 0.0895154557
H  H460  1  0.54588000  0.53294000  0.77347000  1.0 0.0727617963
H  H461  1  0.55596000  0.58501000  0.73474000  1.0 0.0995543321
H  H462  1  0.54768000  0.53259000  0.70982000  1.0 0.0727617963
H  H463  1  0.45427000  0.53298000  0.25371000  1.0 0.0635202503
H  H464  1  0.44388000  0.58610000  0.22129000  1.0 0.0895154557
H  H465  1  0.39880000  0.73775000  0.25127000  1.0 0.0895154557
H  H466  1  0.45442000  0.70370000  0.24573000  1.0 0.0895154557
H  H467  1  0.39979000  0.62410000  0.18631000  1.0 0.0895154557
H  H468  1  0.34416000  0.65814000  0.19185000  1.0 0.0727617963
H  H469  1  0.45522000  0.53250000  0.18539000  1.0 0.0727617963
H  H470  1  0.39557000  0.74033000  0.26614000  1.0 0.0727617963
H  H471  1  0.45019000  0.70544000  0.27525000  1.0 0.0812456411
H  H472  1  0.40343000  0.61792000  0.22044000  1.0 0.0812456411
H  H473  1  0.34881000  0.65281000  0.21133000  1.0 0.0895154557
H  H474  1  0.45412000  0.53294000  0.22653000  1.0 0.0727617963
H  H475  1  0.44404000  0.58501000  0.26526000  1.0 0.0995543321
H  H476  1  0.45232000  0.53259000  0.29018000  1.0 0.0727617963
H  H477  1  0.54573000  0.46702000  0.25371000  1.0 0.0635202503
H  H478  1  0.55612000  0.41390000  0.22129000  1.0 0.0895154557
H  H479  1  0.60120000  0.26225000  0.25127000  1.0 0.0895154557
H  H480  1  0.54558000  0.29630000  0.24573000  1.0 0.0895154557
H  H481  1  0.60021000  0.37590000  0.18631000  1.0 0.0895154557
H  H482  1  0.65584000  0.34186000  0.19185000  1.0 0.0727617963
H  H483  1  0.54478000  0.46750000  0.18539000  1.0 0.0727617963
H  H484  1  0.60443000  0.25967000  0.26614000  1.0 0.0727617963
H  H485  1  0.54981000  0.29456000  0.27525000  1.0 0.0812456411
H  H486  1  0.59657000  0.38208000  0.22044000  1.0 0.0812456411
H  H487  1  0.65119000  0.34719000  0.21133000  1.0 0.0895154557
H  H488  1  0.54588000  0.46706000  0.22653000  1.0 0.0727617963
H  H489  1  0.55596000  0.41499000  0.26526000  1.0 0.0995543321
H  H490  1  0.54768000  0.46741000  0.29018000  1.0 0.0727617963
H  H491  1  0.45427000  0.46702000  0.74629000  1.0 0.0635202503
H  H492  1  0.44388000  0.41390000  0.77871000  1.0 0.0895154557
H  H493  1  0.39880000  0.26225000  0.74873000  1.0 0.0895154557
H  H494  1  0.45442000  0.29630000  0.75427000  1.0 0.0895154557
H  H495  1  0.39979000  0.37590000  0.81369000  1.0 0.0895154557
H  H496  1  0.34416000  0.34186000  0.80815000  1.0 0.0727617963
H  H497  1  0.45522000  0.46750000  0.81461000  1.0 0.0727617963
H  H498  1  0.39557000  0.25967000  0.73386000  1.0 0.0727617963
H  H499  1  0.45019000  0.29456000  0.72475000  1.0 0.0812456411
H  H500  1  0.40343000  0.38208000  0.77956000  1.0 0.0812456411
H  H501  1  0.34881000  0.34719000  0.78867000  1.0 0.0895154557
H  H502  1  0.45412000  0.46706000  0.77347000  1.0 0.0727617963
H  H503  1  0.44404000  0.41499000  0.73474000  1.0 0.0995543321
H  H504  1  0.45232000  0.46741000  0.70982000  1.0 0.0727617963
H  H505  1  0.04573000  0.24629000  0.96702000  1.0 0.0635202503
H  H506  1  0.05612000  0.27871000  0.91390000  1.0 0.0895154557
H  H507  1  0.10120000  0.24873000  0.76225000  1.0 0.0895154557
H  H508  1  0.04558000  0.25427000  0.79630000  1.0 0.0895154557
H  H509  1  0.10021000  0.31369000  0.87590000  1.0 0.0895154557
H  H510  1  0.15584000  0.30815000  0.84186000  1.0 0.0727617963
H  H511  1  0.04478000  0.31461000  0.96750000  1.0 0.0727617963
H  H512  1  0.10443000  0.23386000  0.75967000  1.0 0.0727617963
H  H513  1  0.04981000  0.22475000  0.79456000  1.0 0.0812456411
H  H514  1  0.09657000  0.27956000  0.88208000  1.0 0.0812456411
H  H515  1  0.15119000  0.28867000  0.84719000  1.0 0.0895154557
H  H516  1  0.04588000  0.27347000  0.96706000  1.0 0.0727617963
H  H517  1  0.05596000  0.23474000  0.91499000  1.0 0.0995543321
H  H518  1  0.04768000  0.20982000  0.96741000  1.0 0.0727617963
H  H519  1  0.95427000  0.75371000  0.96702000  1.0 0.0635202503
H  H520  1  0.94388000  0.72129000  0.91390000  1.0 0.0895154557
H  H521  1  0.89880000  0.75127000  0.76225000  1.0 0.0895154557
H  H522  1  0.95442000  0.74573000  0.79630000  1.0 0.0895154557
H  H523  1  0.89979000  0.68631000  0.87590000  1.0 0.0895154557
H  H524  1  0.84416000  0.69185000  0.84186000  1.0 0.0812456411
H  H525  1  0.95522000  0.68539000  0.96750000  1.0 0.0727617963
H  H526  1  0.89557000  0.76614000  0.75967000  1.0 0.0727617963
H  H527  1  0.95019000  0.77525000  0.79456000  1.0 0.0812456411
H  H528  1  0.90343000  0.72044000  0.88208000  1.0 0.0812456411
H  H529  1  0.84881000  0.71133000  0.84719000  1.0 0.0895154557
H  H530  1  0.95412000  0.72653000  0.96706000  1.0 0.0727617963
H  H531  1  0.94404000  0.76526000  0.91499000  1.0 0.0995543321
H  H532  1  0.95232000  0.79018000  0.96741000  1.0 0.0727617963
H  H533  1  0.04573000  0.75371000  0.03298000  1.0 0.0635202503
H  H534  1  0.05612000  0.72129000  0.08610000  1.0 0.0895154557
H  H535  1  0.10120000  0.75127000  0.23775000  1.0 0.0895154557
H  H536  1  0.04558000  0.74573000  0.20370000  1.0 0.0895154557
H  H537  1  0.10021000  0.68631000  0.12410000  1.0 0.0895154557
H  H538  1  0.15584000  0.69185000  0.15814000  1.0 0.0727617963
H  H539  1  0.04478000  0.68539000  0.03250000  1.0 0.0727617963
H  H540  1  0.10443000  0.76614000  0.24033000  1.0 0.0727617963
H  H541  1  0.04981000  0.77525000  0.20544000  1.0 0.0812456411
H  H542  1  0.09657000  0.72044000  0.11792000  1.0 0.0812456411
H  H543  1  0.15119000  0.71133000  0.15281000  1.0 0.0895154557
H  H544  1  0.04588000  0.72653000  0.03294000  1.0 0.0727617963
H  H545  1  0.05596000  0.76526000  0.08501000  1.0 0.0995543321
H  H546  1  0.04768000  0.79018000  0.03259000  1.0 0.0727617963
H  H547  1  0.95427000  0.24629000  0.03298000  1.0 0.0635202503
H  H548  1  0.94388000  0.27871000  0.08610000  1.0 0.0895154557
H  H549  1  0.89880000  0.24873000  0.23775000  1.0 0.0895154557
H  H550  1  0.95442000  0.25427000  0.20370000  1.0 0.0895154557
H  H551  1  0.89979000  0.31369000  0.12410000  1.0 0.0895154557
H  H552  1  0.84416000  0.30815000  0.15814000  1.0 0.0727617963
H  H553  1  0.95522000  0.31461000  0.03250000  1.0 0.0727617963
H  H554  1  0.89557000  0.23386000  0.24033000  1.0 0.0727617963
H  H555  1  0.95019000  0.22475000  0.20544000  1.0 0.0812456411
H  H556  1  0.90343000  0.27956000  0.11792000  1.0 0.0812456411
H  H557  1  0.84881000  0.28867000  0.15281000  1.0 0.0895154557
H  H558  1  0.95412000  0.27347000  0.03294000  1.0 0.0727617963
H  H559  1  0.94404000  0.23474000  0.08501000  1.0 0.0995543321
H  H560  1  0.95232000  0.20982000  0.03259000  1.0 0.0727617963
H  H561  1  0.24629000  0.03298000  0.95427000  1.0 0.0635202503
H  H562  1  0.27871000  0.08610000  0.94388000  1.0 0.0895154557
H  H563  1  0.24873000  0.23775000  0.89880000  1.0 0.0895154557
H  H564  1  0.25427000  0.20370000  0.95442000  1.0 0.0895154557
H  H565  1  0.31369000  0.12410000  0.89979000  1.0 0.0895154557
H  H566  1  0.30815000  0.15814000  0.84416000  1.0 0.0727617963
H  H567  1  0.31461000  0.03250000  0.95522000  1.0 0.0727617963
H  H568  1  0.23386000  0.24033000  0.89557000  1.0 0.0727617963
H  H569  1  0.22475000  0.20544000  0.95019000  1.0 0.0812456411
H  H570  1  0.27956000  0.11792000  0.90343000  1.0 0.0812456411
H  H571  1  0.28867000  0.15281000  0.84881000  1.0 0.0895154557
H  H572  1  0.27347000  0.03294000  0.95412000  1.0 0.0727617963
H  H573  1  0.23474000  0.08501000  0.94404000  1.0 0.0995543321
H  H574  1  0.20982000  0.03259000  0.95232000  1.0 0.0727617963
H  H575  1  0.75371000  0.03298000  0.04573000  1.0 0.0635202503
H  H576  1  0.72129000  0.08610000  0.05612000  1.0 0.0895154557
H  H577  1  0.75127000  0.23775000  0.10120000  1.0 0.0895154557
H  H578  1  0.74573000  0.20370000  0.04558000  1.0 0.0895154557
H  H579  1  0.68631000  0.12410000  0.10021000  1.0 0.0895154557
H  H580  1  0.69185000  0.15814000  0.15584000  1.0 0.0727617963
H  H581  1  0.68539000  0.03250000  0.04478000  1.0 0.0727617963
H  H582  1  0.76614000  0.24033000  0.10443000  1.0 0.0727617963
H  H583  1  0.77525000  0.20544000  0.04981000  1.0 0.0812456411
H  H584  1  0.72044000  0.11792000  0.09657000  1.0 0.0812456411
H  H585  1  0.71133000  0.15281000  0.15119000  1.0 0.0895154557
H  H586  1  0.72653000  0.03294000  0.04588000  1.0 0.0727617963
H  H587  1  0.76526000  0.08501000  0.05596000  1.0 0.0995543321
H  H588  1  0.79018000  0.03259000  0.04768000  1.0 0.0727617963
H  H589  1  0.75371000  0.96702000  0.95427000  1.0 0.0635202503
H  H590  1  0.72129000  0.91390000  0.94388000  1.0 0.0895154557
H  H591  1  0.75127000  0.76225000  0.89880000  1.0 0.0895154557
H  H592  1  0.74573000  0.79630000  0.95442000  1.0 0.0895154557
H  H593  1  0.68631000  0.87590000  0.89979000  1.0 0.0895154557
H  H594  1  0.69185000  0.84186000  0.84416000  1.0 0.0812456411
H  H595  1  0.68539000  0.96750000  0.95522000  1.0 0.0727617963
H  H596  1  0.76614000  0.75967000  0.89557000  1.0 0.0727617963
H  H597  1  0.77525000  0.79456000  0.95019000  1.0 0.0812456411
H  H598  1  0.72044000  0.88208000  0.90343000  1.0 0.0812456411
H  H599  1  0.71133000  0.84719000  0.84881000  1.0 0.0895154557
H  H600  1  0.72653000  0.96706000  0.95412000  1.0 0.0727617963
H  H601  1  0.76526000  0.91499000  0.94404000  1.0 0.0995543321
H  H602  1  0.79018000  0.96741000  0.95232000  1.0 0.0727617963
H  H603  1  0.24629000  0.96702000  0.04573000  1.0 0.0635202503
H  H604  1  0.27871000  0.91390000  0.05612000  1.0 0.0895154557
H  H605  1  0.24873000  0.76225000  0.10120000  1.0 0.0895154557
H  H606  1  0.25427000  0.79630000  0.04558000  1.0 0.0895154557
H  H607  1  0.31369000  0.87590000  0.10021000  1.0 0.0895154557
H  H608  1  0.30815000  0.84186000  0.15584000  1.0 0.0727617963
H  H609  1  0.31461000  0.96750000  0.04478000  1.0 0.0727617963
H  H610  1  0.23386000  0.75967000  0.10443000  1.0 0.0727617963
H  H611  1  0.22475000  0.79456000  0.04981000  1.0 0.0812456411
H  H612  1  0.27956000  0.88208000  0.09657000  1.0 0.0812456411
H  H613  1  0.28867000  0.84719000  0.15119000  1.0 0.0895154557
H  H614  1  0.27347000  0.96706000  0.04588000  1.0 0.0727617963
H  H615  1  0.23474000  0.91499000  0.05596000  1.0 0.0995543321
H  H616  1  0.20982000  0.96741000  0.04768000  1.0 0.0727617963
H  H617  1  0.03298000  0.04573000  0.75371000  1.0 0.0635202503
H  H618  1  0.08610000  0.05612000  0.72129000  1.0 0.0895154557
H  H619  1  0.23775000  0.10120000  0.75127000  1.0 0.0895154557
H  H620  1  0.20370000  0.04558000  0.74573000  1.0 0.0895154557
H  H621  1  0.12410000  0.10021000  0.68631000  1.0 0.0895154557
H  H622  1  0.15814000  0.15584000  0.69185000  1.0 0.0727617963
H  H623  1  0.03250000  0.04478000  0.68539000  1.0 0.0727617963
H  H624  1  0.24033000  0.10443000  0.76614000  1.0 0.0727617963
H  H625  1  0.20544000  0.04981000  0.77525000  1.0 0.0812456411
H  H626  1  0.11792000  0.09657000  0.72044000  1.0 0.0812456411
H  H627  1  0.15281000  0.15119000  0.71133000  1.0 0.0895154557
H  H628  1  0.03294000  0.04588000  0.72653000  1.0 0.0727617963
H  H629  1  0.08501000  0.05596000  0.76526000  1.0 0.0995543321
H  H630  1  0.03259000  0.04768000  0.79018000  1.0 0.0727617963
H  H631  1  0.03298000  0.95427000  0.24629000  1.0 0.0635202503
H  H632  1  0.08610000  0.94388000  0.27871000  1.0 0.0895154557
H  H633  1  0.23775000  0.89880000  0.24873000  1.0 0.0895154557
H  H634  1  0.20370000  0.95442000  0.25427000  1.0 0.0895154557
H  H635  1  0.12410000  0.89979000  0.31369000  1.0 0.0895154557
H  H636  1  0.15814000  0.84416000  0.30815000  1.0 0.0727617963
H  H637  1  0.03250000  0.95522000  0.31461000  1.0 0.0727617963
H  H638  1  0.24033000  0.89557000  0.23386000  1.0 0.0727617963
H  H639  1  0.20544000  0.95019000  0.22475000  1.0 0.0812456411
H  H640  1  0.11792000  0.90343000  0.27956000  1.0 0.0812456411
H  H641  1  0.15281000  0.84881000  0.28867000  1.0 0.0895154557
H  H642  1  0.03294000  0.95412000  0.27347000  1.0 0.0727617963
H  H643  1  0.08501000  0.94404000  0.23474000  1.0 0.0995543321
H  H644  1  0.03259000  0.95232000  0.20982000  1.0 0.0727617963
H  H645  1  0.96702000  0.04573000  0.24629000  1.0 0.0635202503
H  H646  1  0.91390000  0.05612000  0.27871000  1.0 0.0895154557
H  H647  1  0.76225000  0.10120000  0.24873000  1.0 0.0895154557
H  H648  1  0.79630000  0.04558000  0.25427000  1.0 0.0895154557
H  H649  1  0.87590000  0.10021000  0.31369000  1.0 0.0895154557
H  H650  1  0.84186000  0.15584000  0.30815000  1.0 0.0727617963
H  H651  1  0.96750000  0.04478000  0.31461000  1.0 0.0727617963
H  H652  1  0.75967000  0.10443000  0.23386000  1.0 0.0727617963
H  H653  1  0.79456000  0.04981000  0.22475000  1.0 0.0812456411
H  H654  1  0.88208000  0.09657000  0.27956000  1.0 0.0812456411
H  H655  1  0.84719000  0.15119000  0.28867000  1.0 0.0895154557
H  H656  1  0.96706000  0.04588000  0.27347000  1.0 0.0727617963
H  H657  1  0.91499000  0.05596000  0.23474000  1.0 0.0995543321
H  H658  1  0.96741000  0.04768000  0.20982000  1.0 0.0727617963
H  H659  1  0.96702000  0.95427000  0.75371000  1.0 0.0635202503
H  H660  1  0.91390000  0.94388000  0.72129000  1.0 0.0895154557
H  H661  1  0.76225000  0.89880000  0.75127000  1.0 0.0895154557
H  H662  1  0.79630000  0.95442000  0.74573000  1.0 0.0895154557
H  H663  1  0.87590000  0.89979000  0.68631000  1.0 0.0895154557
H  H664  1  0.84186000  0.84416000  0.69185000  1.0 0.0727617963
H  H665  1  0.96750000  0.95522000  0.68539000  1.0 0.0727617963
H  H666  1  0.75967000  0.89557000  0.76614000  1.0 0.0727617963
H  H667  1  0.79456000  0.95019000  0.77525000  1.0 0.0812456411
H  H668  1  0.88208000  0.90343000  0.72044000  1.0 0.0812456411
H  H669  1  0.84719000  0.84881000  0.71133000  1.0 0.0895154557
H  H670  1  0.96706000  0.95412000  0.72653000  1.0 0.0727617963
H  H671  1  0.91499000  0.94404000  0.76526000  1.0 0.0995543321
H  H672  1  0.96741000  0.95232000  0.79018000  1.0 0.0727617963
C  C1  1  0.22970000  0.32910000  0.27990000  1.0 0.3934237765
C  C2  1  0.24000000  0.47280000  0.48030000  1.0 -0.0333234673
C  C3  1  0.21960000  0.46720000  0.36210000  1.0 0.0635202503
C  C4  1  0.22090000  0.46700000  0.40080000  1.0 -0.1801500534
C  C5  1  0.22210000  0.36630000  0.29890000  1.0 0.0313174508
C  C6  1  0.23810000  0.39900000  0.28530000  1.0 -0.0333234673
C  C7  1  0.23480000  0.43200000  0.30550000  1.0 -0.0416395954
C  C8  1  0.21550000  0.43230000  0.33930000  1.0 -0.0223367
C  C9  1  0.19950000  0.39960000  0.35280000  1.0 -0.0881719728
C  C10  1  0.20280000  0.36650000  0.33260000  1.0 -0.0881719728
C  C11  1  0.19950000  0.47350000  0.48060000  1.0 -0.1322866752
C  C12  1  0.23790000  0.36710000  0.30010000  1.0 0.0375456221
C  C13  1  0.25690000  0.39720000  0.28450000  1.0 -0.0596329413
C  C14  1  0.26230000  0.42960000  0.30520000  1.0 -0.1021536343
C  C15  1  0.24870000  0.43190000  0.34160000  1.0 0.0172896381
C  C16  1  0.22970000  0.40180000  0.35720000  1.0 -0.0819781289
C  C17  1  0.22430000  0.36940000  0.33650000  1.0 -0.0819781289
C  C18  1  0.25740000  0.46750000  0.36360000  1.0 0.0506834101
C  C19  1  0.26320000  0.46710000  0.40190000  1.0 -0.1867803114
C  C20  1  0.23050000  0.33230000  0.27730000  1.0 0.3707347317
C  C21  1  0.27770000  0.47180000  0.48050000  1.0 -0.1322866752
C  C22  1  0.77030000  0.67090000  0.27990000  1.0 0.3961464611
C  C23  1  0.76000000  0.52720000  0.48030000  1.0 -0.0333234673
C  C24  1  0.78040000  0.53280000  0.36210000  1.0 0.0635202503
C  C25  1  0.77910000  0.53300000  0.40080000  1.0 -0.1801500534
C  C26  1  0.77790000  0.63370000  0.29890000  1.0 0.0313174508
C  C27  1  0.76190000  0.60100000  0.28530000  1.0 -0.0333234673
C  C28  1  0.76520000  0.56800000  0.30550000  1.0 -0.0416395954
C  C29  1  0.78450000  0.56770000  0.33930000  1.0 -0.0223367
C  C30  1  0.80050000  0.60040000  0.35280000  1.0 -0.0881719728
C  C31  1  0.79720000  0.63350000  0.33260000  1.0 -0.0881719728
C  C32  1  0.80050000  0.52650000  0.48060000  1.0 -0.1322866752
C  C33  1  0.76210000  0.63290000  0.30010000  1.0 0.0375456221
C  C34  1  0.74310000  0.60280000  0.28450000  1.0 -0.0596329413
C  C35  1  0.73770000  0.57040000  0.30520000  1.0 -0.1021536343
C  C36  1  0.75130000  0.56810000  0.34160000  1.0 0.0172896381
C  C37  1  0.77030000  0.59820000  0.35720000  1.0 -0.0819781289
C  C38  1  0.77570000  0.63060000  0.33650000  1.0 -0.0819781289
C  C39  1  0.74260000  0.53250000  0.36360000  1.0 0.0506834101
C  C40  1  0.73680000  0.53290000  0.40190000  1.0 -0.1867803114
C  C41  1  0.76950000  0.66770000  0.27730000  1.0 0.3707347317
C  C42  1  0.72230000  0.52820000  0.48050000  1.0 -0.1322866752
C  C43  1  0.77030000  0.32910000  0.72010000  1.0 0.3961464611
C  C44  1  0.76000000  0.47280000  0.51970000  1.0 -0.0333234673
C  C45  1  0.78040000  0.46720000  0.63790000  1.0 0.0727617963
C  C46  1  0.77910000  0.46700000  0.59920000  1.0 -0.1801500534
C  C47  1  0.77790000  0.36630000  0.70110000  1.0 0.0313174508
C  C48  1  0.76190000  0.39900000  0.71470000  1.0 -0.0333234673
C  C49  1  0.76520000  0.43200000  0.69450000  1.0 -0.0416395954
C  C50  1  0.78450000  0.43230000  0.66070000  1.0 -0.0223367
C  C51  1  0.80050000  0.39960000  0.64720000  1.0 -0.0881719728
C  C52  1  0.79720000  0.36650000  0.66740000  1.0 -0.0881719728
C  C53  1  0.80050000  0.47350000  0.51940000  1.0 -0.1322866752
C  C54  1  0.76210000  0.36710000  0.69990000  1.0 0.0375456221
C  C55  1  0.74310000  0.39720000  0.71550000  1.0 -0.0596329413
C  C56  1  0.73770000  0.42960000  0.69480000  1.0 -0.1021536343
C  C57  1  0.75130000  0.43190000  0.65840000  1.0 0.0172896381
C  C58  1  0.77030000  0.40180000  0.64280000  1.0 -0.0819781289
C  C59  1  0.77570000  0.36940000  0.66350000  1.0 -0.0819781289
C  C60  1  0.74260000  0.46750000  0.63640000  1.0 0.0506834101
C  C61  1  0.73680000  0.46710000  0.59810000  1.0 -0.1867803114
C  C62  1  0.76950000  0.33230000  0.72270000  1.0 0.3707347317
C  C63  1  0.72230000  0.47180000  0.51950000  1.0 -0.1322866752
C  C64  1  0.22970000  0.67090000  0.72010000  1.0 0.3934237765
C  C65  1  0.24000000  0.52720000  0.51970000  1.0 -0.0333234673
C  C66  1  0.21960000  0.53280000  0.63790000  1.0 0.0635202503
C  C67  1  0.22090000  0.53300000  0.59920000  1.0 -0.1801500534
C  C68  1  0.22210000  0.63370000  0.70110000  1.0 0.0313174508
C  C69  1  0.23810000  0.60100000  0.71470000  1.0 -0.0333234673
C  C70  1  0.23480000  0.56800000  0.69450000  1.0 -0.0416395954
C  C71  1  0.21550000  0.56770000  0.66070000  1.0 -0.0223367
C  C72  1  0.19950000  0.60040000  0.64720000  1.0 -0.0881719728
C  C73  1  0.20280000  0.63350000  0.66740000  1.0 -0.0881719728
C  C74  1  0.19950000  0.52650000  0.51940000  1.0 -0.1322866752
C  C75  1  0.23790000  0.63290000  0.69990000  1.0 0.0375456221
C  C76  1  0.25690000  0.60280000  0.71550000  1.0 -0.0596329413
C  C77  1  0.26230000  0.57040000  0.69480000  1.0 -0.1021536343
C  C78  1  0.24870000  0.56810000  0.65840000  1.0 0.0172896381
C  C79  1  0.22970000  0.59820000  0.64280000  1.0 -0.0819781289
C  C80  1  0.22430000  0.63060000  0.66350000  1.0 -0.0819781289
C  C81  1  0.25740000  0.53250000  0.63640000  1.0 0.0506834101
C  C82  1  0.26320000  0.53290000  0.59810000  1.0 -0.1867803114
C  C83  1  0.23050000  0.66770000  0.72270000  1.0 0.3707347317
C  C84  1  0.27770000  0.52820000  0.51950000  1.0 -0.1322866752
C  C85  1  0.27990000  0.22970000  0.32910000  1.0 0.3934237765
C  C86  1  0.48030000  0.24000000  0.47280000  1.0 -0.0333234673
C  C87  1  0.36210000  0.21960000  0.46720000  1.0 0.0635202503
C  C88  1  0.40080000  0.22090000  0.46700000  1.0 -0.1801500534
C  C89  1  0.29890000  0.22210000  0.36630000  1.0 0.0313174508
C  C90  1  0.28530000  0.23810000  0.39900000  1.0 -0.0333234673
C  C91  1  0.30550000  0.23480000  0.43200000  1.0 -0.0416395954
C  C92  1  0.33930000  0.21550000  0.43230000  1.0 -0.0223367
C  C93  1  0.35280000  0.19950000  0.39960000  1.0 -0.0881719728
C  C94  1  0.33260000  0.20280000  0.36650000  1.0 -0.0881719728
C  C95  1  0.48060000  0.19950000  0.47350000  1.0 -0.1322866752
C  C96  1  0.30010000  0.23790000  0.36710000  1.0 0.0375456221
C  C97  1  0.28450000  0.25690000  0.39720000  1.0 -0.0596329413
C  C98  1  0.30520000  0.26230000  0.42960000  1.0 -0.1021536343
C  C99  1  0.34160000  0.24870000  0.43190000  1.0 0.0172896381
C  C100  1  0.35720000  0.22970000  0.40180000  1.0 -0.0819781289
C  C101  1  0.33650000  0.22430000  0.36940000  1.0 -0.0819781289
C  C102  1  0.36360000  0.25740000  0.46750000  1.0 0.0506834101
C  C103  1  0.40190000  0.26320000  0.46710000  1.0 -0.1867803114
C  C104  1  0.27730000  0.23050000  0.33230000  1.0 0.3707347317
C  C105  1  0.48050000  0.27770000  0.47180000  1.0 -0.1322866752
C  C106  1  0.27990000  0.77030000  0.67090000  1.0 0.3934237765
C  C107  1  0.48030000  0.76000000  0.52720000  1.0 -0.0333234673
C  C108  1  0.36210000  0.78040000  0.53280000  1.0 0.0635202503
C  C109  1  0.40080000  0.77910000  0.53300000  1.0 -0.1801500534
C  C110  1  0.29890000  0.77790000  0.63370000  1.0 0.0313174508
C  C111  1  0.28530000  0.76190000  0.60100000  1.0 -0.0333234673
C  C112  1  0.30550000  0.76520000  0.56800000  1.0 -0.0416395954
C  C113  1  0.33930000  0.78450000  0.56770000  1.0 -0.0223367
C  C114  1  0.35280000  0.80050000  0.60040000  1.0 -0.0881719728
C  C115  1  0.33260000  0.79720000  0.63350000  1.0 -0.0881719728
C  C116  1  0.48060000  0.80050000  0.52650000  1.0 -0.1322866752
C  C117  1  0.30010000  0.76210000  0.63290000  1.0 0.0375456221
C  C118  1  0.28450000  0.74310000  0.60280000  1.0 -0.0596329413
C  C119  1  0.30520000  0.73770000  0.57040000  1.0 -0.1021536343
C  C120  1  0.34160000  0.75130000  0.56810000  1.0 0.0172896381
C  C121  1  0.35720000  0.77030000  0.59820000  1.0 -0.0819781289
C  C122  1  0.33650000  0.77570000  0.63060000  1.0 -0.0819781289
C  C123  1  0.36360000  0.74260000  0.53250000  1.0 0.0506834101
C  C124  1  0.40190000  0.73680000  0.53290000  1.0 -0.1867803114
C  C125  1  0.27730000  0.76950000  0.66770000  1.0 0.3707347317
C  C126  1  0.48050000  0.72230000  0.52820000  1.0 -0.1322866752
C  C127  1  0.72010000  0.77030000  0.32910000  1.0 0.3934237765
C  C128  1  0.51970000  0.76000000  0.47280000  1.0 -0.0333234673
C  C129  1  0.63790000  0.78040000  0.46720000  1.0 0.0727617963
C  C130  1  0.59920000  0.77910000  0.46700000  1.0 -0.1801500534
C  C131  1  0.70110000  0.77790000  0.36630000  1.0 0.0313174508
C  C132  1  0.71470000  0.76190000  0.39900000  1.0 -0.0333234673
C  C133  1  0.69450000  0.76520000  0.43200000  1.0 -0.0416395954
C  C134  1  0.66070000  0.78450000  0.43230000  1.0 -0.0223367
C  C135  1  0.64720000  0.80050000  0.39960000  1.0 -0.0881719728
C  C136  1  0.66740000  0.79720000  0.36650000  1.0 -0.0881719728
C  C137  1  0.51940000  0.80050000  0.47350000  1.0 -0.1322866752
C  C138  1  0.69990000  0.76210000  0.36710000  1.0 0.0375456221
C  C139  1  0.71550000  0.74310000  0.39720000  1.0 -0.0596329413
C  C140  1  0.69480000  0.73770000  0.42960000  1.0 -0.1021536343
C  C141  1  0.65840000  0.75130000  0.43190000  1.0 0.0172896381
C  C142  1  0.64280000  0.77030000  0.40180000  1.0 -0.0819781289
C  C143  1  0.66350000  0.77570000  0.36940000  1.0 -0.0819781289
C  C144  1  0.63640000  0.74260000  0.46750000  1.0 0.0506834101
C  C145  1  0.59810000  0.73680000  0.46710000  1.0 -0.1867803114
C  C146  1  0.72270000  0.76950000  0.33230000  1.0 0.3707347317
C  C147  1  0.51950000  0.72230000  0.47180000  1.0 -0.1322866752
C  C148  1  0.72010000  0.22970000  0.67090000  1.0 0.3961464611
C  C149  1  0.51970000  0.24000000  0.52720000  1.0 -0.0333234673
C  C150  1  0.63790000  0.21960000  0.53280000  1.0 0.0635202503
C  C151  1  0.59920000  0.22090000  0.53300000  1.0 -0.1801500534
C  C152  1  0.70110000  0.22210000  0.63370000  1.0 0.0313174508
C  C153  1  0.71470000  0.23810000  0.60100000  1.0 -0.0333234673
C  C154  1  0.69450000  0.23480000  0.56800000  1.0 -0.0416395954
C  C155  1  0.66070000  0.21550000  0.56770000  1.0 -0.0223367
C  C156  1  0.64720000  0.19950000  0.60040000  1.0 -0.0881719728
C  C157  1  0.66740000  0.20280000  0.63350000  1.0 -0.0881719728
C  C158  1  0.51940000  0.19950000  0.52650000  1.0 -0.1322866752
C  C159  1  0.69990000  0.23790000  0.63290000  1.0 0.0375456221
C  C160  1  0.71550000  0.25690000  0.60280000  1.0 -0.0596329413
C  C161  1  0.69480000  0.26230000  0.57040000  1.0 -0.1021536343
C  C162  1  0.65840000  0.24870000  0.56810000  1.0 0.0172896381
C  C163  1  0.64280000  0.22970000  0.59820000  1.0 -0.0819781289
C  C164  1  0.66350000  0.22430000  0.63060000  1.0 -0.0819781289
C  C165  1  0.63640000  0.25740000  0.53250000  1.0 0.0506834101
C  C166  1  0.59810000  0.26320000  0.53290000  1.0 -0.1867803114
C  C167  1  0.72270000  0.23050000  0.66770000  1.0 0.3707347317
C  C168  1  0.51950000  0.27770000  0.52820000  1.0 -0.1322866752
C  C169  1  0.32910000  0.27990000  0.22970000  1.0 0.3934237765
C  C170  1  0.47280000  0.48030000  0.24000000  1.0 -0.0333234673
C  C171  1  0.46720000  0.36210000  0.21960000  1.0 0.0635202503
C  C172  1  0.46700000  0.40080000  0.22090000  1.0 -0.1801500534
C  C173  1  0.36630000  0.29890000  0.22210000  1.0 0.0313174508
C  C174  1  0.39900000  0.28530000  0.23810000  1.0 -0.0333234673
C  C175  1  0.43200000  0.30550000  0.23480000  1.0 -0.0416395954
C  C176  1  0.43230000  0.33930000  0.21550000  1.0 -0.0223367
C  C177  1  0.39960000  0.35280000  0.19950000  1.0 -0.0881719728
C  C178  1  0.36650000  0.33260000  0.20280000  1.0 -0.0881719728
C  C179  1  0.47350000  0.48060000  0.19950000  1.0 -0.1322866752
C  C180  1  0.36710000  0.30010000  0.23790000  1.0 0.0375456221
C  C181  1  0.39720000  0.28450000  0.25690000  1.0 -0.0596329413
C  C182  1  0.42960000  0.30520000  0.26230000  1.0 -0.1021536343
C  C183  1  0.43190000  0.34160000  0.24870000  1.0 0.0172896381
C  C184  1  0.40180000  0.35720000  0.22970000  1.0 -0.0819781289
C  C185  1  0.36940000  0.33650000  0.22430000  1.0 -0.0819781289
C  C186  1  0.46750000  0.36360000  0.25740000  1.0 0.0506834101
C  C187  1  0.46710000  0.40190000  0.26320000  1.0 -0.1867803114
C  C188  1  0.33230000  0.27730000  0.23050000  1.0 0.3707347317
C  C189  1  0.47180000  0.48050000  0.27770000  1.0 -0.1322866752
C  C190  1  0.67090000  0.27990000  0.77030000  1.0 0.3961464611
C  C191  1  0.52720000  0.48030000  0.76000000  1.0 -0.0333234673
C  C192  1  0.53280000  0.36210000  0.78040000  1.0 0.0727617963
C  C193  1  0.53300000  0.40080000  0.77910000  1.0 -0.1801500534
C  C194  1  0.63370000  0.29890000  0.77790000  1.0 0.0313174508
C  C195  1  0.60100000  0.28530000  0.76190000  1.0 -0.0333234673
C  C196  1  0.56800000  0.30550000  0.76520000  1.0 -0.0416395954
C  C197  1  0.56770000  0.33930000  0.78450000  1.0 -0.0223367
C  C198  1  0.60040000  0.35280000  0.80050000  1.0 -0.0881719728
C  C199  1  0.63350000  0.33260000  0.79720000  1.0 -0.0881719728
C  C200  1  0.52650000  0.48060000  0.80050000  1.0 -0.1322866752
C  C201  1  0.63290000  0.30010000  0.76210000  1.0 0.0375456221
C  C202  1  0.60280000  0.28450000  0.74310000  1.0 -0.0596329413
C  C203  1  0.57040000  0.30520000  0.73770000  1.0 -0.1021536343
C  C204  1  0.56810000  0.34160000  0.75130000  1.0 0.0172896381
C  C205  1  0.59820000  0.35720000  0.77030000  1.0 -0.0819781289
C  C206  1  0.63060000  0.33650000  0.77570000  1.0 -0.0819781289
C  C207  1  0.53250000  0.36360000  0.74260000  1.0 0.0506834101
C  C208  1  0.53290000  0.40190000  0.73680000  1.0 -0.1867803114
C  C209  1  0.66770000  0.27730000  0.76950000  1.0 0.3707347317
C  C210  1  0.52820000  0.48050000  0.72230000  1.0 -0.1322866752
C  C211  1  0.32910000  0.72010000  0.77030000  1.0 0.3934237765
C  C212  1  0.47280000  0.51970000  0.76000000  1.0 -0.0333234673
C  C213  1  0.46720000  0.63790000  0.78040000  1.0 0.0727617963
C  C214  1  0.46700000  0.59920000  0.77910000  1.0 -0.1801500534
C  C215  1  0.36630000  0.70110000  0.77790000  1.0 0.0313174508
C  C216  1  0.39900000  0.71470000  0.76190000  1.0 -0.0333234673
C  C217  1  0.43200000  0.69450000  0.76520000  1.0 -0.0416395954
C  C218  1  0.43230000  0.66070000  0.78450000  1.0 -0.0223367
C  C219  1  0.39960000  0.64720000  0.80050000  1.0 -0.0881719728
C  C220  1  0.36650000  0.66740000  0.79720000  1.0 -0.0881719728
C  C221  1  0.47350000  0.51940000  0.80050000  1.0 -0.1322866752
C  C222  1  0.36710000  0.69990000  0.76210000  1.0 0.0375456221
C  C223  1  0.39720000  0.71550000  0.74310000  1.0 -0.0596329413
C  C224  1  0.42960000  0.69480000  0.73770000  1.0 -0.1021536343
C  C225  1  0.43190000  0.65840000  0.75130000  1.0 0.0172896381
C  C226  1  0.40180000  0.64280000  0.77030000  1.0 -0.0819781289
C  C227  1  0.36940000  0.66350000  0.77570000  1.0 -0.0819781289
C  C228  1  0.46750000  0.63640000  0.74260000  1.0 0.0506834101
C  C229  1  0.46710000  0.59810000  0.73680000  1.0 -0.1867803114
C  C230  1  0.33230000  0.72270000  0.76950000  1.0 0.3707347317
C  C231  1  0.47180000  0.51950000  0.72230000  1.0 -0.1322866752
C  C232  1  0.67090000  0.72010000  0.22970000  1.0 0.3934237765
C  C233  1  0.52720000  0.51970000  0.24000000  1.0 -0.0333234673
C  C234  1  0.53280000  0.63790000  0.21960000  1.0 0.0635202503
C  C235  1  0.53300000  0.59920000  0.22090000  1.0 -0.1801500534
C  C236  1  0.63370000  0.70110000  0.22210000  1.0 0.0313174508
C  C237  1  0.60100000  0.71470000  0.23810000  1.0 -0.0333234673
C  C238  1  0.56800000  0.69450000  0.23480000  1.0 -0.0416395954
C  C239  1  0.56770000  0.66070000  0.21550000  1.0 -0.0223367
C  C240  1  0.60040000  0.64720000  0.19950000  1.0 -0.0881719728
C  C241  1  0.63350000  0.66740000  0.20280000  1.0 -0.0881719728
C  C242  1  0.52650000  0.51940000  0.19950000  1.0 -0.1322866752
C  C243  1  0.63290000  0.69990000  0.23790000  1.0 0.0375456221
C  C244  1  0.60280000  0.71550000  0.25690000  1.0 -0.0596329413
C  C245  1  0.57040000  0.69480000  0.26230000  1.0 -0.1021536343
C  C246  1  0.56810000  0.65840000  0.24870000  1.0 0.0172896381
C  C247  1  0.59820000  0.64280000  0.22970000  1.0 -0.0819781289
C  C248  1  0.63060000  0.66350000  0.22430000  1.0 -0.0819781289
C  C249  1  0.53250000  0.63640000  0.25740000  1.0 0.0506834101
C  C250  1  0.53290000  0.59810000  0.26320000  1.0 -0.1867803114
C  C251  1  0.66770000  0.72270000  0.23050000  1.0 0.3707347317
C  C252  1  0.52820000  0.51950000  0.27770000  1.0 -0.1322866752
C  C253  1  0.82910000  0.72970000  0.22010000  1.0 0.3961464611
C  C254  1  0.97280000  0.74000000  0.01970000  1.0 -0.0333234673
C  C255  1  0.96720000  0.71960000  0.13790000  1.0 0.0727617963
C  C256  1  0.96700000  0.72090000  0.09920000  1.0 -0.1801500534
C  C257  1  0.86630000  0.72210000  0.20110000  1.0 0.0313174508
C  C258  1  0.89900000  0.73810000  0.21470000  1.0 -0.0333234673
C  C259  1  0.93200000  0.73480000  0.19450000  1.0 -0.0416395954
C  C260  1  0.93230000  0.71550000  0.16070000  1.0 -0.0223367
C  C261  1  0.89960000  0.69950000  0.14720000  1.0 -0.0881719728
C  C262  1  0.86650000  0.70280000  0.16740000  1.0 -0.0881719728
C  C263  1  0.97350000  0.69950000  0.01940000  1.0 -0.1322866752
C  C264  1  0.86710000  0.73790000  0.19990000  1.0 0.0375456221
C  C265  1  0.89720000  0.75690000  0.21550000  1.0 -0.0596329413
C  C266  1  0.92960000  0.76230000  0.19480000  1.0 -0.1021536343
C  C267  1  0.93190000  0.74870000  0.15840000  1.0 0.0172896381
C  C268  1  0.90180000  0.72970000  0.14280000  1.0 -0.0819781289
C  C269  1  0.86940000  0.72430000  0.16350000  1.0 -0.0819781289
C  C270  1  0.96750000  0.75740000  0.13640000  1.0 0.0506834101
C  C271  1  0.96710000  0.76320000  0.09810000  1.0 -0.1867803114
C  C272  1  0.83230000  0.73050000  0.22270000  1.0 0.3707347317
C  C273  1  0.97180000  0.77770000  0.01950000  1.0 -0.1322866752
C  C274  1  0.17090000  0.27030000  0.22010000  1.0 0.3934237765
C  C275  1  0.02720000  0.26000000  0.01970000  1.0 -0.0333234673
C  C276  1  0.03280000  0.28040000  0.13790000  1.0 0.0635202503
C  C277  1  0.03300000  0.27910000  0.09920000  1.0 -0.1801500534
C  C278  1  0.13370000  0.27790000  0.20110000  1.0 0.0313174508
C  C279  1  0.10100000  0.26190000  0.21470000  1.0 -0.0333234673
C  C280  1  0.06800000  0.26520000  0.19450000  1.0 -0.0416395954
C  C281  1  0.06770000  0.28450000  0.16070000  1.0 -0.0223367
C  C282  1  0.10040000  0.30050000  0.14720000  1.0 -0.0881719728
C  C283  1  0.13350000  0.29720000  0.16740000  1.0 -0.0881719728
C  C284  1  0.02650000  0.30050000  0.01940000  1.0 -0.1322866752
C  C285  1  0.13290000  0.26210000  0.19990000  1.0 0.0375456221
C  C286  1  0.10280000  0.24310000  0.21550000  1.0 -0.0596329413
C  C287  1  0.07040000  0.23770000  0.19480000  1.0 -0.1021536343
C  C288  1  0.06810000  0.25130000  0.15840000  1.0 0.0172896381
C  C289  1  0.09820000  0.27030000  0.14280000  1.0 -0.0819781289
C  C290  1  0.13060000  0.27570000  0.16350000  1.0 -0.0819781289
C  C291  1  0.03250000  0.24260000  0.13640000  1.0 0.0506834101
C  C292  1  0.03290000  0.23680000  0.09810000  1.0 -0.1867803114
C  C293  1  0.16770000  0.26950000  0.22270000  1.0 0.3707347317
C  C294  1  0.02820000  0.22230000  0.01950000  1.0 -0.1322866752
C  C295  1  0.82910000  0.27030000  0.77990000  1.0 0.3961464611
C  C296  1  0.97280000  0.26000000  0.98030000  1.0 -0.0333234673
C  C297  1  0.96720000  0.28040000  0.86210000  1.0 0.0727617963
C  C298  1  0.96700000  0.27910000  0.90080000  1.0 -0.1801500534
C  C299  1  0.86630000  0.27790000  0.79890000  1.0 0.0313174508
C  C300  1  0.89900000  0.26190000  0.78530000  1.0 -0.0333234673
C  C301  1  0.93200000  0.26520000  0.80550000  1.0 -0.0416395954
C  C302  1  0.93230000  0.28450000  0.83930000  1.0 -0.0223367
C  C303  1  0.89960000  0.30050000  0.85280000  1.0 -0.0881719728
C  C304  1  0.86650000  0.29720000  0.83260000  1.0 -0.0881719728
C  C305  1  0.97350000  0.30050000  0.98060000  1.0 -0.1322866752
C  C306  1  0.86710000  0.26210000  0.80010000  1.0 0.0375456221
C  C307  1  0.89720000  0.24310000  0.78450000  1.0 -0.0596329413
C  C308  1  0.92960000  0.23770000  0.80520000  1.0 -0.1021536343
C  C309  1  0.93190000  0.25130000  0.84160000  1.0 0.0172896381
C  C310  1  0.90180000  0.27030000  0.85720000  1.0 -0.0819781289
C  C311  1  0.86940000  0.27570000  0.83650000  1.0 -0.0819781289
C  C312  1  0.96750000  0.24260000  0.86360000  1.0 0.0506834101
C  C313  1  0.96710000  0.23680000  0.90190000  1.0 -0.1867803114
C  C314  1  0.83230000  0.26950000  0.77730000  1.0 0.3707347317
C  C315  1  0.97180000  0.22230000  0.98050000  1.0 -0.1322866752
C  C316  1  0.17090000  0.72970000  0.77990000  1.0 0.3934237765
C  C317  1  0.02720000  0.74000000  0.98030000  1.0 -0.0333234673
C  C318  1  0.03280000  0.71960000  0.86210000  1.0 0.0635202503
C  C319  1  0.03300000  0.72090000  0.90080000  1.0 -0.1801500534
C  C320  1  0.13370000  0.72210000  0.79890000  1.0 0.0313174508
C  C321  1  0.10100000  0.73810000  0.78530000  1.0 -0.0333234673
C  C322  1  0.06800000  0.73480000  0.80550000  1.0 -0.0416395954
C  C323  1  0.06770000  0.71550000  0.83930000  1.0 -0.0223367
C  C324  1  0.10040000  0.69950000  0.85280000  1.0 -0.0881719728
C  C325  1  0.13350000  0.70280000  0.83260000  1.0 -0.0881719728
C  C326  1  0.02650000  0.69950000  0.98060000  1.0 -0.1322866752
C  C327  1  0.13290000  0.73790000  0.80010000  1.0 0.0375456221
C  C328  1  0.10280000  0.75690000  0.78450000  1.0 -0.0596329413
C  C329  1  0.07040000  0.76230000  0.80520000  1.0 -0.1021536343
C  C330  1  0.06810000  0.74870000  0.84160000  1.0 0.0172896381
C  C331  1  0.09820000  0.72970000  0.85720000  1.0 -0.0819781289
C  C332  1  0.13060000  0.72430000  0.83650000  1.0 -0.0819781289
C  C333  1  0.03250000  0.75740000  0.86360000  1.0 0.0506834101
C  C334  1  0.03290000  0.76320000  0.90190000  1.0 -0.1867803114
C  C335  1  0.16770000  0.73050000  0.77730000  1.0 0.3707347317
C  C336  1  0.02820000  0.77770000  0.98050000  1.0 -0.1322866752
C  C337  1  0.72970000  0.77990000  0.17090000  1.0 0.3934237765
C  C338  1  0.74000000  0.98030000  0.02720000  1.0 -0.0416395954
C  C339  1  0.71960000  0.86210000  0.03280000  1.0 0.0635202503
C  C340  1  0.72090000  0.90080000  0.03300000  1.0 -0.1801500534
C  C341  1  0.72210000  0.79890000  0.13370000  1.0 0.0313174508
C  C342  1  0.73810000  0.78530000  0.10100000  1.0 -0.0333234673
C  C343  1  0.73480000  0.80550000  0.06800000  1.0 -0.0416395954
C  C344  1  0.71550000  0.83930000  0.06770000  1.0 -0.0223367
C  C345  1  0.69950000  0.85280000  0.10040000  1.0 -0.0881719728
C  C346  1  0.70280000  0.83260000  0.13350000  1.0 -0.0881719728
C  C347  1  0.69950000  0.98060000  0.02650000  1.0 -0.1322866752
C  C348  1  0.73790000  0.80010000  0.13290000  1.0 0.0375456221
C  C349  1  0.75690000  0.78450000  0.10280000  1.0 -0.0596329413
C  C350  1  0.76230000  0.80520000  0.07040000  1.0 -0.1021536343
C  C351  1  0.74870000  0.84160000  0.06810000  1.0 0.0172896381
C  C352  1  0.72970000  0.85720000  0.09820000  1.0 -0.0819781289
C  C353  1  0.72430000  0.83650000  0.13060000  1.0 -0.0819781289
C  C354  1  0.75740000  0.86360000  0.03250000  1.0 0.0506834101
C  C355  1  0.76320000  0.90190000  0.03290000  1.0 -0.1867803114
C  C356  1  0.73050000  0.77730000  0.16770000  1.0 0.3707347317
C  C357  1  0.77770000  0.98050000  0.02820000  1.0 -0.1322866752
C  C358  1  0.27030000  0.77990000  0.82910000  1.0 0.3934237765
C  C359  1  0.26000000  0.98030000  0.97280000  1.0 -0.0333234673
C  C360  1  0.28040000  0.86210000  0.96720000  1.0 0.0635202503
C  C361  1  0.27910000  0.90080000  0.96700000  1.0 -0.1801500534
C  C362  1  0.27790000  0.79890000  0.86630000  1.0 0.0313174508
C  C363  1  0.26190000  0.78530000  0.89900000  1.0 -0.0333234673
C  C364  1  0.26520000  0.80550000  0.93200000  1.0 -0.0416395954
C  C365  1  0.28450000  0.83930000  0.93230000  1.0 -0.0223367
C  C366  1  0.30050000  0.85280000  0.89960000  1.0 -0.0881719728
C  C367  1  0.29720000  0.83260000  0.86650000  1.0 -0.0881719728
C  C368  1  0.30050000  0.98060000  0.97350000  1.0 -0.1322866752
C  C369  1  0.26210000  0.80010000  0.86710000  1.0 0.0375456221
C  C370  1  0.24310000  0.78450000  0.89720000  1.0 -0.0596329413
C  C371  1  0.23770000  0.80520000  0.92960000  1.0 -0.1021536343
C  C372  1  0.25130000  0.84160000  0.93190000  1.0 0.0172896381
C  C373  1  0.27030000  0.85720000  0.90180000  1.0 -0.0819781289
C  C374  1  0.27570000  0.83650000  0.86940000  1.0 -0.0819781289
C  C375  1  0.24260000  0.86360000  0.96750000  1.0 0.0506834101
C  C376  1  0.23680000  0.90190000  0.96710000  1.0 -0.1867803114
C  C377  1  0.26950000  0.77730000  0.83230000  1.0 0.3707347317
C  C378  1  0.22230000  0.98050000  0.97180000  1.0 -0.1322866752
C  C379  1  0.27030000  0.22010000  0.17090000  1.0 0.3934237765
C  C380  1  0.26000000  0.01970000  0.02720000  1.0 -0.0333234673
C  C381  1  0.28040000  0.13790000  0.03280000  1.0 0.0635202503
C  C382  1  0.27910000  0.09920000  0.03300000  1.0 -0.1801500534
C  C383  1  0.27790000  0.20110000  0.13370000  1.0 0.0313174508
C  C384  1  0.26190000  0.21470000  0.10100000  1.0 -0.0333234673
C  C385  1  0.26520000  0.19450000  0.06800000  1.0 -0.0416395954
C  C386  1  0.28450000  0.16070000  0.06770000  1.0 -0.0223367
C  C387  1  0.30050000  0.14720000  0.10040000  1.0 -0.0881719728
C  C388  1  0.29720000  0.16740000  0.13350000  1.0 -0.0881719728
C  C389  1  0.30050000  0.01940000  0.02650000  1.0 -0.1322866752
C  C390  1  0.26210000  0.19990000  0.13290000  1.0 0.0375456221
C  C391  1  0.24310000  0.21550000  0.10280000  1.0 -0.0596329413
C  C392  1  0.23770000  0.19480000  0.07040000  1.0 -0.1021536343
C  C393  1  0.25130000  0.15840000  0.06810000  1.0 0.0172896381
C  C394  1  0.27030000  0.14280000  0.09820000  1.0 -0.0819781289
C  C395  1  0.27570000  0.16350000  0.13060000  1.0 -0.0819781289
C  C396  1  0.24260000  0.13640000  0.03250000  1.0 0.0506834101
C  C397  1  0.23680000  0.09810000  0.03290000  1.0 -0.1867803114
C  C398  1  0.26950000  0.22270000  0.16770000  1.0 0.3707347317
C  C399  1  0.22230000  0.01950000  0.02820000  1.0 -0.1322866752
C  C400  1  0.72970000  0.22010000  0.82910000  1.0 0.3961464611
C  C401  1  0.74000000  0.01970000  0.97280000  1.0 -0.0333234673
C  C402  1  0.71960000  0.13790000  0.96720000  1.0 0.0727617963
C  C403  1  0.72090000  0.09920000  0.96700000  1.0 -0.1801500534
C  C404  1  0.72210000  0.20110000  0.86630000  1.0 0.0313174508
C  C405  1  0.73810000  0.21470000  0.89900000  1.0 -0.0333234673
C  C406  1  0.73480000  0.19450000  0.93200000  1.0 -0.0416395954
C  C407  1  0.71550000  0.16070000  0.93230000  1.0 -0.0223367
C  C408  1  0.69950000  0.14720000  0.89960000  1.0 -0.0881719728
C  C409  1  0.70280000  0.16740000  0.86650000  1.0 -0.0881719728
C  C410  1  0.69950000  0.01940000  0.97350000  1.0 -0.1322866752
C  C411  1  0.73790000  0.19990000  0.86710000  1.0 0.0375456221
C  C412  1  0.75690000  0.21550000  0.89720000  1.0 -0.0596329413
C  C413  1  0.76230000  0.19480000  0.92960000  1.0 -0.1021536343
C  C414  1  0.74870000  0.15840000  0.93190000  1.0 0.0172896381
C  C415  1  0.72970000  0.14280000  0.90180000  1.0 -0.0819781289
C  C416  1  0.72430000  0.16350000  0.86940000  1.0 -0.0819781289
C  C417  1  0.75740000  0.13640000  0.96750000  1.0 0.0506834101
C  C418  1  0.76320000  0.09810000  0.96710000  1.0 -0.1867803114
C  C419  1  0.73050000  0.22270000  0.83230000  1.0 0.3707347317
C  C420  1  0.77770000  0.01950000  0.97180000  1.0 -0.1322866752
C  C421  1  0.77990000  0.82910000  0.27030000  1.0 0.3961464611
C  C422  1  0.98030000  0.97280000  0.26000000  1.0 -0.0333234673
C  C423  1  0.86210000  0.96720000  0.28040000  1.0 0.0727617963
C  C424  1  0.90080000  0.96700000  0.27910000  1.0 -0.1801500534
C  C425  1  0.79890000  0.86630000  0.27790000  1.0 0.0313174508
C  C426  1  0.78530000  0.89900000  0.26190000  1.0 -0.0333234673
C  C427  1  0.80550000  0.93200000  0.26520000  1.0 -0.0416395954
C  C428  1  0.83930000  0.93230000  0.28450000  1.0 -0.0223367
C  C429  1  0.85280000  0.89960000  0.30050000  1.0 -0.0881719728
C  C430  1  0.83260000  0.86650000  0.29720000  1.0 -0.0881719728
C  C431  1  0.98060000  0.97350000  0.30050000  1.0 -0.1322866752
C  C432  1  0.80010000  0.86710000  0.26210000  1.0 0.0375456221
C  C433  1  0.78450000  0.89720000  0.24310000  1.0 -0.0596329413
C  C434  1  0.80520000  0.92960000  0.23770000  1.0 -0.1021536343
C  C435  1  0.84160000  0.93190000  0.25130000  1.0 0.0172896381
C  C436  1  0.85720000  0.90180000  0.27030000  1.0 -0.0819781289
C  C437  1  0.83650000  0.86940000  0.27570000  1.0 -0.0819781289
C  C438  1  0.86360000  0.96750000  0.24260000  1.0 0.0506834101
C  C439  1  0.90190000  0.96710000  0.23680000  1.0 -0.1867803114
C  C440  1  0.77730000  0.83230000  0.26950000  1.0 0.3707347317
C  C441  1  0.98050000  0.97180000  0.22230000  1.0 -0.1322866752
C  C442  1  0.77990000  0.17090000  0.72970000  1.0 0.3961464611
C  C443  1  0.98030000  0.02720000  0.74000000  1.0 -0.0333234673
C  C444  1  0.86210000  0.03280000  0.71960000  1.0 0.0727617963
C  C445  1  0.90080000  0.03300000  0.72090000  1.0 -0.1801500534
C  C446  1  0.79890000  0.13370000  0.72210000  1.0 0.0313174508
C  C447  1  0.78530000  0.10100000  0.73810000  1.0 -0.0333234673
C  C448  1  0.80550000  0.06800000  0.73480000  1.0 -0.0416395954
C  C449  1  0.83930000  0.06770000  0.71550000  1.0 -0.0223367
C  C450  1  0.85280000  0.10040000  0.69950000  1.0 -0.0881719728
C  C451  1  0.83260000  0.13350000  0.70280000  1.0 -0.0881719728
C  C452  1  0.98060000  0.02650000  0.69950000  1.0 -0.1322866752
C  C453  1  0.80010000  0.13290000  0.73790000  1.0 0.0375456221
C  C454  1  0.78450000  0.10280000  0.75690000  1.0 -0.0596329413
C  C455  1  0.80520000  0.07040000  0.76230000  1.0 -0.1021536343
C  C456  1  0.84160000  0.06810000  0.74870000  1.0 0.0172896381
C  C457  1  0.85720000  0.09820000  0.72970000  1.0 -0.0819781289
C  C458  1  0.83650000  0.13060000  0.72430000  1.0 -0.0819781289
C  C459  1  0.86360000  0.03250000  0.75740000  1.0 0.0506834101
C  C460  1  0.90190000  0.03290000  0.76320000  1.0 -0.1867803114
C  C461  1  0.77730000  0.16770000  0.73050000  1.0 0.3707347317
C  C462  1  0.98050000  0.02820000  0.77770000  1.0 -0.1322866752
C  C463  1  0.22010000  0.82910000  0.72970000  1.0 0.3934237765
C  C464  1  0.01970000  0.97280000  0.74000000  1.0 -0.0333234673
C  C465  1  0.13790000  0.96720000  0.71960000  1.0 0.0635202503
C  C466  1  0.09920000  0.96700000  0.72090000  1.0 -0.1801500534
C  C467  1  0.20110000  0.86630000  0.72210000  1.0 0.0313174508
C  C468  1  0.21470000  0.89900000  0.73810000  1.0 -0.0333234673
C  C469  1  0.19450000  0.93200000  0.73480000  1.0 -0.0416395954
C  C470  1  0.16070000  0.93230000  0.71550000  1.0 -0.0223367
C  C471  1  0.14720000  0.89960000  0.69950000  1.0 -0.0881719728
C  C472  1  0.16740000  0.86650000  0.70280000  1.0 -0.0881719728
C  C473  1  0.01940000  0.97350000  0.69950000  1.0 -0.1322866752
C  C474  1  0.19990000  0.86710000  0.73790000  1.0 0.0375456221
C  C475  1  0.21550000  0.89720000  0.75690000  1.0 -0.0596329413
C  C476  1  0.19480000  0.92960000  0.76230000  1.0 -0.1021536343
C  C477  1  0.15840000  0.93190000  0.74870000  1.0 0.0172896381
C  C478  1  0.14280000  0.90180000  0.72970000  1.0 -0.0819781289
C  C479  1  0.16350000  0.86940000  0.72430000  1.0 -0.0819781289
C  C480  1  0.13640000  0.96750000  0.75740000  1.0 0.0506834101
C  C481  1  0.09810000  0.96710000  0.76320000  1.0 -0.1867803114
C  C482  1  0.22270000  0.83230000  0.73050000  1.0 0.3707347317
C  C483  1  0.01950000  0.97180000  0.77770000  1.0 -0.1322866752
C  C484  1  0.22010000  0.17090000  0.27030000  1.0 0.3934237765
C  C485  1  0.01970000  0.02720000  0.26000000  1.0 -0.0333234673
C  C486  1  0.13790000  0.03280000  0.28040000  1.0 0.0635202503
C  C487  1  0.09920000  0.03300000  0.27910000  1.0 -0.1801500534
C  C488  1  0.20110000  0.13370000  0.27790000  1.0 0.0313174508
C  C489  1  0.21470000  0.10100000  0.26190000  1.0 -0.0333234673
C  C490  1  0.19450000  0.06800000  0.26520000  1.0 -0.0416395954
C  C491  1  0.16070000  0.06770000  0.28450000  1.0 -0.0223367
C  C492  1  0.14720000  0.10040000  0.30050000  1.0 -0.0881719728
C  C493  1  0.16740000  0.13350000  0.29720000  1.0 -0.0881719728
C  C494  1  0.01940000  0.02650000  0.30050000  1.0 -0.1322866752
C  C495  1  0.19990000  0.13290000  0.26210000  1.0 0.0375456221
C  C496  1  0.21550000  0.10280000  0.24310000  1.0 -0.0596329413
C  C497  1  0.19480000  0.07040000  0.23770000  1.0 -0.1021536343
C  C498  1  0.15840000  0.06810000  0.25130000  1.0 0.0172896381
C  C499  1  0.14280000  0.09820000  0.27030000  1.0 -0.0819781289
C  C500  1  0.16350000  0.13060000  0.27570000  1.0 -0.0819781289
C  C501  1  0.13640000  0.03250000  0.24260000  1.0 0.0506834101
C  C502  1  0.09810000  0.03290000  0.23680000  1.0 -0.1867803114
C  C503  1  0.22270000  0.16770000  0.26950000  1.0 0.3707347317
C  C504  1  0.01950000  0.02820000  0.22230000  1.0 -0.1322866752
C  C505  1  0.77030000  0.67090000  0.72010000  1.0 0.3961464611
C  C506  1  0.76000000  0.52720000  0.51970000  1.0 -0.0333234673
C  C507  1  0.78040000  0.53280000  0.63790000  1.0 0.0727617963
C  C508  1  0.77910000  0.53300000  0.59920000  1.0 -0.1801500534
C  C509  1  0.77790000  0.63370000  0.70110000  1.0 0.0313174508
C  C510  1  0.76190000  0.60100000  0.71470000  1.0 -0.0333234673
C  C511  1  0.76520000  0.56800000  0.69450000  1.0 -0.0416395954
C  C512  1  0.78450000  0.56770000  0.66070000  1.0 -0.0223367
C  C513  1  0.80050000  0.60040000  0.64720000  1.0 -0.0881719728
C  C514  1  0.79720000  0.63350000  0.66740000  1.0 -0.0881719728
C  C515  1  0.80050000  0.52650000  0.51940000  1.0 -0.1322866752
C  C516  1  0.76210000  0.63290000  0.69990000  1.0 0.0375456221
C  C517  1  0.74310000  0.60280000  0.71550000  1.0 -0.0596329413
C  C518  1  0.73770000  0.57040000  0.69480000  1.0 -0.1021536343
C  C519  1  0.75130000  0.56810000  0.65840000  1.0 0.0172896381
C  C520  1  0.77030000  0.59820000  0.64280000  1.0 -0.0819781289
C  C521  1  0.77570000  0.63060000  0.66350000  1.0 -0.0819781289
C  C522  1  0.74260000  0.53250000  0.63640000  1.0 0.0506834101
C  C523  1  0.73680000  0.53290000  0.59810000  1.0 -0.1867803114
C  C524  1  0.76950000  0.66770000  0.72270000  1.0 0.3707347317
C  C525  1  0.72230000  0.52820000  0.51950000  1.0 -0.1322866752
C  C526  1  0.22970000  0.32910000  0.72010000  1.0 0.3934237765
C  C527  1  0.24000000  0.47280000  0.51970000  1.0 -0.0333234673
C  C528  1  0.21960000  0.46720000  0.63790000  1.0 0.0635202503
C  C529  1  0.22090000  0.46700000  0.59920000  1.0 -0.1801500534
C  C530  1  0.22210000  0.36630000  0.70110000  1.0 0.0313174508
C  C531  1  0.23810000  0.39900000  0.71470000  1.0 -0.0333234673
C  C532  1  0.23480000  0.43200000  0.69450000  1.0 -0.0416395954
C  C533  1  0.21550000  0.43230000  0.66070000  1.0 -0.0223367
C  C534  1  0.19950000  0.39960000  0.64720000  1.0 -0.0881719728
C  C535  1  0.20280000  0.36650000  0.66740000  1.0 -0.0881719728
C  C536  1  0.19950000  0.47350000  0.51940000  1.0 -0.1322866752
C  C537  1  0.23790000  0.36710000  0.69990000  1.0 0.0375456221
C  C538  1  0.25690000  0.39720000  0.71550000  1.0 -0.0596329413
C  C539  1  0.26230000  0.42960000  0.69480000  1.0 -0.1021536343
C  C540  1  0.24870000  0.43190000  0.65840000  1.0 0.0172896381
C  C541  1  0.22970000  0.40180000  0.64280000  1.0 -0.0819781289
C  C542  1  0.22430000  0.36940000  0.66350000  1.0 -0.0819781289
C  C543  1  0.25740000  0.46750000  0.63640000  1.0 0.0506834101
C  C544  1  0.26320000  0.46710000  0.59810000  1.0 -0.1867803114
C  C545  1  0.23050000  0.33230000  0.72270000  1.0 0.3707347317
C  C546  1  0.27770000  0.47180000  0.51950000  1.0 -0.1322866752
C  C547  1  0.22970000  0.67090000  0.27990000  1.0 0.3934237765
C  C548  1  0.24000000  0.52720000  0.48030000  1.0 -0.0333234673
C  C549  1  0.21960000  0.53280000  0.36210000  1.0 0.0635202503
C  C550  1  0.22090000  0.53300000  0.40080000  1.0 -0.1801500534
C  C551  1  0.22210000  0.63370000  0.29890000  1.0 0.0313174508
C  C552  1  0.23810000  0.60100000  0.28530000  1.0 -0.0333234673
C  C553  1  0.23480000  0.56800000  0.30550000  1.0 -0.0416395954
C  C554  1  0.21550000  0.56770000  0.33930000  1.0 -0.0223367
C  C555  1  0.19950000  0.60040000  0.35280000  1.0 -0.0881719728
C  C556  1  0.20280000  0.63350000  0.33260000  1.0 -0.0881719728
C  C557  1  0.19950000  0.52650000  0.48060000  1.0 -0.1322866752
C  C558  1  0.23790000  0.63290000  0.30010000  1.0 0.0375456221
C  C559  1  0.25690000  0.60280000  0.28450000  1.0 -0.0596329413
C  C560  1  0.26230000  0.57040000  0.30520000  1.0 -0.1021536343
C  C561  1  0.24870000  0.56810000  0.34160000  1.0 0.0172896381
C  C562  1  0.22970000  0.59820000  0.35720000  1.0 -0.0819781289
C  C563  1  0.22430000  0.63060000  0.33650000  1.0 -0.0819781289
C  C564  1  0.25740000  0.53250000  0.36360000  1.0 0.0506834101
C  C565  1  0.26320000  0.53290000  0.40190000  1.0 -0.1867803114
C  C566  1  0.23050000  0.66770000  0.27730000  1.0 0.3707347317
C  C567  1  0.27770000  0.52820000  0.48050000  1.0 -0.1322866752
C  C568  1  0.77030000  0.32910000  0.27990000  1.0 0.3961464611
C  C569  1  0.76000000  0.47280000  0.48030000  1.0 -0.0333234673
C  C570  1  0.78040000  0.46720000  0.36210000  1.0 0.0635202503
C  C571  1  0.77910000  0.46700000  0.40080000  1.0 -0.1801500534
C  C572  1  0.77790000  0.36630000  0.29890000  1.0 0.0313174508
C  C573  1  0.76190000  0.39900000  0.28530000  1.0 -0.0333234673
C  C574  1  0.76520000  0.43200000  0.30550000  1.0 -0.0416395954
C  C575  1  0.78450000  0.43230000  0.33930000  1.0 -0.0223367
C  C576  1  0.80050000  0.39960000  0.35280000  1.0 -0.0881719728
C  C577  1  0.79720000  0.36650000  0.33260000  1.0 -0.0881719728
C  C578  1  0.80050000  0.47350000  0.48060000  1.0 -0.1322866752
C  C579  1  0.76210000  0.36710000  0.30010000  1.0 0.0375456221
C  C580  1  0.74310000  0.39720000  0.28450000  1.0 -0.0596329413
C  C581  1  0.73770000  0.42960000  0.30520000  1.0 -0.1021536343
C  C582  1  0.75130000  0.43190000  0.34160000  1.0 0.0172896381
C  C583  1  0.77030000  0.40180000  0.35720000  1.0 -0.0819781289
C  C584  1  0.77570000  0.36940000  0.33650000  1.0 -0.0819781289
C  C585  1  0.74260000  0.46750000  0.36360000  1.0 0.0506834101
C  C586  1  0.73680000  0.46710000  0.40190000  1.0 -0.1867803114
C  C587  1  0.76950000  0.33230000  0.27730000  1.0 0.3707347317
C  C588  1  0.72230000  0.47180000  0.48050000  1.0 -0.1322866752
C  C589  1  0.72010000  0.77030000  0.67090000  1.0 0.3934237765
C  C590  1  0.51970000  0.76000000  0.52720000  1.0 -0.0333234673
C  C591  1  0.63790000  0.78040000  0.53280000  1.0 0.0727617963
C  C592  1  0.59920000  0.77910000  0.53300000  1.0 -0.1801500534
C  C593  1  0.70110000  0.77790000  0.63370000  1.0 0.0313174508
C  C594  1  0.71470000  0.76190000  0.60100000  1.0 -0.0333234673
C  C595  1  0.69450000  0.76520000  0.56800000  1.0 -0.0416395954
C  C596  1  0.66070000  0.78450000  0.56770000  1.0 -0.0223367
C  C597  1  0.64720000  0.80050000  0.60040000  1.0 -0.0881719728
C  C598  1  0.66740000  0.79720000  0.63350000  1.0 -0.0881719728
C  C599  1  0.51940000  0.80050000  0.52650000  1.0 -0.1322866752
C  C600  1  0.69990000  0.76210000  0.63290000  1.0 0.0375456221
C  C601  1  0.71550000  0.74310000  0.60280000  1.0 -0.0596329413
C  C602  1  0.69480000  0.73770000  0.57040000  1.0 -0.1021536343
C  C603  1  0.65840000  0.75130000  0.56810000  1.0 0.0172896381
C  C604  1  0.64280000  0.77030000  0.59820000  1.0 -0.0819781289
C  C605  1  0.66350000  0.77570000  0.63060000  1.0 -0.0819781289
C  C606  1  0.63640000  0.74260000  0.53250000  1.0 0.0506834101
C  C607  1  0.59810000  0.73680000  0.53290000  1.0 -0.1867803114
C  C608  1  0.72270000  0.76950000  0.66770000  1.0 0.3707347317
C  C609  1  0.51950000  0.72230000  0.52820000  1.0 -0.1322866752
C  C610  1  0.72010000  0.22970000  0.32910000  1.0 0.3961464611
C  C611  1  0.51970000  0.24000000  0.47280000  1.0 -0.0333234673
C  C612  1  0.63790000  0.21960000  0.46720000  1.0 0.0635202503
C  C613  1  0.59920000  0.22090000  0.46700000  1.0 -0.1801500534
C  C614  1  0.70110000  0.22210000  0.36630000  1.0 0.0313174508
C  C615  1  0.71470000  0.23810000  0.39900000  1.0 -0.0333234673
C  C616  1  0.69450000  0.23480000  0.43200000  1.0 -0.0416395954
C  C617  1  0.66070000  0.21550000  0.43230000  1.0 -0.0223367
C  C618  1  0.64720000  0.19950000  0.39960000  1.0 -0.0881719728
C  C619  1  0.66740000  0.20280000  0.36650000  1.0 -0.0881719728
C  C620  1  0.51940000  0.19950000  0.47350000  1.0 -0.1322866752
C  C621  1  0.69990000  0.23790000  0.36710000  1.0 0.0375456221
C  C622  1  0.71550000  0.25690000  0.39720000  1.0 -0.0596329413
C  C623  1  0.69480000  0.26230000  0.42960000  1.0 -0.1021536343
C  C624  1  0.65840000  0.24870000  0.43190000  1.0 0.0172896381
C  C625  1  0.64280000  0.22970000  0.40180000  1.0 -0.0819781289
C  C626  1  0.66350000  0.22430000  0.36940000  1.0 -0.0819781289
C  C627  1  0.63640000  0.25740000  0.46750000  1.0 0.0506834101
C  C628  1  0.59810000  0.26320000  0.46710000  1.0 -0.1867803114
C  C629  1  0.72270000  0.23050000  0.33230000  1.0 0.3707347317
C  C630  1  0.51950000  0.27770000  0.47180000  1.0 -0.1322866752
C  C631  1  0.27990000  0.22970000  0.67090000  1.0 0.3934237765
C  C632  1  0.48030000  0.24000000  0.52720000  1.0 -0.0333234673
C  C633  1  0.36210000  0.21960000  0.53280000  1.0 0.0635202503
C  C634  1  0.40080000  0.22090000  0.53300000  1.0 -0.1801500534
C  C635  1  0.29890000  0.22210000  0.63370000  1.0 0.0313174508
C  C636  1  0.28530000  0.23810000  0.60100000  1.0 -0.0333234673
C  C637  1  0.30550000  0.23480000  0.56800000  1.0 -0.0416395954
C  C638  1  0.33930000  0.21550000  0.56770000  1.0 -0.0223367
C  C639  1  0.35280000  0.19950000  0.60040000  1.0 -0.0881719728
C  C640  1  0.33260000  0.20280000  0.63350000  1.0 -0.0881719728
C  C641  1  0.48060000  0.19950000  0.52650000  1.0 -0.1322866752
C  C642  1  0.30010000  0.23790000  0.63290000  1.0 0.0375456221
C  C643  1  0.28450000  0.25690000  0.60280000  1.0 -0.0596329413
C  C644  1  0.30520000  0.26230000  0.57040000  1.0 -0.1021536343
C  C645  1  0.34160000  0.24870000  0.56810000  1.0 0.0172896381
C  C646  1  0.35720000  0.22970000  0.59820000  1.0 -0.0819781289
C  C647  1  0.33650000  0.22430000  0.63060000  1.0 -0.0819781289
C  C648  1  0.36360000  0.25740000  0.53250000  1.0 0.0506834101
C  C649  1  0.40190000  0.26320000  0.53290000  1.0 -0.1867803114
C  C650  1  0.27730000  0.23050000  0.66770000  1.0 0.3707347317
C  C651  1  0.48050000  0.27770000  0.52820000  1.0 -0.1322866752
C  C652  1  0.27990000  0.77030000  0.32910000  1.0 0.3934237765
C  C653  1  0.48030000  0.76000000  0.47280000  1.0 -0.0333234673
C  C654  1  0.36210000  0.78040000  0.46720000  1.0 0.0635202503
C  C655  1  0.40080000  0.77910000  0.46700000  1.0 -0.1801500534
C  C656  1  0.29890000  0.77790000  0.36630000  1.0 0.0313174508
C  C657  1  0.28530000  0.76190000  0.39900000  1.0 -0.0333234673
C  C658  1  0.30550000  0.76520000  0.43200000  1.0 -0.0416395954
C  C659  1  0.33930000  0.78450000  0.43230000  1.0 -0.0223367
C  C660  1  0.35280000  0.80050000  0.39960000  1.0 -0.0881719728
C  C661  1  0.33260000  0.79720000  0.36650000  1.0 -0.0881719728
C  C662  1  0.48060000  0.80050000  0.47350000  1.0 -0.1322866752
C  C663  1  0.30010000  0.76210000  0.36710000  1.0 0.0375456221
C  C664  1  0.28450000  0.74310000  0.39720000  1.0 -0.0596329413
C  C665  1  0.30520000  0.73770000  0.42960000  1.0 -0.1021536343
C  C666  1  0.34160000  0.75130000  0.43190000  1.0 0.0172896381
C  C667  1  0.35720000  0.77030000  0.40180000  1.0 -0.0819781289
C  C668  1  0.33650000  0.77570000  0.36940000  1.0 -0.0819781289
C  C669  1  0.36360000  0.74260000  0.46750000  1.0 0.0506834101
C  C670  1  0.40190000  0.73680000  0.46710000  1.0 -0.1867803114
C  C671  1  0.27730000  0.76950000  0.33230000  1.0 0.3707347317
C  C672  1  0.48050000  0.72230000  0.47180000  1.0 -0.1322866752
C  C673  1  0.67090000  0.72010000  0.77030000  1.0 0.3934237765
C  C674  1  0.52720000  0.51970000  0.76000000  1.0 -0.0333234673
C  C675  1  0.53280000  0.63790000  0.78040000  1.0 0.0727617963
C  C676  1  0.53300000  0.59920000  0.77910000  1.0 -0.1801500534
C  C677  1  0.63370000  0.70110000  0.77790000  1.0 0.0313174508
C  C678  1  0.60100000  0.71470000  0.76190000  1.0 -0.0333234673
C  C679  1  0.56800000  0.69450000  0.76520000  1.0 -0.0416395954
C  C680  1  0.56770000  0.66070000  0.78450000  1.0 -0.0223367
C  C681  1  0.60040000  0.64720000  0.80050000  1.0 -0.0881719728
C  C682  1  0.63350000  0.66740000  0.79720000  1.0 -0.0881719728
C  C683  1  0.52650000  0.51940000  0.80050000  1.0 -0.1322866752
C  C684  1  0.63290000  0.69990000  0.76210000  1.0 0.0375456221
C  C685  1  0.60280000  0.71550000  0.74310000  1.0 -0.0596329413
C  C686  1  0.57040000  0.69480000  0.73770000  1.0 -0.1021536343
C  C687  1  0.56810000  0.65840000  0.75130000  1.0 0.0172896381
C  C688  1  0.59820000  0.64280000  0.77030000  1.0 -0.0819781289
C  C689  1  0.63060000  0.66350000  0.77570000  1.0 -0.0819781289
C  C690  1  0.53250000  0.63640000  0.74260000  1.0 0.0506834101
C  C691  1  0.53290000  0.59810000  0.73680000  1.0 -0.1867803114
C  C692  1  0.66770000  0.72270000  0.76950000  1.0 0.3707347317
C  C693  1  0.52820000  0.51950000  0.72230000  1.0 -0.1322866752
C  C694  1  0.32910000  0.72010000  0.22970000  1.0 0.3934237765
C  C695  1  0.47280000  0.51970000  0.24000000  1.0 -0.0333234673
C  C696  1  0.46720000  0.63790000  0.21960000  1.0 0.0635202503
C  C697  1  0.46700000  0.59920000  0.22090000  1.0 -0.1801500534
C  C698  1  0.36630000  0.70110000  0.22210000  1.0 0.0313174508
C  C699  1  0.39900000  0.71470000  0.23810000  1.0 -0.0333234673
C  C700  1  0.43200000  0.69450000  0.23480000  1.0 -0.0416395954
C  C701  1  0.43230000  0.66070000  0.21550000  1.0 -0.0223367
C  C702  1  0.39960000  0.64720000  0.19950000  1.0 -0.0881719728
C  C703  1  0.36650000  0.66740000  0.20280000  1.0 -0.0881719728
C  C704  1  0.47350000  0.51940000  0.19950000  1.0 -0.1322866752
C  C705  1  0.36710000  0.69990000  0.23790000  1.0 0.0375456221
C  C706  1  0.39720000  0.71550000  0.25690000  1.0 -0.0596329413
C  C707  1  0.42960000  0.69480000  0.26230000  1.0 -0.1021536343
C  C708  1  0.43190000  0.65840000  0.24870000  1.0 0.0172896381
C  C709  1  0.40180000  0.64280000  0.22970000  1.0 -0.0819781289
C  C710  1  0.36940000  0.66350000  0.22430000  1.0 -0.0819781289
C  C711  1  0.46750000  0.63640000  0.25740000  1.0 0.0506834101
C  C712  1  0.46710000  0.59810000  0.26320000  1.0 -0.1867803114
C  C713  1  0.33230000  0.72270000  0.23050000  1.0 0.3707347317
C  C714  1  0.47180000  0.51950000  0.27770000  1.0 -0.1322866752
C  C715  1  0.67090000  0.27990000  0.22970000  1.0 0.3961464611
C  C716  1  0.52720000  0.48030000  0.24000000  1.0 -0.0333234673
C  C717  1  0.53280000  0.36210000  0.21960000  1.0 0.0635202503
C  C718  1  0.53300000  0.40080000  0.22090000  1.0 -0.1801500534
C  C719  1  0.63370000  0.29890000  0.22210000  1.0 0.0313174508
C  C720  1  0.60100000  0.28530000  0.23810000  1.0 -0.0333234673
C  C721  1  0.56800000  0.30550000  0.23480000  1.0 -0.0416395954
C  C722  1  0.56770000  0.33930000  0.21550000  1.0 -0.0223367
C  C723  1  0.60040000  0.35280000  0.19950000  1.0 -0.0881719728
C  C724  1  0.63350000  0.33260000  0.20280000  1.0 -0.0881719728
C  C725  1  0.52650000  0.48060000  0.19950000  1.0 -0.1322866752
C  C726  1  0.63290000  0.30010000  0.23790000  1.0 0.0375456221
C  C727  1  0.60280000  0.28450000  0.25690000  1.0 -0.0596329413
C  C728  1  0.57040000  0.30520000  0.26230000  1.0 -0.1021536343
C  C729  1  0.56810000  0.34160000  0.24870000  1.0 0.0172896381
C  C730  1  0.59820000  0.35720000  0.22970000  1.0 -0.0819781289
C  C731  1  0.63060000  0.33650000  0.22430000  1.0 -0.0819781289
C  C732  1  0.53250000  0.36360000  0.25740000  1.0 0.0506834101
C  C733  1  0.53290000  0.40190000  0.26320000  1.0 -0.1867803114
C  C734  1  0.66770000  0.27730000  0.23050000  1.0 0.3707347317
C  C735  1  0.52820000  0.48050000  0.27770000  1.0 -0.1322866752
C  C736  1  0.32910000  0.27990000  0.77030000  1.0 0.3934237765
C  C737  1  0.47280000  0.48030000  0.76000000  1.0 -0.0333234673
C  C738  1  0.46720000  0.36210000  0.78040000  1.0 0.0635202503
C  C739  1  0.46700000  0.40080000  0.77910000  1.0 -0.1801500534
C  C740  1  0.36630000  0.29890000  0.77790000  1.0 0.0313174508
C  C741  1  0.39900000  0.28530000  0.76190000  1.0 -0.0333234673
C  C742  1  0.43200000  0.30550000  0.76520000  1.0 -0.0416395954
C  C743  1  0.43230000  0.33930000  0.78450000  1.0 -0.0223367
C  C744  1  0.39960000  0.35280000  0.80050000  1.0 -0.0881719728
C  C745  1  0.36650000  0.33260000  0.79720000  1.0 -0.0881719728
C  C746  1  0.47350000  0.48060000  0.80050000  1.0 -0.1322866752
C  C747  1  0.36710000  0.30010000  0.76210000  1.0 0.0375456221
C  C748  1  0.39720000  0.28450000  0.74310000  1.0 -0.0596329413
C  C749  1  0.42960000  0.30520000  0.73770000  1.0 -0.1021536343
C  C750  1  0.43190000  0.34160000  0.75130000  1.0 0.0172896381
C  C751  1  0.40180000  0.35720000  0.77030000  1.0 -0.0819781289
C  C752  1  0.36940000  0.33650000  0.77570000  1.0 -0.0819781289
C  C753  1  0.46750000  0.36360000  0.74260000  1.0 0.0506834101
C  C754  1  0.46710000  0.40190000  0.73680000  1.0 -0.1867803114
C  C755  1  0.33230000  0.27730000  0.76950000  1.0 0.3707347317
C  C756  1  0.47180000  0.48050000  0.72230000  1.0 -0.1322866752
C  C757  1  0.17090000  0.27030000  0.77990000  1.0 0.3934237765
C  C758  1  0.02720000  0.26000000  0.98030000  1.0 -0.0333234673
C  C759  1  0.03280000  0.28040000  0.86210000  1.0 0.0635202503
C  C760  1  0.03300000  0.27910000  0.90080000  1.0 -0.1801500534
C  C761  1  0.13370000  0.27790000  0.79890000  1.0 0.0313174508
C  C762  1  0.10100000  0.26190000  0.78530000  1.0 -0.0333234673
C  C763  1  0.06800000  0.26520000  0.80550000  1.0 -0.0416395954
C  C764  1  0.06770000  0.28450000  0.83930000  1.0 -0.0223367
C  C765  1  0.10040000  0.30050000  0.85280000  1.0 -0.0881719728
C  C766  1  0.13350000  0.29720000  0.83260000  1.0 -0.0881719728
C  C767  1  0.02650000  0.30050000  0.98060000  1.0 -0.1322866752
C  C768  1  0.13290000  0.26210000  0.80010000  1.0 0.0375456221
C  C769  1  0.10280000  0.24310000  0.78450000  1.0 -0.0596329413
C  C770  1  0.07040000  0.23770000  0.80520000  1.0 -0.1021536343
C  C771  1  0.06810000  0.25130000  0.84160000  1.0 0.0172896381
C  C772  1  0.09820000  0.27030000  0.85720000  1.0 -0.0819781289
C  C773  1  0.13060000  0.27570000  0.83650000  1.0 -0.0819781289
C  C774  1  0.03250000  0.24260000  0.86360000  1.0 0.0506834101
C  C775  1  0.03290000  0.23680000  0.90190000  1.0 -0.1867803114
C  C776  1  0.16770000  0.26950000  0.77730000  1.0 0.3707347317
C  C777  1  0.02820000  0.22230000  0.98050000  1.0 -0.1322866752
C  C778  1  0.82910000  0.72970000  0.77990000  1.0 0.3961464611
C  C779  1  0.97280000  0.74000000  0.98030000  1.0 -0.0333234673
C  C780  1  0.96720000  0.71960000  0.86210000  1.0 0.0727617963
C  C781  1  0.96700000  0.72090000  0.90080000  1.0 -0.1801500534
C  C782  1  0.86630000  0.72210000  0.79890000  1.0 0.0313174508
C  C783  1  0.89900000  0.73810000  0.78530000  1.0 -0.0333234673
C  C784  1  0.93200000  0.73480000  0.80550000  1.0 -0.0416395954
C  C785  1  0.93230000  0.71550000  0.83930000  1.0 -0.0223367
C  C786  1  0.89960000  0.69950000  0.85280000  1.0 -0.0881719728
C  C787  1  0.86650000  0.70280000  0.83260000  1.0 -0.0881719728
C  C788  1  0.97350000  0.69950000  0.98060000  1.0 -0.1322866752
C  C789  1  0.86710000  0.73790000  0.80010000  1.0 0.0375456221
C  C790  1  0.89720000  0.75690000  0.78450000  1.0 -0.0596329413
C  C791  1  0.92960000  0.76230000  0.80520000  1.0 -0.1021536343
C  C792  1  0.93190000  0.74870000  0.84160000  1.0 0.0172896381
C  C793  1  0.90180000  0.72970000  0.85720000  1.0 -0.0819781289
C  C794  1  0.86940000  0.72430000  0.83650000  1.0 -0.0819781289
C  C795  1  0.96750000  0.75740000  0.86360000  1.0 0.0506834101
C  C796  1  0.96710000  0.76320000  0.90190000  1.0 -0.1867803114
C  C797  1  0.83230000  0.73050000  0.77730000  1.0 0.3707347317
C  C798  1  0.97180000  0.77770000  0.98050000  1.0 -0.1322866752
C  C799  1  0.17090000  0.72970000  0.22010000  1.0 0.3934237765
C  C800  1  0.02720000  0.74000000  0.01970000  1.0 -0.0333234673
C  C801  1  0.03280000  0.71960000  0.13790000  1.0 0.0635202503
C  C802  1  0.03300000  0.72090000  0.09920000  1.0 -0.1801500534
C  C803  1  0.13370000  0.72210000  0.20110000  1.0 0.0313174508
C  C804  1  0.10100000  0.73810000  0.21470000  1.0 -0.0333234673
C  C805  1  0.06800000  0.73480000  0.19450000  1.0 -0.0416395954
C  C806  1  0.06770000  0.71550000  0.16070000  1.0 -0.0223367
C  C807  1  0.10040000  0.69950000  0.14720000  1.0 -0.0881719728
C  C808  1  0.13350000  0.70280000  0.16740000  1.0 -0.0881719728
C  C809  1  0.02650000  0.69950000  0.01940000  1.0 -0.1322866752
C  C810  1  0.13290000  0.73790000  0.19990000  1.0 0.0375456221
C  C811  1  0.10280000  0.75690000  0.21550000  1.0 -0.0596329413
C  C812  1  0.07040000  0.76230000  0.19480000  1.0 -0.1021536343
C  C813  1  0.06810000  0.74870000  0.15840000  1.0 0.0172896381
C  C814  1  0.09820000  0.72970000  0.14280000  1.0 -0.0819781289
C  C815  1  0.13060000  0.72430000  0.16350000  1.0 -0.0819781289
C  C816  1  0.03250000  0.75740000  0.13640000  1.0 0.0506834101
C  C817  1  0.03290000  0.76320000  0.09810000  1.0 -0.1867803114
C  C818  1  0.16770000  0.73050000  0.22270000  1.0 0.3707347317
C  C819  1  0.02820000  0.77770000  0.01950000  1.0 -0.1322866752
C  C820  1  0.82910000  0.27030000  0.22010000  1.0 0.3961464611
C  C821  1  0.97280000  0.26000000  0.01970000  1.0 -0.0333234673
C  C822  1  0.96720000  0.28040000  0.13790000  1.0 0.0635202503
C  C823  1  0.96700000  0.27910000  0.09920000  1.0 -0.1801500534
C  C824  1  0.86630000  0.27790000  0.20110000  1.0 0.0313174508
C  C825  1  0.89900000  0.26190000  0.21470000  1.0 -0.0333234673
C  C826  1  0.93200000  0.26520000  0.19450000  1.0 -0.0416395954
C  C827  1  0.93230000  0.28450000  0.16070000  1.0 -0.0223367
C  C828  1  0.89960000  0.30050000  0.14720000  1.0 -0.0881719728
C  C829  1  0.86650000  0.29720000  0.16740000  1.0 -0.0881719728
C  C830  1  0.97350000  0.30050000  0.01940000  1.0 -0.1322866752
C  C831  1  0.86710000  0.26210000  0.19990000  1.0 0.0375456221
C  C832  1  0.89720000  0.24310000  0.21550000  1.0 -0.0596329413
C  C833  1  0.92960000  0.23770000  0.19480000  1.0 -0.1021536343
C  C834  1  0.93190000  0.25130000  0.15840000  1.0 0.0172896381
C  C835  1  0.90180000  0.27030000  0.14280000  1.0 -0.0819781289
C  C836  1  0.86940000  0.27570000  0.16350000  1.0 -0.0819781289
C  C837  1  0.96750000  0.24260000  0.13640000  1.0 0.0506834101
C  C838  1  0.96710000  0.23680000  0.09810000  1.0 -0.1867803114
C  C839  1  0.83230000  0.26950000  0.22270000  1.0 0.3707347317
C  C840  1  0.97180000  0.22230000  0.01950000  1.0 -0.1322866752
C  C841  1  0.27030000  0.22010000  0.82910000  1.0 0.3934237765
C  C842  1  0.26000000  0.01970000  0.97280000  1.0 -0.0333234673
C  C843  1  0.28040000  0.13790000  0.96720000  1.0 0.0635202503
C  C844  1  0.27910000  0.09920000  0.96700000  1.0 -0.1801500534
C  C845  1  0.27790000  0.20110000  0.86630000  1.0 0.0313174508
C  C846  1  0.26190000  0.21470000  0.89900000  1.0 -0.0333234673
C  C847  1  0.26520000  0.19450000  0.93200000  1.0 -0.0416395954
C  C848  1  0.28450000  0.16070000  0.93230000  1.0 -0.0223367
C  C849  1  0.30050000  0.14720000  0.89960000  1.0 -0.0881719728
C  C850  1  0.29720000  0.16740000  0.86650000  1.0 -0.0881719728
C  C851  1  0.30050000  0.01940000  0.97350000  1.0 -0.1322866752
C  C852  1  0.26210000  0.19990000  0.86710000  1.0 0.0375456221
C  C853  1  0.24310000  0.21550000  0.89720000  1.0 -0.0596329413
C  C854  1  0.23770000  0.19480000  0.92960000  1.0 -0.1021536343
C  C855  1  0.25130000  0.15840000  0.93190000  1.0 0.0172896381
C  C856  1  0.27030000  0.14280000  0.90180000  1.0 -0.0819781289
C  C857  1  0.27570000  0.16350000  0.86940000  1.0 -0.0819781289
C  C858  1  0.24260000  0.13640000  0.96750000  1.0 0.0506834101
C  C859  1  0.23680000  0.09810000  0.96710000  1.0 -0.1867803114
C  C860  1  0.26950000  0.22270000  0.83230000  1.0 0.3707347317
C  C861  1  0.22230000  0.01950000  0.97180000  1.0 -0.1322866752
C  C862  1  0.72970000  0.22010000  0.17090000  1.0 0.3961464611
C  C863  1  0.74000000  0.01970000  0.02720000  1.0 -0.0333234673
C  C864  1  0.71960000  0.13790000  0.03280000  1.0 0.0635202503
C  C865  1  0.72090000  0.09920000  0.03300000  1.0 -0.1801500534
C  C866  1  0.72210000  0.20110000  0.13370000  1.0 0.0313174508
C  C867  1  0.73810000  0.21470000  0.10100000  1.0 -0.0333234673
C  C868  1  0.73480000  0.19450000  0.06800000  1.0 -0.0416395954
C  C869  1  0.71550000  0.16070000  0.06770000  1.0 -0.0223367
C  C870  1  0.69950000  0.14720000  0.10040000  1.0 -0.0881719728
C  C871  1  0.70280000  0.16740000  0.13350000  1.0 -0.0881719728
C  C872  1  0.69950000  0.01940000  0.02650000  1.0 -0.1322866752
C  C873  1  0.73790000  0.19990000  0.13290000  1.0 0.0375456221
C  C874  1  0.75690000  0.21550000  0.10280000  1.0 -0.0596329413
C  C875  1  0.76230000  0.19480000  0.07040000  1.0 -0.1021536343
C  C876  1  0.74870000  0.15840000  0.06810000  1.0 0.0172896381
C  C877  1  0.72970000  0.14280000  0.09820000  1.0 -0.0819781289
C  C878  1  0.72430000  0.16350000  0.13060000  1.0 -0.0819781289
C  C879  1  0.75740000  0.13640000  0.03250000  1.0 0.0506834101
C  C880  1  0.76320000  0.09810000  0.03290000  1.0 -0.1867803114
C  C881  1  0.73050000  0.22270000  0.16770000  1.0 0.3707347317
C  C882  1  0.77770000  0.01950000  0.02820000  1.0 -0.1322866752
C  C883  1  0.72970000  0.77990000  0.82910000  1.0 0.3961464611
C  C884  1  0.74000000  0.98030000  0.97280000  1.0 -0.0333234673
C  C885  1  0.71960000  0.86210000  0.96720000  1.0 0.0727617963
C  C886  1  0.72090000  0.90080000  0.96700000  1.0 -0.1801500534
C  C887  1  0.72210000  0.79890000  0.86630000  1.0 0.0313174508
C  C888  1  0.73810000  0.78530000  0.89900000  1.0 -0.0333234673
C  C889  1  0.73480000  0.80550000  0.93200000  1.0 -0.0416395954
C  C890  1  0.71550000  0.83930000  0.93230000  1.0 -0.0223367
C  C891  1  0.69950000  0.85280000  0.89960000  1.0 -0.0881719728
C  C892  1  0.70280000  0.83260000  0.86650000  1.0 -0.0881719728
C  C893  1  0.69950000  0.98060000  0.97350000  1.0 -0.1322866752
C  C894  1  0.73790000  0.80010000  0.86710000  1.0 0.0375456221
C  C895  1  0.75690000  0.78450000  0.89720000  1.0 -0.0596329413
C  C896  1  0.76230000  0.80520000  0.92960000  1.0 -0.1021536343
C  C897  1  0.74870000  0.84160000  0.93190000  1.0 0.0172896381
C  C898  1  0.72970000  0.85720000  0.90180000  1.0 -0.0819781289
C  C899  1  0.72430000  0.83650000  0.86940000  1.0 -0.0819781289
C  C900  1  0.75740000  0.86360000  0.96750000  1.0 0.0506834101
C  C901  1  0.76320000  0.90190000  0.96710000  1.0 -0.1867803114
C  C902  1  0.73050000  0.77730000  0.83230000  1.0 0.3707347317
C  C903  1  0.77770000  0.98050000  0.97180000  1.0 -0.1322866752
C  C904  1  0.27030000  0.77990000  0.17090000  1.0 0.3934237765
C  C905  1  0.26000000  0.98030000  0.02720000  1.0 -0.0416395954
C  C906  1  0.28040000  0.86210000  0.03280000  1.0 0.0635202503
C  C907  1  0.27910000  0.90080000  0.03300000  1.0 -0.1801500534
C  C908  1  0.27790000  0.79890000  0.13370000  1.0 0.0313174508
C  C909  1  0.26190000  0.78530000  0.10100000  1.0 -0.0333234673
C  C910  1  0.26520000  0.80550000  0.06800000  1.0 -0.0416395954
C  C911  1  0.28450000  0.83930000  0.06770000  1.0 -0.0223367
C  C912  1  0.30050000  0.85280000  0.10040000  1.0 -0.0881719728
C  C913  1  0.29720000  0.83260000  0.13350000  1.0 -0.0881719728
C  C914  1  0.30050000  0.98060000  0.02650000  1.0 -0.1322866752
C  C915  1  0.26210000  0.80010000  0.13290000  1.0 0.0375456221
C  C916  1  0.24310000  0.78450000  0.10280000  1.0 -0.0596329413
C  C917  1  0.23770000  0.80520000  0.07040000  1.0 -0.1021536343
C  C918  1  0.25130000  0.84160000  0.06810000  1.0 0.0172896381
C  C919  1  0.27030000  0.85720000  0.09820000  1.0 -0.0819781289
C  C920  1  0.27570000  0.83650000  0.13060000  1.0 -0.0819781289
C  C921  1  0.24260000  0.86360000  0.03250000  1.0 0.0506834101
C  C922  1  0.23680000  0.90190000  0.03290000  1.0 -0.1867803114
C  C923  1  0.26950000  0.77730000  0.16770000  1.0 0.3707347317
C  C924  1  0.22230000  0.98050000  0.02820000  1.0 -0.1322866752
C  C925  1  0.22010000  0.17090000  0.72970000  1.0 0.3934237765
C  C926  1  0.01970000  0.02720000  0.74000000  1.0 -0.0333234673
C  C927  1  0.13790000  0.03280000  0.71960000  1.0 0.0635202503
C  C928  1  0.09920000  0.03300000  0.72090000  1.0 -0.1801500534
C  C929  1  0.20110000  0.13370000  0.72210000  1.0 0.0313174508
C  C930  1  0.21470000  0.10100000  0.73810000  1.0 -0.0333234673
C  C931  1  0.19450000  0.06800000  0.73480000  1.0 -0.0416395954
C  C932  1  0.16070000  0.06770000  0.71550000  1.0 -0.0223367
C  C933  1  0.14720000  0.10040000  0.69950000  1.0 -0.0881719728
C  C934  1  0.16740000  0.13350000  0.70280000  1.0 -0.0881719728
C  C935  1  0.01940000  0.02650000  0.69950000  1.0 -0.1322866752
C  C936  1  0.19990000  0.13290000  0.73790000  1.0 0.0375456221
C  C937  1  0.21550000  0.10280000  0.75690000  1.0 -0.0596329413
C  C938  1  0.19480000  0.07040000  0.76230000  1.0 -0.1021536343
C  C939  1  0.15840000  0.06810000  0.74870000  1.0 0.0172896381
C  C940  1  0.14280000  0.09820000  0.72970000  1.0 -0.0819781289
C  C941  1  0.16350000  0.13060000  0.72430000  1.0 -0.0819781289
C  C942  1  0.13640000  0.03250000  0.75740000  1.0 0.0506834101
C  C943  1  0.09810000  0.03290000  0.76320000  1.0 -0.1867803114
C  C944  1  0.22270000  0.16770000  0.73050000  1.0 0.3707347317
C  C945  1  0.01950000  0.02820000  0.77770000  1.0 -0.1322866752
C  C946  1  0.22010000  0.82910000  0.27030000  1.0 0.3934237765
C  C947  1  0.01970000  0.97280000  0.26000000  1.0 -0.0333234673
C  C948  1  0.13790000  0.96720000  0.28040000  1.0 0.0635202503
C  C949  1  0.09920000  0.96700000  0.27910000  1.0 -0.1801500534
C  C950  1  0.20110000  0.86630000  0.27790000  1.0 0.0313174508
C  C951  1  0.21470000  0.89900000  0.26190000  1.0 -0.0333234673
C  C952  1  0.19450000  0.93200000  0.26520000  1.0 -0.0416395954
C  C953  1  0.16070000  0.93230000  0.28450000  1.0 -0.0223367
C  C954  1  0.14720000  0.89960000  0.30050000  1.0 -0.0881719728
C  C955  1  0.16740000  0.86650000  0.29720000  1.0 -0.0881719728
C  C956  1  0.01940000  0.97350000  0.30050000  1.0 -0.1322866752
C  C957  1  0.19990000  0.86710000  0.26210000  1.0 0.0375456221
C  C958  1  0.21550000  0.89720000  0.24310000  1.0 -0.0596329413
C  C959  1  0.19480000  0.92960000  0.23770000  1.0 -0.1021536343
C  C960  1  0.15840000  0.93190000  0.25130000  1.0 0.0172896381
C  C961  1  0.14280000  0.90180000  0.27030000  1.0 -0.0819781289
C  C962  1  0.16350000  0.86940000  0.27570000  1.0 -0.0819781289
C  C963  1  0.13640000  0.96750000  0.24260000  1.0 0.0506834101
C  C964  1  0.09810000  0.96710000  0.23680000  1.0 -0.1867803114
C  C965  1  0.22270000  0.83230000  0.26950000  1.0 0.3707347317
C  C966  1  0.01950000  0.97180000  0.22230000  1.0 -0.1322866752
C  C967  1  0.77990000  0.17090000  0.27030000  1.0 0.3961464611
C  C968  1  0.98030000  0.02720000  0.26000000  1.0 -0.0333234673
C  C969  1  0.86210000  0.03280000  0.28040000  1.0 0.0635202503
C  C970  1  0.90080000  0.03300000  0.27910000  1.0 -0.1801500534
C  C971  1  0.79890000  0.13370000  0.27790000  1.0 0.0313174508
C  C972  1  0.78530000  0.10100000  0.26190000  1.0 -0.0333234673
C  C973  1  0.80550000  0.06800000  0.26520000  1.0 -0.0416395954
C  C974  1  0.83930000  0.06770000  0.28450000  1.0 -0.0223367
C  C975  1  0.85280000  0.10040000  0.30050000  1.0 -0.0881719728
C  C976  1  0.83260000  0.13350000  0.29720000  1.0 -0.0881719728
C  C977  1  0.98060000  0.02650000  0.30050000  1.0 -0.1322866752
C  C978  1  0.80010000  0.13290000  0.26210000  1.0 0.0375456221
C  C979  1  0.78450000  0.10280000  0.24310000  1.0 -0.0596329413
C  C980  1  0.80520000  0.07040000  0.23770000  1.0 -0.1021536343
C  C981  1  0.84160000  0.06810000  0.25130000  1.0 0.0172896381
C  C982  1  0.85720000  0.09820000  0.27030000  1.0 -0.0819781289
C  C983  1  0.83650000  0.13060000  0.27570000  1.0 -0.0819781289
C  C984  1  0.86360000  0.03250000  0.24260000  1.0 0.0506834101
C  C985  1  0.90190000  0.03290000  0.23680000  1.0 -0.1867803114
C  C986  1  0.77730000  0.16770000  0.26950000  1.0 0.3707347317
C  C987  1  0.98050000  0.02820000  0.22230000  1.0 -0.1322866752
C  C988  1  0.77990000  0.82910000  0.72970000  1.0 0.3961464611
C  C989  1  0.98030000  0.97280000  0.74000000  1.0 -0.0333234673
C  C990  1  0.86210000  0.96720000  0.71960000  1.0 0.0727617963
C  C991  1  0.90080000  0.96700000  0.72090000  1.0 -0.1801500534
C  C992  1  0.79890000  0.86630000  0.72210000  1.0 0.0313174508
C  C993  1  0.78530000  0.89900000  0.73810000  1.0 -0.0333234673
C  C994  1  0.80550000  0.93200000  0.73480000  1.0 -0.0416395954
C  C995  1  0.83930000  0.93230000  0.71550000  1.0 -0.0223367
C  C996  1  0.85280000  0.89960000  0.69950000  1.0 -0.0881719728
C  C997  1  0.83260000  0.86650000  0.70280000  1.0 -0.0881719728
C  C998  1  0.98060000  0.97350000  0.69950000  1.0 -0.1322866752
C  C999  1  0.80010000  0.86710000  0.73790000  1.0 0.0375456221
C  C1000  1  0.78450000  0.89720000  0.75690000  1.0 -0.0596329413
C  C1001  1  0.80520000  0.92960000  0.76230000  1.0 -0.1021536343
C  C1002  1  0.84160000  0.93190000  0.74870000  1.0 0.0172896381
C  C1003  1  0.85720000  0.90180000  0.72970000  1.0 -0.0819781289
C  C1004  1  0.83650000  0.86940000  0.72430000  1.0 -0.0819781289
C  C1005  1  0.86360000  0.96750000  0.75740000  1.0 0.0506834101
C  C1006  1  0.90190000  0.96710000  0.76320000  1.0 -0.1867803114
C  C1007  1  0.77730000  0.83230000  0.73050000  1.0 0.3707347317
C  C1008  1  0.98050000  0.97180000  0.77770000  1.0 -0.1322866752
C  C1009  1  0.22150000  0.50000000  0.42020000  1.0 0.0140551767
C  C1010  1  0.22000000  0.50000000  0.46060000  1.0 0.0375456221
C  C1011  1  0.25970000  0.50000000  0.46060000  1.0 0.0375456221
C  C1012  1  0.26610000  0.50000000  0.42050000  1.0 -0.0223367
C  C1013  1  0.77850000  0.50000000  0.42020000  1.0 0.0140551767
C  C1014  1  0.78000000  0.50000000  0.46060000  1.0 0.0375456221
C  C1015  1  0.74030000  0.50000000  0.46060000  1.0 0.0375456221
C  C1016  1  0.73390000  0.50000000  0.42050000  1.0 -0.0223367
C  C1017  1  0.77850000  0.50000000  0.57980000  1.0 0.0140551767
C  C1018  1  0.78000000  0.50000000  0.53940000  1.0 0.0375456221
C  C1019  1  0.74030000  0.50000000  0.53940000  1.0 0.0375456221
C  C1020  1  0.73390000  0.50000000  0.57950000  1.0 -0.0223367
C  C1021  1  0.22150000  0.50000000  0.57980000  1.0 0.0140551767
C  C1022  1  0.22000000  0.50000000  0.53940000  1.0 0.0375456221
C  C1023  1  0.25970000  0.50000000  0.53940000  1.0 0.0375456221
C  C1024  1  0.26610000  0.50000000  0.57950000  1.0 -0.0223367
C  C1025  1  0.42020000  0.22150000  0.50000000  1.0 0.0140551767
C  C1026  1  0.46060000  0.22000000  0.50000000  1.0 0.0375456221
C  C1027  1  0.46060000  0.25970000  0.50000000  1.0 0.0375456221
C  C1028  1  0.42050000  0.26610000  0.50000000  1.0 -0.0223367
C  C1029  1  0.42020000  0.77850000  0.50000000  1.0 0.0140551767
C  C1030  1  0.46060000  0.78000000  0.50000000  1.0 0.0375456221
C  C1031  1  0.46060000  0.74030000  0.50000000  1.0 0.0375456221
C  C1032  1  0.42050000  0.73390000  0.50000000  1.0 -0.0223367
C  C1033  1  0.57980000  0.77850000  0.50000000  1.0 0.0140551767
C  C1034  1  0.53940000  0.78000000  0.50000000  1.0 0.0375456221
C  C1035  1  0.53940000  0.74030000  0.50000000  1.0 0.0375456221
C  C1036  1  0.57950000  0.73390000  0.50000000  1.0 -0.0223367
C  C1037  1  0.57980000  0.22150000  0.50000000  1.0 0.0140551767
C  C1038  1  0.53940000  0.22000000  0.50000000  1.0 0.0375456221
C  C1039  1  0.53940000  0.25970000  0.50000000  1.0 0.0375456221
C  C1040  1  0.57950000  0.26610000  0.50000000  1.0 -0.0223367
C  C1041  1  0.50000000  0.42020000  0.22150000  1.0 0.0140551767
C  C1042  1  0.50000000  0.46060000  0.22000000  1.0 0.0375456221
C  C1043  1  0.50000000  0.46060000  0.25970000  1.0 0.0375456221
C  C1044  1  0.50000000  0.42050000  0.26610000  1.0 -0.0223367
C  C1045  1  0.50000000  0.42020000  0.77850000  1.0 0.0140551767
C  C1046  1  0.50000000  0.46060000  0.78000000  1.0 0.0375456221
C  C1047  1  0.50000000  0.46060000  0.74030000  1.0 0.0375456221
C  C1048  1  0.50000000  0.42050000  0.73390000  1.0 -0.0223367
C  C1049  1  0.50000000  0.57980000  0.77850000  1.0 0.0140551767
C  C1050  1  0.50000000  0.53940000  0.78000000  1.0 0.0375456221
C  C1051  1  0.50000000  0.53940000  0.74030000  1.0 0.0375456221
C  C1052  1  0.50000000  0.57950000  0.73390000  1.0 -0.0223367
C  C1053  1  0.50000000  0.57980000  0.22150000  1.0 0.0140551767
C  C1054  1  0.50000000  0.53940000  0.22000000  1.0 0.0375456221
C  C1055  1  0.50000000  0.53940000  0.25970000  1.0 0.0375456221
C  C1056  1  0.50000000  0.57950000  0.26610000  1.0 -0.0223367
C  C1057  1  0.00000000  0.72150000  0.07980000  1.0 0.0140551767
C  C1058  1  0.00000000  0.72000000  0.03940000  1.0 0.0375456221
C  C1059  1  0.00000000  0.75970000  0.03940000  1.0 0.0375456221
C  C1060  1  0.00000000  0.76610000  0.07950000  1.0 -0.0223367
C  C1061  1  0.00000000  0.27850000  0.07980000  1.0 0.0140551767
C  C1062  1  0.00000000  0.28000000  0.03940000  1.0 0.0375456221
C  C1063  1  0.00000000  0.24030000  0.03940000  1.0 0.0375456221
C  C1064  1  0.00000000  0.23390000  0.07950000  1.0 -0.0223367
C  C1065  1  0.00000000  0.27850000  0.92020000  1.0 0.0140551767
C  C1066  1  0.00000000  0.28000000  0.96060000  1.0 0.0375456221
C  C1067  1  0.00000000  0.24030000  0.96060000  1.0 0.0375456221
C  C1068  1  0.00000000  0.23390000  0.92050000  1.0 -0.0223367
C  C1069  1  0.00000000  0.72150000  0.92020000  1.0 0.0140551767
C  C1070  1  0.00000000  0.72000000  0.96060000  1.0 0.0375456221
C  C1071  1  0.00000000  0.75970000  0.96060000  1.0 0.0375456221
C  C1072  1  0.00000000  0.76610000  0.92050000  1.0 -0.0223367
C  C1073  1  0.72150000  0.92020000  0.00000000  1.0 0.0140551767
C  C1074  1  0.72000000  0.96060000  0.00000000  1.0 0.0375456221
C  C1075  1  0.75970000  0.96060000  0.00000000  1.0 0.0375456221
C  C1076  1  0.76610000  0.92050000  0.00000000  1.0 -0.0223367
C  C1077  1  0.27850000  0.92020000  0.00000000  1.0 0.0140551767
C  C1078  1  0.28000000  0.96060000  0.00000000  1.0 0.0375456221
C  C1079  1  0.24030000  0.96060000  0.00000000  1.0 0.0375456221
C  C1080  1  0.23390000  0.92050000  0.00000000  1.0 -0.0223367
C  C1081  1  0.27850000  0.07980000  0.00000000  1.0 0.0140551767
C  C1082  1  0.28000000  0.03940000  0.00000000  1.0 0.0375456221
C  C1083  1  0.24030000  0.03940000  0.00000000  1.0 0.0375456221
C  C1084  1  0.23390000  0.07950000  0.00000000  1.0 -0.0223367
C  C1085  1  0.72150000  0.07980000  0.00000000  1.0 0.0140551767
C  C1086  1  0.72000000  0.03940000  0.00000000  1.0 0.0375456221
C  C1087  1  0.75970000  0.03940000  0.00000000  1.0 0.0375456221
C  C1088  1  0.76610000  0.07950000  0.00000000  1.0 -0.0223367
C  C1089  1  0.92020000  0.00000000  0.27850000  1.0 0.0140551767
C  C1090  1  0.96060000  0.00000000  0.28000000  1.0 0.0375456221
C  C1091  1  0.96060000  0.00000000  0.24030000  1.0 0.0375456221
C  C1092  1  0.92050000  0.00000000  0.23390000  1.0 -0.0223367
C  C1093  1  0.92020000  0.00000000  0.72150000  1.0 0.0140551767
C  C1094  1  0.96060000  0.00000000  0.72000000  1.0 0.0375456221
C  C1095  1  0.96060000  0.00000000  0.75970000  1.0 0.0375456221
C  C1096  1  0.92050000  0.00000000  0.76610000  1.0 -0.0223367
C  C1097  1  0.07980000  0.00000000  0.72150000  1.0 0.0140551767
C  C1098  1  0.03940000  0.00000000  0.72000000  1.0 0.0375456221
C  C1099  1  0.03940000  0.00000000  0.75970000  1.0 0.0375456221
C  C1100  1  0.07950000  0.00000000  0.76610000  1.0 -0.0223367
C  C1101  1  0.07980000  0.00000000  0.27850000  1.0 0.0140551767
C  C1102  1  0.03940000  0.00000000  0.28000000  1.0 0.0375456221
C  C1103  1  0.03940000  0.00000000  0.24030000  1.0 0.0375456221
C  C1104  1  0.07950000  0.00000000  0.23390000  1.0 -0.0223367
N  N1  1  0.21890000  0.50000000  0.34270000  1.0 -0.1430353047
N  N2  1  0.25450000  0.50000000  0.34440000  1.0 -0.0819781289
N  N3  1  0.78110000  0.50000000  0.34270000  1.0 -0.1430353047
N  N4  1  0.74550000  0.50000000  0.34440000  1.0 -0.0743665934
N  N5  1  0.78110000  0.50000000  0.65730000  1.0 -0.1430353047
N  N6  1  0.74550000  0.50000000  0.65560000  1.0 -0.0743665934
N  N7  1  0.21890000  0.50000000  0.65730000  1.0 -0.1430353047
N  N8  1  0.25450000  0.50000000  0.65560000  1.0 -0.0819781289
N  N9  1  0.34270000  0.21890000  0.50000000  1.0 -0.1430353047
N  N10  1  0.34440000  0.25450000  0.50000000  1.0 -0.0743665934
N  N11  1  0.34270000  0.78110000  0.50000000  1.0 -0.1430353047
N  N12  1  0.34440000  0.74550000  0.50000000  1.0 -0.0819781289
N  N13  1  0.65730000  0.78110000  0.50000000  1.0 -0.1430353047
N  N14  1  0.65560000  0.74550000  0.50000000  1.0 -0.0819781289
N  N15  1  0.65730000  0.21890000  0.50000000  1.0 -0.1430353047
N  N16  1  0.65560000  0.25450000  0.50000000  1.0 -0.0743665934
N  N17  1  0.50000000  0.34270000  0.21890000  1.0 -0.1430353047
N  N18  1  0.50000000  0.34440000  0.25450000  1.0 -0.0743665934
N  N19  1  0.50000000  0.34270000  0.78110000  1.0 -0.1430353047
N  N20  1  0.50000000  0.34440000  0.74550000  1.0 -0.0743665934
N  N21  1  0.50000000  0.65730000  0.78110000  1.0 -0.1430353047
N  N22  1  0.50000000  0.65560000  0.74550000  1.0 -0.0819781289
N  N23  1  0.50000000  0.65730000  0.21890000  1.0 -0.1430353047
N  N24  1  0.50000000  0.65560000  0.25450000  1.0 -0.0819781289
N  N25  1  0.00000000  0.71890000  0.15730000  1.0 -0.1430353047
N  N26  1  0.00000000  0.75450000  0.15560000  1.0 -0.0819781289
N  N27  1  0.00000000  0.28110000  0.15730000  1.0 -0.1430353047
N  N28  1  0.00000000  0.24550000  0.15560000  1.0 -0.0743665934
N  N29  1  0.00000000  0.28110000  0.84270000  1.0 -0.1430353047
N  N30  1  0.00000000  0.24550000  0.84440000  1.0 -0.0743665934
N  N31  1  0.00000000  0.71890000  0.84270000  1.0 -0.1430353047
N  N32  1  0.00000000  0.75450000  0.84440000  1.0 -0.0819781289
N  N33  1  0.71890000  0.84270000  0.00000000  1.0 -0.1430353047
N  N34  1  0.75450000  0.84440000  0.00000000  1.0 -0.0819781289
N  N35  1  0.28110000  0.84270000  0.00000000  1.0 -0.1430353047
N  N36  1  0.24550000  0.84440000  0.00000000  1.0 -0.0819781289
N  N37  1  0.28110000  0.15730000  0.00000000  1.0 -0.1430353047
N  N38  1  0.24550000  0.15560000  0.00000000  1.0 -0.0743665934
N  N39  1  0.71890000  0.15730000  0.00000000  1.0 -0.1430353047
N  N40  1  0.75450000  0.15560000  0.00000000  1.0 -0.0743665934
N  N41  1  0.84270000  0.00000000  0.28110000  1.0 -0.1430353047
N  N42  1  0.84440000  0.00000000  0.24550000  1.0 -0.0743665934
N  N43  1  0.84270000  0.00000000  0.71890000  1.0 -0.1430353047
N  N44  1  0.84440000  0.00000000  0.75450000  1.0 -0.0743665934
N  N45  1  0.15730000  0.00000000  0.71890000  1.0 -0.1430353047
N  N46  1  0.15560000  0.00000000  0.75450000  1.0 -0.0819781289
N  N47  1  0.15730000  0.00000000  0.28110000  1.0 -0.1430353047
N  N48  1  0.15560000  0.00000000  0.24550000  1.0 -0.0819781289
O  O1  1  0.25170000  0.32610000  0.25200000  1.0 -0.336511501
O  O2  1  0.21520000  0.30190000  0.29720000  1.0 -0.2369392449
O  O3  1  0.24690000  0.33400000  0.24620000  1.0 -0.3684086324
O  O4  1  0.20720000  0.30830000  0.28870000  1.0 -0.1322866752
O  O5  1  0.74830000  0.67390000  0.25200000  1.0 -0.336511501
O  O6  1  0.78480000  0.69810000  0.29720000  1.0 -0.2369392449
O  O7  1  0.75310000  0.66600000  0.24620000  1.0 -0.3684086324
O  O8  1  0.79280000  0.69170000  0.28870000  1.0 -0.1322866752
O  O9  1  0.74830000  0.32610000  0.74800000  1.0 -0.336511501
O  O10  1  0.78480000  0.30190000  0.70280000  1.0 -0.2369392449
O  O11  1  0.75310000  0.33400000  0.75380000  1.0 -0.3684086324
O  O12  1  0.79280000  0.30830000  0.71130000  1.0 -0.1322866752
O  O13  1  0.25170000  0.67390000  0.74800000  1.0 -0.336511501
O  O14  1  0.21520000  0.69810000  0.70280000  1.0 -0.2369392449
O  O15  1  0.24690000  0.66600000  0.75380000  1.0 -0.3684086324
O  O16  1  0.20720000  0.69170000  0.71130000  1.0 -0.1322866752
O  O17  1  0.25200000  0.25170000  0.32610000  1.0 -0.336511501
O  O18  1  0.29720000  0.21520000  0.30190000  1.0 -0.2369392449
O  O19  1  0.24620000  0.24690000  0.33400000  1.0 -0.3684086324
O  O20  1  0.28870000  0.20720000  0.30830000  1.0 -0.1322866752
O  O21  1  0.25200000  0.74830000  0.67390000  1.0 -0.336511501
O  O22  1  0.29720000  0.78480000  0.69810000  1.0 -0.2369392449
O  O23  1  0.24620000  0.75310000  0.66600000  1.0 -0.3684086324
O  O24  1  0.28870000  0.79280000  0.69170000  1.0 -0.1322866752
O  O25  1  0.74800000  0.74830000  0.32610000  1.0 -0.336511501
O  O26  1  0.70280000  0.78480000  0.30190000  1.0 -0.2369392449
O  O27  1  0.75380000  0.75310000  0.33400000  1.0 -0.3684086324
O  O28  1  0.71130000  0.79280000  0.30830000  1.0 -0.1322866752
O  O29  1  0.74800000  0.25170000  0.67390000  1.0 -0.336511501
O  O30  1  0.70280000  0.21520000  0.69810000  1.0 -0.2369392449
O  O31  1  0.75380000  0.24690000  0.66600000  1.0 -0.3684086324
O  O32  1  0.71130000  0.20720000  0.69170000  1.0 -0.1322866752
O  O33  1  0.32610000  0.25200000  0.25170000  1.0 -0.336511501
O  O34  1  0.30190000  0.29720000  0.21520000  1.0 -0.2369392449
O  O35  1  0.33400000  0.24620000  0.24690000  1.0 -0.3684086324
O  O36  1  0.30830000  0.28870000  0.20720000  1.0 -0.1322866752
O  O37  1  0.67390000  0.25200000  0.74830000  1.0 -0.336511501
O  O38  1  0.69810000  0.29720000  0.78480000  1.0 -0.2369392449
O  O39  1  0.66600000  0.24620000  0.75310000  1.0 -0.3684086324
O  O40  1  0.69170000  0.28870000  0.79280000  1.0 -0.1322866752
O  O41  1  0.32610000  0.74800000  0.74830000  1.0 -0.336511501
O  O42  1  0.30190000  0.70280000  0.78480000  1.0 -0.2369392449
O  O43  1  0.33400000  0.75380000  0.75310000  1.0 -0.3684086324
O  O44  1  0.30830000  0.71130000  0.79280000  1.0 -0.1322866752
O  O45  1  0.67390000  0.74800000  0.25170000  1.0 -0.336511501
O  O46  1  0.69810000  0.70280000  0.21520000  1.0 -0.2369392449
O  O47  1  0.66600000  0.75380000  0.24690000  1.0 -0.3684086324
O  O48  1  0.69170000  0.71130000  0.20720000  1.0 -0.1322866752
O  O49  1  0.82610000  0.75170000  0.24800000  1.0 -0.336511501
O  O50  1  0.80190000  0.71520000  0.20280000  1.0 -0.2369392449
O  O51  1  0.83400000  0.74690000  0.25380000  1.0 -0.3684086324
O  O52  1  0.80830000  0.70720000  0.21130000  1.0 -0.1322866752
O  O53  1  0.17390000  0.24830000  0.24800000  1.0 -0.336511501
O  O54  1  0.19810000  0.28480000  0.20280000  1.0 -0.2369392449
O  O55  1  0.16600000  0.25310000  0.25380000  1.0 -0.3684086324
O  O56  1  0.19170000  0.29280000  0.21130000  1.0 -0.1322866752
O  O57  1  0.82610000  0.24830000  0.75200000  1.0 -0.336511501
O  O58  1  0.80190000  0.28480000  0.79720000  1.0 -0.2369392449
O  O59  1  0.83400000  0.25310000  0.74620000  1.0 -0.3684086324
O  O60  1  0.80830000  0.29280000  0.78870000  1.0 -0.1322866752
O  O61  1  0.17390000  0.75170000  0.75200000  1.0 -0.336511501
O  O62  1  0.19810000  0.71520000  0.79720000  1.0 -0.2369392449
O  O63  1  0.16600000  0.74690000  0.74620000  1.0 -0.3684086324
O  O64  1  0.19170000  0.70720000  0.78870000  1.0 -0.1322866752
O  O65  1  0.75170000  0.75200000  0.17390000  1.0 -0.336511501
O  O66  1  0.71520000  0.79720000  0.19810000  1.0 -0.2369392449
O  O67  1  0.74690000  0.74620000  0.16600000  1.0 -0.3684086324
O  O68  1  0.70720000  0.78870000  0.19170000  1.0 -0.1322866752
O  O69  1  0.24830000  0.75200000  0.82610000  1.0 -0.336511501
O  O70  1  0.28480000  0.79720000  0.80190000  1.0 -0.2369392449
O  O71  1  0.25310000  0.74620000  0.83400000  1.0 -0.3684086324
O  O72  1  0.29280000  0.78870000  0.80830000  1.0 -0.1322866752
O  O73  1  0.24830000  0.24800000  0.17390000  1.0 -0.336511501
O  O74  1  0.28480000  0.20280000  0.19810000  1.0 -0.2369392449
O  O75  1  0.25310000  0.25380000  0.16600000  1.0 -0.3684086324
O  O76  1  0.29280000  0.21130000  0.19170000  1.0 -0.1322866752
O  O77  1  0.75170000  0.24800000  0.82610000  1.0 -0.336511501
O  O78  1  0.71520000  0.20280000  0.80190000  1.0 -0.2369392449
O  O79  1  0.74690000  0.25380000  0.83400000  1.0 -0.3684086324
O  O80  1  0.70720000  0.21130000  0.80830000  1.0 -0.1322866752
O  O81  1  0.75200000  0.82610000  0.24830000  1.0 -0.336511501
O  O82  1  0.79720000  0.80190000  0.28480000  1.0 -0.2369392449
O  O83  1  0.74620000  0.83400000  0.25310000  1.0 -0.3684086324
O  O84  1  0.78870000  0.80830000  0.29280000  1.0 -0.1322866752
O  O85  1  0.75200000  0.17390000  0.75170000  1.0 -0.336511501
O  O86  1  0.79720000  0.19810000  0.71520000  1.0 -0.2369392449
O  O87  1  0.74620000  0.16600000  0.74690000  1.0 -0.3684086324
O  O88  1  0.78870000  0.19170000  0.70720000  1.0 -0.1322866752
O  O89  1  0.24800000  0.82610000  0.75170000  1.0 -0.336511501
O  O90  1  0.20280000  0.80190000  0.71520000  1.0 -0.2369392449
O  O91  1  0.25380000  0.83400000  0.74690000  1.0 -0.3684086324
O  O92  1  0.21130000  0.80830000  0.70720000  1.0 -0.1322866752
O  O93  1  0.24800000  0.17390000  0.24830000  1.0 -0.336511501
O  O94  1  0.20280000  0.19810000  0.28480000  1.0 -0.2369392449
O  O95  1  0.25380000  0.16600000  0.25310000  1.0 -0.3684086324
O  O96  1  0.21130000  0.19170000  0.29280000  1.0 -0.1322866752
O  O97  1  0.74830000  0.67390000  0.74800000  1.0 -0.336511501
O  O98  1  0.78480000  0.69810000  0.70280000  1.0 -0.2369392449
O  O99  1  0.75310000  0.66600000  0.75380000  1.0 -0.3684086324
O  O100  1  0.79280000  0.69170000  0.71130000  1.0 -0.1322866752
O  O101  1  0.25170000  0.32610000  0.74800000  1.0 -0.336511501
O  O102  1  0.21520000  0.30190000  0.70280000  1.0 -0.2369392449
O  O103  1  0.24690000  0.33400000  0.75380000  1.0 -0.3684086324
O  O104  1  0.20720000  0.30830000  0.71130000  1.0 -0.1322866752
O  O105  1  0.25170000  0.67390000  0.25200000  1.0 -0.336511501
O  O106  1  0.21520000  0.69810000  0.29720000  1.0 -0.2369392449
O  O107  1  0.24690000  0.66600000  0.24620000  1.0 -0.3684086324
O  O108  1  0.20720000  0.69170000  0.28870000  1.0 -0.1322866752
O  O109  1  0.74830000  0.32610000  0.25200000  1.0 -0.336511501
O  O110  1  0.78480000  0.30190000  0.29720000  1.0 -0.2369392449
O  O111  1  0.75310000  0.33400000  0.24620000  1.0 -0.3684086324
O  O112  1  0.79280000  0.30830000  0.28870000  1.0 -0.1322866752
O  O113  1  0.74800000  0.74830000  0.67390000  1.0 -0.336511501
O  O114  1  0.70280000  0.78480000  0.69810000  1.0 -0.2369392449
O  O115  1  0.75380000  0.75310000  0.66600000  1.0 -0.3684086324
O  O116  1  0.71130000  0.79280000  0.69170000  1.0 -0.1322866752
O  O117  1  0.74800000  0.25170000  0.32610000  1.0 -0.336511501
O  O118  1  0.70280000  0.21520000  0.30190000  1.0 -0.2369392449
O  O119  1  0.75380000  0.24690000  0.33400000  1.0 -0.3684086324
O  O120  1  0.71130000  0.20720000  0.30830000  1.0 -0.1322866752
O  O121  1  0.25200000  0.25170000  0.67390000  1.0 -0.336511501
O  O122  1  0.29720000  0.21520000  0.69810000  1.0 -0.2369392449
O  O123  1  0.24620000  0.24690000  0.66600000  1.0 -0.3684086324
O  O124  1  0.28870000  0.20720000  0.69170000  1.0 -0.1322866752
O  O125  1  0.25200000  0.74830000  0.32610000  1.0 -0.336511501
O  O126  1  0.29720000  0.78480000  0.30190000  1.0 -0.2369392449
O  O127  1  0.24620000  0.75310000  0.33400000  1.0 -0.3684086324
O  O128  1  0.28870000  0.79280000  0.30830000  1.0 -0.1322866752
O  O129  1  0.67390000  0.74800000  0.74830000  1.0 -0.336511501
O  O130  1  0.69810000  0.70280000  0.78480000  1.0 -0.2369392449
O  O131  1  0.66600000  0.75380000  0.75310000  1.0 -0.3684086324
O  O132  1  0.69170000  0.71130000  0.79280000  1.0 -0.1322866752
O  O133  1  0.32610000  0.74800000  0.25170000  1.0 -0.336511501
O  O134  1  0.30190000  0.70280000  0.21520000  1.0 -0.2369392449
O  O135  1  0.33400000  0.75380000  0.24690000  1.0 -0.3684086324
O  O136  1  0.30830000  0.71130000  0.20720000  1.0 -0.1322866752
O  O137  1  0.67390000  0.25200000  0.25170000  1.0 -0.336511501
O  O138  1  0.69810000  0.29720000  0.21520000  1.0 -0.2369392449
O  O139  1  0.66600000  0.24620000  0.24690000  1.0 -0.3684086324
O  O140  1  0.69170000  0.28870000  0.20720000  1.0 -0.1322866752
O  O141  1  0.32610000  0.25200000  0.74830000  1.0 -0.336511501
O  O142  1  0.30190000  0.29720000  0.78480000  1.0 -0.2369392449
O  O143  1  0.33400000  0.24620000  0.75310000  1.0 -0.3684086324
O  O144  1  0.30830000  0.28870000  0.79280000  1.0 -0.1322866752
O  O145  1  0.17390000  0.24830000  0.75200000  1.0 -0.336511501
O  O146  1  0.19810000  0.28480000  0.79720000  1.0 -0.2369392449
O  O147  1  0.16600000  0.25310000  0.74620000  1.0 -0.3684086324
O  O148  1  0.19170000  0.29280000  0.78870000  1.0 -0.1322866752
O  O149  1  0.82610000  0.75170000  0.75200000  1.0 -0.336511501
O  O150  1  0.80190000  0.71520000  0.79720000  1.0 -0.2369392449
O  O151  1  0.83400000  0.74690000  0.74620000  1.0 -0.3684086324
O  O152  1  0.80830000  0.70720000  0.78870000  1.0 -0.1322866752
O  O153  1  0.17390000  0.75170000  0.24800000  1.0 -0.336511501
O  O154  1  0.19810000  0.71520000  0.20280000  1.0 -0.2369392449
O  O155  1  0.16600000  0.74690000  0.25380000  1.0 -0.3684086324
O  O156  1  0.19170000  0.70720000  0.21130000  1.0 -0.1322866752
O  O157  1  0.82610000  0.24830000  0.24800000  1.0 -0.336511501
O  O158  1  0.80190000  0.28480000  0.20280000  1.0 -0.2369392449
O  O159  1  0.83400000  0.25310000  0.25380000  1.0 -0.3684086324
O  O160  1  0.80830000  0.29280000  0.21130000  1.0 -0.1322866752
O  O161  1  0.24830000  0.24800000  0.82610000  1.0 -0.336511501
O  O162  1  0.28480000  0.20280000  0.80190000  1.0 -0.2369392449
O  O163  1  0.25310000  0.25380000  0.83400000  1.0 -0.3684086324
O  O164  1  0.29280000  0.21130000  0.80830000  1.0 -0.1322866752
O  O165  1  0.75170000  0.24800000  0.17390000  1.0 -0.336511501
O  O166  1  0.71520000  0.20280000  0.19810000  1.0 -0.2369392449
O  O167  1  0.74690000  0.25380000  0.16600000  1.0 -0.3684086324
O  O168  1  0.70720000  0.21130000  0.19170000  1.0 -0.1322866752
O  O169  1  0.75170000  0.75200000  0.82610000  1.0 -0.336511501
O  O170  1  0.71520000  0.79720000  0.80190000  1.0 -0.2369392449
O  O171  1  0.74690000  0.74620000  0.83400000  1.0 -0.3684086324
O  O172  1  0.70720000  0.78870000  0.80830000  1.0 -0.1322866752
O  O173  1  0.24830000  0.75200000  0.17390000  1.0 -0.336511501
O  O174  1  0.28480000  0.79720000  0.19810000  1.0 -0.2369392449
O  O175  1  0.25310000  0.74620000  0.16600000  1.0 -0.3684086324
O  O176  1  0.29280000  0.78870000  0.19170000  1.0 -0.1322866752
O  O177  1  0.24800000  0.17390000  0.75170000  1.0 -0.336511501
O  O178  1  0.20280000  0.19810000  0.71520000  1.0 -0.2369392449
O  O179  1  0.25380000  0.16600000  0.74690000  1.0 -0.3684086324
O  O180  1  0.21130000  0.19170000  0.70720000  1.0 -0.1322866752
O  O181  1  0.24800000  0.82610000  0.24830000  1.0 -0.336511501
O  O182  1  0.20280000  0.80190000  0.28480000  1.0 -0.2369392449
O  O183  1  0.25380000  0.83400000  0.25310000  1.0 -0.3684086324
O  O184  1  0.21130000  0.80830000  0.29280000  1.0 -0.1322866752
O  O185  1  0.75200000  0.17390000  0.24830000  1.0 -0.336511501
O  O186  1  0.79720000  0.19810000  0.28480000  1.0 -0.2369392449
O  O187  1  0.74620000  0.16600000  0.25310000  1.0 -0.3684086324
O  O188  1  0.78870000  0.19170000  0.29280000  1.0 -0.1322866752
O  O189  1  0.75200000  0.82610000  0.75170000  1.0 -0.336511501
O  O190  1  0.79720000  0.80190000  0.71520000  1.0 -0.2369392449
O  O191  1  0.74620000  0.83400000  0.74690000  1.0 -0.3684086324
O  O192  1  0.78870000  0.80830000  0.70720000  1.0 -0.1322866752
O  O193  1  0.25000000  0.25000000  0.25000000  1.0 -0.4821510137
O  O194  1  0.75000000  0.75000000  0.25000000  1.0 -0.4821510137
O  O195  1  0.75000000  0.25000000  0.75000000  1.0 -0.4821510137
O  O196  1  0.25000000  0.75000000  0.75000000  1.0 -0.4821510137
O  O197  1  0.75000000  0.75000000  0.75000000  1.0 -0.4821510137
O  O198  1  0.25000000  0.25000000  0.75000000  1.0 -0.4821510137
O  O199  1  0.25000000  0.75000000  0.25000000  1.0 -0.4821510137
O  O200  1  0.75000000  0.25000000  0.25000000  1.0 -0.4821510137
