# DDEC6 charges by PACMAN v1.1 (https://github.com/mtap-research/PACMAN-charge/)
data_AYOYEU_FSR_pacman
_symmetry_space_group_name_H-M   'P 1'
_cell_length_a   12.49700000
_cell_length_b   12.56460000
_cell_length_c   15.16970000
_cell_angle_alpha   75.52300000
_cell_angle_beta   77.74800000
_cell_angle_gamma   85.43900000
_symmetry_Int_Tables_number   1
_chemical_formula_structural   CoH18C20(NO)4
_chemical_formula_sum   'Co4 H72 C80 N16 O16'
_cell_volume   2252.90075646
_cell_formula_units_Z   4
loop_
 _symmetry_equiv_pos_site_id
 _symmetry_equiv_pos_as_xyz
  1  'x, y, z'
loop_
 _atom_site_type_symbol
 _atom_site_label
 _atom_site_symmetry_multiplicity
 _atom_site_fract_x
 _atom_site_fract_y
 _atom_site_fract_z
 _atom_site_occupancy
 _atom_site_charge
Co  Co1  1  0.52394000  0.53148000  0.62335000  1.0 0.8414934088
Co  Co2  1  0.47606000  0.46852000  0.37665000  1.0 0.8414934088
Co  Co3  1  0.01125000  0.00965000  0.12617000  1.0 0.8414934088
Co  Co4  1  0.98875000  0.99035000  0.87383000  1.0 0.8414934088
H  H1  1  0.63150000  0.55770000  0.88050000  1.0 0.1398318723
H  H2  1  0.36850000  0.44230000  0.11950000  1.0 0.1398318723
H  H3  1  0.42970000  0.46260000  0.95160000  1.0 0.1284622871
H  H4  1  0.57030000  0.53740000  0.04840000  1.0 0.1284622871
H  H5  1  0.51670000  0.78350000  0.60950000  1.0 0.1199312744
H  H6  1  0.48330000  0.21650000  0.39050000  1.0 0.1199312744
H  H7  1  0.20930000  0.90530000  0.62320000  1.0 0.1199312744
H  H8  1  0.79070000  0.09470000  0.37680000  1.0 0.1199312744
H  H9  1  0.15200000  0.72940000  0.63920000  1.0 0.1284622871
H  H10  1  0.84800000  0.27060000  0.36080000  1.0 0.1284622871
H  H11  1  0.27850000  0.58600000  0.64140000  1.0 0.1123475158
H  H12  1  0.72150000  0.41400000  0.35860000  1.0 0.1123475158
H  H13  1  0.78240000  0.01460000  0.65690000  1.0 0.1398318723
H  H14  1  0.21760000  0.98540000  0.34310000  1.0 0.1398318723
H  H15  1  0.68470000  0.93580000  0.70490000  1.0 0.157441055
H  H16  1  0.31530000  0.06420000  0.29510000  1.0 0.157441055
H  H17  1  0.72660000  0.95910000  0.59710000  1.0 0.1506005464
H  H18  1  0.27340000  0.04090000  0.40290000  1.0 0.1506005464
H  H19  1  0.76330000  0.47330000  0.61640000  1.0 0.1199312744
H  H20  1  0.23670000  0.52670000  0.38360000  1.0 0.1199312744
H  H21  1  0.83290000  0.15400000  0.63460000  1.0 0.1123475158
H  H22  1  0.16710000  0.84600000  0.36540000  1.0 0.1123475158
H  H23  1  0.52830000  0.27750000  0.63400000  1.0 0.1123475158
H  H24  1  0.47170000  0.72250000  0.36600000  1.0 0.1123475158
H  H25  1  0.95330000  0.24930000  0.12200000  1.0 0.1199312744
H  H26  1  0.04670000  0.75070000  0.87800000  1.0 0.1199312744
H  H27  1  0.80910000  0.37520000  0.12610000  1.0 0.1284622871
H  H28  1  0.19090000  0.62480000  0.87390000  1.0 0.1284622871
H  H29  1  0.63380000  0.31700000  0.13650000  1.0 0.1123475158
H  H30  1  0.36620000  0.68300000  0.86350000  1.0 0.1123475158
H  H31  1  0.76050000  0.01470000  0.13430000  1.0 0.1123475158
H  H32  1  0.23950000  0.98530000  0.86570000  1.0 0.1123475158
H  H33  1  0.49350000  0.26090000  0.16560000  1.0 0.1284622871
H  H34  1  0.50650000  0.73910000  0.83440000  1.0 0.1284622871
H  H35  1  0.43340000  0.21040000  0.10530000  1.0 0.1506005464
H  H36  1  0.56660000  0.78960000  0.89470000  1.0 0.1506005464
H  H37  1  0.41990000  0.15860000  0.21230000  1.0 0.157441055
H  H38  1  0.58010000  0.84140000  0.78770000  1.0 0.157441055
H  H39  1  0.52690000  0.75340000  0.08550000  1.0 0.1398318723
H  H40  1  0.47310000  0.24660000  0.91450000  1.0 0.1398318723
H  H41  1  0.59990000  0.85600000  0.03830000  1.0 0.157441055
H  H42  1  0.40010000  0.14400000  0.96170000  1.0 0.157441055
H  H43  1  0.58840000  0.80350000  0.14500000  1.0 0.1506005464
H  H44  1  0.41160000  0.19650000  0.85500000  1.0 0.1506005464
H  H45  1  0.26290000  0.00170000  0.11400000  1.0 0.1199312744
H  H46  1  0.73710000  0.99830000  0.88600000  1.0 0.1199312744
H  H47  1  0.38590000  0.69710000  0.11830000  1.0 0.1123475158
H  H48  1  0.61410000  0.30290000  0.88170000  1.0 0.1123475158
H  H49  1  0.21080000  0.64230000  0.12450000  1.0 0.1284622871
H  H50  1  0.78920000  0.35770000  0.87550000  1.0 0.1284622871
H  H51  1  0.06650000  0.76830000  0.12930000  1.0 0.1123475158
H  H52  1  0.93350000  0.23170000  0.87070000  1.0 0.1123475158
H  H53  1  0.21710000  0.28400000  0.91320000  1.0 0.1506005464
H  H54  1  0.78290000  0.71600000  0.08680000  1.0 0.1506005464
H  H55  1  0.14840000  0.20380000  0.78210000  1.0 0.1199312744
H  H56  1  0.85160000  0.79620000  0.21790000  1.0 0.1199312744
H  H57  1  0.30580000  0.36930000  0.74700000  1.0 0.1199312744
H  H58  1  0.69420000  0.63070000  0.25300000  1.0 0.1199312744
H  H59  1  0.22550000  0.28480000  0.62370000  1.0 0.1506005464
H  H60  1  0.77450000  0.71520000  0.37630000  1.0 0.1506005464
H  H61  1  0.26910000  0.04820000  0.57520000  1.0 0.1398318723
H  H62  1  0.73090000  0.95180000  0.42480000  1.0 0.1398318723
H  H63  1  0.31870000  0.10850000  0.63560000  1.0 0.1506005464
H  H64  1  0.68130000  0.89150000  0.36440000  1.0 0.1506005464
H  H65  1  0.37180000  0.12130000  0.53030000  1.0 0.157441055
H  H66  1  0.62820000  0.87870000  0.46970000  1.0 0.157441055
H  H67  1  0.93440000  0.88600000  0.43830000  1.0 0.1506005464
H  H68  1  0.06560000  0.11400000  0.56170000  1.0 0.1506005464
H  H69  1  0.03920000  0.07790000  0.41580000  1.0 0.1284622871
H  H70  1  0.96080000  0.92210000  0.58420000  1.0 0.1284622871
H  H71  1  0.88920000  0.32890000  0.62370000  1.0 0.1284622871
H  H72  1  0.11080000  0.67110000  0.37630000  1.0 0.1284622871
C  C1  1  0.54600000  0.52720000  0.78430000  1.0 0.5686607469
C  C2  1  0.45400000  0.47280000  0.21570000  1.0 0.5686607469
C  C3  1  0.56600000  0.53030000  0.87690000  1.0 -0.2313361998
C  C4  1  0.43400000  0.46970000  0.12310000  1.0 -0.2313361998
C  C5  1  0.49260000  0.49490000  0.95490000  1.0 -0.0697691332
C  C6  1  0.50740000  0.50510000  0.04510000  1.0 -0.0697691332
C  C7  1  0.44240000  0.77280000  0.61580000  1.0 0.058820258
C  C8  1  0.55760000  0.22720000  0.38420000  1.0 0.058820258
C  C9  1  0.37030000  0.86340000  0.61630000  1.0 -0.0122413935
C  C10  1  0.62970000  0.13660000  0.38370000  1.0 -0.0122413935
C  C11  1  0.25970000  0.84660000  0.62420000  1.0 -0.081384743
C  C12  1  0.74030000  0.15340000  0.37580000  1.0 -0.081384743
C  C13  1  0.22570000  0.74220000  0.63340000  1.0 -0.1431712698
C  C14  1  0.77430000  0.25780000  0.36660000  1.0 -0.1431712698
C  C15  1  0.30230000  0.65650000  0.63390000  1.0 0.071220324
C  C16  1  0.69770000  0.34350000  0.36610000  1.0 0.071220324
C  C17  1  0.40900000  0.97400000  0.61080000  1.0 0.2642604221
C  C18  1  0.59100000  0.02600000  0.38920000  1.0 0.2642604221
C  C19  1  0.63490000  0.08620000  0.63710000  1.0 0.2685921201
C  C20  1  0.36510000  0.91380000  0.36290000  1.0 0.2685921201
C  C21  1  0.71430000  0.99030000  0.65020000  1.0 -0.5105953108
C  C22  1  0.28570000  0.00970000  0.34980000  1.0 -0.5105953108
C  C23  1  0.73990000  0.40320000  0.62160000  1.0 0.071220324
C  C24  1  0.26010000  0.59680000  0.37840000  1.0 0.071220324
C  C25  1  0.78260000  0.21280000  0.63170000  1.0 -0.081384743
C  C26  1  0.21740000  0.78720000  0.36830000  1.0 -0.081384743
C  C27  1  0.67320000  0.19610000  0.63380000  1.0 -0.0152893126
C  C28  1  0.32680000  0.80390000  0.36620000  1.0 -0.0152893126
C  C29  1  0.60190000  0.28760000  0.63130000  1.0 0.058820258
C  C30  1  0.39810000  0.71240000  0.36870000  1.0 0.058820258
C  C31  1  0.88340000  0.22610000  0.12550000  1.0 0.071220324
C  C32  1  0.11660000  0.77390000  0.87450000  1.0 0.071220324
C  C33  1  0.79730000  0.30240000  0.12810000  1.0 -0.1468918141
C  C34  1  0.20270000  0.69760000  0.87190000  1.0 -0.1468918141
C  C35  1  0.69320000  0.26750000  0.13380000  1.0 -0.081384743
C  C36  1  0.30680000  0.73250000  0.86620000  1.0 -0.081384743
C  C37  1  0.67710000  0.15840000  0.13540000  1.0 -0.0122413935
C  C38  1  0.32290000  0.84160000  0.86460000  1.0 -0.0122413935
C  C39  1  0.76970000  0.08790000  0.13260000  1.0 0.058820258
C  C40  1  0.23030000  0.91210000  0.86740000  1.0 0.058820258
C  C41  1  0.56690000  0.11920000  0.13890000  1.0 0.2685921201
C  C42  1  0.43310000  0.88080000  0.86110000  1.0 0.2685921201
C  C43  1  0.46970000  0.19400000  0.15720000  1.0 -0.5105953108
C  C44  1  0.53030000  0.80600000  0.84280000  1.0 -0.5105953108
C  C45  1  0.45390000  0.89480000  0.11370000  1.0 0.2685921201
C  C46  1  0.54610000  0.10520000  0.88630000  1.0 0.2685921201
C  C47  1  0.55100000  0.82020000  0.09380000  1.0 -0.5023718964
C  C48  1  0.44900000  0.17980000  0.90620000  1.0 -0.5023718964
C  C49  1  0.25260000  0.92820000  0.11720000  1.0 0.058820258
C  C50  1  0.74740000  0.07180000  0.88280000  1.0 0.058820258
C  C51  1  0.34370000  0.85710000  0.11690000  1.0 -0.0122413935
C  C52  1  0.65630000  0.14290000  0.88310000  1.0 -0.0122413935
C  C53  1  0.32720000  0.74750000  0.11930000  1.0 -0.081384743
C  C54  1  0.67280000  0.25250000  0.88070000  1.0 -0.081384743
C  C55  1  0.22300000  0.71480000  0.12330000  1.0 -0.1468918141
C  C56  1  0.77700000  0.28520000  0.87670000  1.0 -0.1468918141
C  C57  1  0.13660000  0.79130000  0.12540000  1.0 0.071220324
C  C58  1  0.86340000  0.20870000  0.87460000  1.0 0.071220324
C  C59  1  0.18150000  0.23590000  0.89210000  1.0 -0.2481169368
C  C60  1  0.81850000  0.76410000  0.10790000  1.0 -0.2481169368
C  C61  1  0.19140000  0.24720000  0.80130000  1.0 -0.0493700787
C  C62  1  0.80860000  0.75280000  0.19870000  1.0 -0.0493700787
C  C63  1  0.26440000  0.32240000  0.72980000  1.0 -0.0608021881
C  C64  1  0.73560000  0.67760000  0.27020000  1.0 -0.0608021881
C  C65  1  0.27330000  0.32550000  0.64050000  1.0 -0.2392610874
C  C66  1  0.72670000  0.67450000  0.35950000  1.0 -0.2392610874
C  C67  1  0.35700000  0.39180000  0.56580000  1.0 0.6107680012
C  C68  1  0.64300000  0.60820000  0.43420000  1.0 0.6107680012
C  C69  1  0.33560000  0.07170000  0.58580000  1.0 -0.5023718964
C  C70  1  0.66440000  0.92830000  0.41420000  1.0 -0.5023718964
C  C71  1  0.98660000  0.97710000  0.30130000  1.0 0.5686607469
C  C72  1  0.01340000  0.02290000  0.69870000  1.0 0.5686607469
C  C73  1  0.97050000  0.94990000  0.40440000  1.0 -0.2392610874
C  C74  1  0.02950000  0.05010000  0.59560000  1.0 -0.2392610874
C  C75  1  0.00550000  0.01290000  0.45010000  1.0 -0.0697691332
C  C76  1  0.99450000  0.98710000  0.54990000  1.0 -0.0697691332
C  C77  1  0.11420000  0.14730000  0.96080000  1.0 0.602211218
C  C78  1  0.88580000  0.85270000  0.03920000  1.0 0.602211218
C  C79  1  0.81630000  0.31690000  0.62540000  1.0 -0.1431712698
C  C80  1  0.18370000  0.68310000  0.37460000  1.0 -0.1431712698
N  N1  1  0.40960000  0.67120000  0.62410000  1.0 -0.2313361998
N  N2  1  0.59040000  0.32880000  0.37590000  1.0 -0.2313361998
N  N3  1  0.63340000  0.38950000  0.62500000  1.0 -0.2313361998
N  N4  1  0.36660000  0.61050000  0.37500000  1.0 -0.2313361998
N  N5  1  0.15050000  0.89740000  0.12190000  1.0 -0.2313361998
N  N6  1  0.84950000  0.10260000  0.87810000  1.0 -0.2313361998
N  N7  1  0.87120000  0.12050000  0.12780000  1.0 -0.2313361998
N  N8  1  0.12880000  0.87950000  0.87220000  1.0 -0.2313361998
N  N9  1  0.53610000  0.08220000  0.62610000  1.0 -0.2392610874
N  N10  1  0.46390000  0.91780000  0.37390000  1.0 -0.2392610874
N  N11  1  0.50470000  0.97610000  0.62940000  1.0 -0.2128976363
N  N12  1  0.49530000  0.02390000  0.37060000  1.0 -0.2128976363
N  N13  1  0.45770000  0.99050000  0.12820000  1.0 -0.2128976363
N  N14  1  0.54230000  0.00950000  0.87180000  1.0 -0.2128976363
N  N15  1  0.56380000  0.02240000  0.12460000  1.0 -0.2392610874
N  N16  1  0.43620000  0.97760000  0.87540000  1.0 -0.2392610874
O  O1  1  0.60900000  0.58320000  0.71350000  1.0 -0.5388749928
O  O2  1  0.39100000  0.41680000  0.28650000  1.0 -0.5388749928
O  O3  1  0.47010000  0.47360000  0.77640000  1.0 -0.5489887785
O  O4  1  0.52990000  0.52640000  0.22360000  1.0 -0.5489887785
O  O5  1  0.41160000  0.45780000  0.58610000  1.0 -0.5720410536
O  O6  1  0.58840000  0.54220000  0.41390000  1.0 -0.5720410536
O  O7  1  0.36720000  0.37740000  0.48530000  1.0 -0.5306563567
O  O8  1  0.63280000  0.62260000  0.51470000  1.0 -0.5306563567
O  O9  1  0.04230000  0.05780000  0.25130000  1.0 -0.5388749928
O  O10  1  0.95770000  0.94220000  0.74870000  1.0 -0.5388749928
O  O11  1  0.94500000  0.91500000  0.26460000  1.0 -0.5388749928
O  O12  1  0.05500000  0.08500000  0.73540000  1.0 -0.5388749928
O  O13  1  0.11240000  0.13770000  0.04610000  1.0 -0.5306563567
O  O14  1  0.88760000  0.86230000  0.95390000  1.0 -0.5306563567
O  O15  1  0.06240000  0.08530000  0.93360000  1.0 -0.5720410536
O  O16  1  0.93760000  0.91470000  0.06640000  1.0 -0.5720410536
