# DDEC6 charges by PACMAN v1.1 (https://github.com/mtap-research/PACMAN-charge/)
data_AYOYOE_ion_pacman
_symmetry_space_group_name_H-M   'P 1'
_cell_length_a   10.05240000
_cell_length_b   12.50760000
_cell_length_c   19.20830000
_cell_angle_alpha   90.33700000
_cell_angle_beta   103.34300000
_cell_angle_gamma   99.92600000
_symmetry_Int_Tables_number   1
_chemical_formula_structural   Ni5H74C84(N11O13)2
_chemical_formula_sum   'Ni5 H74 C84 N22 O26'
_cell_volume   2312.08988471
_cell_formula_units_Z   1
loop_
 _symmetry_equiv_pos_site_id
 _symmetry_equiv_pos_as_xyz
  1  'x, y, z'
loop_
 _atom_site_type_symbol
 _atom_site_label
 _atom_site_symmetry_multiplicity
 _atom_site_fract_x
 _atom_site_fract_y
 _atom_site_fract_z
 _atom_site_occupancy
 _atom_site_charge
Ni  Ni1  1  0.26404000  0.22151000  0.32137000  1.0 0.7522814138
Ni  Ni2  1  0.73596000  0.77849000  0.67863000  1.0 0.7522814138
Ni  Ni3  1  0.34251000  0.30888000  0.14792000  1.0 0.8258450492
Ni  Ni4  1  0.65749000  0.69112000  0.85208000  1.0 0.8258450492
Ni  Ni5  1  0.00000000  0.00000000  0.50000000  1.0 0.8507664664
H  H1  1  0.53230000  0.46860000  0.12750000  1.0 0.4075633152
H  H2  1  0.46770000  0.53140000  0.87250000  1.0 0.4075633152
H  H3  1  0.45800000  0.40640000  0.05120000  1.0 0.400228606
H  H4  1  0.54200000  0.59360000  0.94880000  1.0 0.400228606
H  H5  1  0.72190000  0.69800000  0.40120000  1.0 0.1098256642
H  H6  1  0.27810000  0.30200000  0.59880000  1.0 0.1098256642
H  H7  1  0.54000000  0.51570000  0.43550000  1.0 0.1098256642
H  H8  1  0.46000000  0.48430000  0.56450000  1.0 0.1098256642
H  H9  1  0.96100000  0.21450000  0.31990000  1.0 0.1011825837
H  H10  1  0.03900000  0.78550000  0.68010000  1.0 0.1011825837
H  H11  1  0.80090000  0.32520000  0.31650000  1.0 0.1211083123
H  H12  1  0.19910000  0.67480000  0.68350000  1.0 0.1211083123
H  H13  1  0.86570000  0.51120000  0.31170000  1.0 0.1211083123
H  H14  1  0.13430000  0.48880000  0.68830000  1.0 0.1211083123
H  H15  1  0.24710000  0.46320000  0.31310000  1.0 0.1098256642
H  H16  1  0.75290000  0.53680000  0.68690000  1.0 0.1098256642
H  H17  1  0.05470000  0.67310000  0.31240000  1.0 0.1011825837
H  H18  1  0.94530000  0.32690000  0.68760000  1.0 0.1011825837
H  H19  1  0.61910000  0.55200000  0.30940000  1.0 0.1315991564
H  H20  1  0.38090000  0.44800000  0.69060000  1.0 0.1315991564
H  H21  1  0.32990000  0.55030000  0.15280000  1.0 0.1098256642
H  H22  1  0.67010000  0.44970000  0.84720000  1.0 0.1098256642
H  H23  1  0.93630000  0.59410000  0.09790000  1.0 0.1315991564
H  H24  1  0.06370000  0.40590000  0.90210000  1.0 0.1315991564
H  H25  1  0.86690000  0.40630000  0.08930000  1.0 0.1315991564
H  H26  1  0.13310000  0.59370000  0.91070000  1.0 0.1315991564
H  H27  1  0.03320000  0.29830000  0.11150000  1.0 0.1098256642
H  H28  1  0.96680000  0.70170000  0.88850000  1.0 0.1098256642
H  H29  1  0.12750000  0.75750000  0.12980000  1.0 0.1011825837
H  H30  1  0.87250000  0.24250000  0.87020000  1.0 0.1011825837
H  H31  1  0.52410000  0.85110000  0.13290000  1.0 0.1098256642
H  H32  1  0.47590000  0.14890000  0.86710000  1.0 0.1098256642
H  H33  1  0.72060000  0.00690000  0.15000000  1.0 0.1211083123
H  H34  1  0.27940000  0.99310000  0.85000000  1.0 0.1211083123
H  H35  1  0.80250000  0.19120000  0.16530000  1.0 0.1315991564
H  H36  1  0.19750000  0.80880000  0.83470000  1.0 0.1315991564
H  H37  1  0.65150000  0.30870000  0.16820000  1.0 0.1011825837
H  H38  1  0.34850000  0.69130000  0.83180000  1.0 0.1011825837
H  H39  1  0.33930000  0.06780000  0.13720000  1.0 0.1098256642
H  H40  1  0.66070000  0.93220000  0.86280000  1.0 0.1098256642
H  H41  1  0.07070000  0.09990000  0.09410000  1.0 0.1476069106
H  H42  1  0.92930000  0.90010000  0.90590000  1.0 0.1476069106
H  H43  1  0.96920000  0.94770000  0.18000000  1.0 0.1098256642
H  H44  1  0.03080000  0.05230000  0.82000000  1.0 0.1098256642
H  H45  1  0.91370000  0.93470000  0.02720000  1.0 0.1211083123
H  H46  1  0.08630000  0.06530000  0.97280000  1.0 0.1211083123
H  H47  1  0.82350000  0.78690000  0.11750000  1.0 0.1211083123
H  H48  1  0.17650000  0.21310000  0.88250000  1.0 0.1211083123
H  H49  1  0.57220000  0.22130000  0.33050000  1.0 0.1011825837
H  H50  1  0.42780000  0.77870000  0.66950000  1.0 0.1011825837
H  H51  1  0.72510000  0.10530000  0.33320000  1.0 0.1211083123
H  H52  1  0.27490000  0.89470000  0.66680000  1.0 0.1211083123
H  H53  1  0.64760000  0.91960000  0.32940000  1.0 0.1098256642
H  H54  1  0.35240000  0.08040000  0.67060000  1.0 0.1098256642
H  H55  1  0.26530000  0.97890000  0.32010000  1.0 0.1211083123
H  H56  1  0.73470000  0.02110000  0.67990000  1.0 0.1211083123
H  H57  1  0.45320000  0.76380000  0.31700000  1.0 0.1011825837
H  H58  1  0.54680000  0.23620000  0.68300000  1.0 0.1011825837
H  H59  1  0.63900000  0.66400000  0.52740000  1.0 0.1315991564
H  H60  1  0.36100000  0.33600000  0.47260000  1.0 0.1315991564
H  H61  1  0.10720000  0.03270000  0.63950000  1.0 0.3765854252
H  H62  1  0.89280000  0.96730000  0.36050000  1.0 0.3765854252
H  H63  1  0.98220000  0.92980000  0.62790000  1.0 0.3930872543
H  H64  1  0.01780000  0.07020000  0.37210000  1.0 0.3930872543
H  H65  1  0.00910000  0.75690000  0.49700000  1.0 0.1098256642
H  H66  1  0.99090000  0.24310000  0.50300000  1.0 0.1098256642
H  H67  1  0.38580000  0.70030000  0.49450000  1.0 0.1211083123
H  H68  1  0.61420000  0.29970000  0.50550000  1.0 0.1211083123
H  H69  1  0.45740000  0.88650000  0.48940000  1.0 0.1211083123
H  H70  1  0.54260000  0.11350000  0.51060000  1.0 0.1211083123
H  H71  1  0.30220000  0.99990000  0.48900000  1.0 0.1011825837
H  H72  1  0.69780000  0.00010000  0.51100000  1.0 0.1011825837
H  H73  1  0.19710000  0.54420000  0.49490000  1.0 0.1011825837
H  H74  1  0.80290000  0.45580000  0.50510000  1.0 0.1011825837
C  C1  1  0.13110000  0.12940000  0.20564000  1.0 0.5808085664
C  C2  1  0.86890000  0.87060000  0.79436000  1.0 0.5808085664
C  C3  1  0.67310000  0.65940000  0.43147000  1.0 -0.0630596192
C  C4  1  0.32690000  0.34060000  0.56853000  1.0 -0.0630596192
C  C5  1  0.58640000  0.55530000  0.40465000  1.0 -0.0731110025
C  C6  1  0.41360000  0.44470000  0.59535000  1.0 -0.0731110025
C  C7  1  0.98840000  0.28910000  0.31790000  1.0 0.0591007655
C  C8  1  0.01160000  0.71090000  0.68210000  1.0 0.0591007655
C  C9  1  0.89190000  0.35510000  0.31590000  1.0 -0.1479556199
C  C10  1  0.10810000  0.64490000  0.68410000  1.0 -0.1479556199
C  C11  1  0.93010000  0.46560000  0.31300000  1.0 -0.0731110025
C  C12  1  0.06990000  0.53440000  0.68700000  1.0 -0.0731110025
C  C13  1  0.06490000  0.50730000  0.31210000  1.0 0.0315141635
C  C14  1  0.93510000  0.49270000  0.68790000  1.0 0.0315141635
C  C15  1  0.15570000  0.43520000  0.31400000  1.0 0.0492058131
C  C16  1  0.84430000  0.56480000  0.68600000  1.0 0.0492058131
C  C17  1  0.11570000  0.62510000  0.31230000  1.0 0.0492058131
C  C18  1  0.88430000  0.37490000  0.68770000  1.0 0.0492058131
C  C19  1  0.75380000  0.74120000  0.00865000  1.0 0.6072710021
C  C20  1  0.24620000  0.25880000  0.99135000  1.0 0.6072710021
C  C21  1  0.47710000  0.40900000  0.30939000  1.0 0.6072710021
C  C22  1  0.52290000  0.59100000  0.69061000  1.0 0.6072710021
C  C23  1  0.56940000  0.51330000  0.33923000  1.0 -0.2547655242
C  C24  1  0.43060000  0.48670000  0.66077000  1.0 -0.2547655242
C  C25  1  0.23560000  0.52120000  0.13940000  1.0 0.0591007655
C  C26  1  0.76440000  0.47880000  0.86060000  1.0 0.0591007655
C  C27  1  0.14050000  0.59180000  0.12450000  1.0 0.0380651708
C  C28  1  0.85950000  0.40820000  0.87550000  1.0 0.0380651708
C  C29  1  0.00200000  0.54880000  0.10670000  1.0 -0.0789925989
C  C30  1  0.99800000  0.45120000  0.89330000  1.0 -0.0789925989
C  C31  1  0.96060000  0.43740000  0.10180000  1.0 -0.1431889584
C  C32  1  0.03940000  0.56260000  0.89820000  1.0 -0.1431889584
C  C33  1  0.06110000  0.37340000  0.11580000  1.0 0.0690462826
C  C34  1  0.93890000  0.62660000  0.88420000  1.0 0.0690462826
C  C35  1  0.18950000  0.71080000  0.12810000  1.0 0.0591007655
C  C36  1  0.81050000  0.28920000  0.87190000  1.0 0.0591007655
C  C37  1  0.46440000  0.89950000  0.13530000  1.0 0.0492058131
C  C38  1  0.53560000  0.10050000  0.86470000  1.0 0.0492058131
C  C39  1  0.51940000  0.01720000  0.14240000  1.0 0.0380651708
C  C40  1  0.48060000  0.98280000  0.85760000  1.0 0.0380651708
C  C41  1  0.66000000  0.05510000  0.15070000  1.0 -0.0789925989
C  C42  1  0.34000000  0.94490000  0.84930000  1.0 -0.0789925989
C  C43  1  0.70840000  0.16420000  0.16000000  1.0 -0.1431889584
C  C44  1  0.29160000  0.83580000  0.84000000  1.0 -0.1431889584
C  C45  1  0.61720000  0.23450000  0.16160000  1.0 0.0591007655
C  C46  1  0.38280000  0.76550000  0.83840000  1.0 0.0591007655
C  C47  1  0.43420000  0.09280000  0.14370000  1.0 0.0591007655
C  C48  1  0.56580000  0.90720000  0.85630000  1.0 0.0591007655
C  C49  1  0.05940000  0.06990000  0.13698000  1.0 -0.2652236061
C  C50  1  0.94060000  0.93010000  0.86302000  1.0 -0.2652236061
C  C51  1  0.97970000  0.97460000  0.13617000  1.0 -0.0475118184
C  C52  1  0.02030000  0.02540000  0.86383000  1.0 -0.0475118184
C  C53  1  0.90610000  0.90790000  0.07143000  1.0 -0.0731110025
C  C54  1  0.09390000  0.09210000  0.92857000  1.0 -0.0731110025
C  C55  1  0.83030000  0.81250000  0.07287000  1.0 -0.2294824557
C  C56  1  0.16970000  0.18750000  0.92713000  1.0 -0.2294824557
C  C57  1  0.53950000  0.14690000  0.32889000  1.0 0.0591007655
C  C58  1  0.46050000  0.85310000  0.67111000  1.0 0.0591007655
C  C59  1  0.63190000  0.07770000  0.33040000  1.0 -0.1431889584
C  C60  1  0.36810000  0.92230000  0.66960000  1.0 -0.1479556199
C  C61  1  0.58590000  0.96760000  0.32780000  1.0 -0.0919533433
C  C62  1  0.41410000  0.03240000  0.67220000  1.0 -0.0919533433
C  C63  1  0.44680000  0.92930000  0.32260000  1.0 0.0380651708
C  C64  1  0.55320000  0.07070000  0.67740000  1.0 0.0380651708
C  C65  1  0.35880000  0.00440000  0.32235000  1.0 0.0492058131
C  C66  1  0.64120000  0.99560000  0.67765000  1.0 0.0492058131
C  C67  1  0.39270000  0.81210000  0.31760000  1.0 0.0492058131
C  C68  1  0.60730000  0.18790000  0.68240000  1.0 0.0492058131
C  C69  1  0.77510000  0.80990000  0.52317000  1.0 0.6072710021
C  C70  1  0.22490000  0.19010000  0.47683000  1.0 0.6072710021
C  C71  1  0.68690000  0.70270000  0.49676000  1.0 -0.2800563709
C  C72  1  0.31310000  0.29730000  0.50324000  1.0 -0.2800563709
C  C73  1  0.10090000  0.78340000  0.49590000  1.0 0.0591007655
C  C74  1  0.89910000  0.21660000  0.50410000  1.0 0.0591007655
C  C75  1  0.18870000  0.70940000  0.49620000  1.0 0.0315141635
C  C76  1  0.81130000  0.29060000  0.50380000  1.0 0.0315141635
C  C77  1  0.32400000  0.74780000  0.49410000  1.0 -0.0789925989
C  C78  1  0.67600000  0.25220000  0.50590000  1.0 -0.0789925989
C  C79  1  0.36650000  0.85820000  0.49130000  1.0 -0.1431889584
C  C80  1  0.63350000  0.14180000  0.50870000  1.0 -0.1431889584
C  C81  1  0.27250000  0.92570000  0.49120000  1.0 0.0690462826
C  C82  1  0.72750000  0.07430000  0.50880000  1.0 0.0690462826
C  C83  1  0.13760000  0.59290000  0.49680000  1.0 0.0380651708
C  C84  1  0.86240000  0.40710000  0.50320000  1.0 0.0380651708
N  N1  1  0.26700000  0.77550000  0.31410000  1.0 -0.181090212
N  N2  1  0.73300000  0.22450000  0.68590000  1.0 -0.181090212
N  N3  1  0.11960000  0.32790000  0.31703000  1.0 -0.2136875825
N  N4  1  0.88040000  0.67210000  0.68297000  1.0 -0.2136875825
N  N5  1  0.23910000  0.66110000  0.31230000  1.0 -0.1979893395
N  N6  1  0.76090000  0.33890000  0.68770000  1.0 -0.1979893395
N  N7  1  0.48030000  0.19890000  0.15378000  1.0 -0.2191059129
N  N8  1  0.51970000  0.80110000  0.84622000  1.0 -0.2191059129
N  N9  1  0.19640000  0.41380000  0.13514000  1.0 -0.2191059129
N  N10  1  0.80360000  0.58620000  0.86486000  1.0 -0.2191059129
N  N11  1  0.31220000  0.74890000  0.12880000  1.0 -0.181090212
N  N12  1  0.68780000  0.25110000  0.87120000  1.0 -0.181090212
N  N13  1  0.33850000  0.86330000  0.13250000  1.0 -0.1979893395
N  N14  1  0.66150000  0.13670000  0.86750000  1.0 -0.1979893395
N  N15  1  0.40410000  0.11220000  0.32520000  1.0 -0.2191059129
N  N16  1  0.59590000  0.88780000  0.67480000  1.0 -0.2191059129
N  N17  1  0.14040000  0.89060000  0.49409000  1.0 -0.2294824557
N  N18  1  0.85960000  0.10940000  0.50591000  1.0 -0.2294824557
N  N19  1  0.01400000  0.55750000  0.49970000  1.0 -0.181090212
N  N20  1  0.98600000  0.44250000  0.50030000  1.0 -0.181090212
N  N21  1  0.81830000  0.78060000  0.27570000  1.0 0.646027313
N  N22  1  0.18170000  0.21940000  0.72430000  1.0 0.646027313
O  O1  1  0.10220000  0.10079000  0.26317000  1.0 -0.5105343001
O  O2  1  0.89780000  0.89921000  0.73683000  1.0 -0.5105343001
O  O3  1  0.22780000  0.21211000  0.20715000  1.0 -0.5505183922
O  O4  1  0.77220000  0.78789000  0.79285000  1.0 -0.5505183922
O  O5  1  0.76420000  0.76929000  0.94883000  1.0 -0.5394879716
O  O6  1  0.23580000  0.23071000  0.05117000  1.0 -0.5394879716
O  O7  1  0.46030000  0.39004000  0.24404000  1.0 -0.5607209143
O  O8  1  0.53970000  0.60996000  0.75596000  1.0 -0.5607209143
O  O9  1  0.42200000  0.34922000  0.35214000  1.0 -0.5607209143
O  O10  1  0.57800000  0.65078000  0.64786000  1.0 -0.5607209143
O  O11  1  0.46660000  0.41340000  0.10030000  1.0 -0.7416612791
O  O12  1  0.53340000  0.58660000  0.89970000  1.0 -0.7416612791
O  O13  1  0.78310000  0.84070000  0.58724000  1.0 -0.5607209143
O  O14  1  0.21690000  0.15930000  0.41276000  1.0 -0.5607209143
O  O15  1  0.83580000  0.86597000  0.48204000  1.0 -0.5505183922
O  O16  1  0.16420000  0.13403000  0.51796000  1.0 -0.5505183922
O  O17  1  0.68930000  0.65160000  0.02103000  1.0 -0.5659869747
O  O18  1  0.31070000  0.34840000  0.97897000  1.0 -0.5659869747
O  O19  1  0.03650000  0.98469000  0.60906000  1.0 -0.7416612791
O  O20  1  0.96350000  0.01531000  0.39094000  1.0 -0.7416612791
O  O21  1  0.90590000  0.80740000  0.33270000  1.0 -0.3703778969
O  O22  1  0.79940000  0.68470000  0.25840000  1.0 -0.3822760718
O  O23  1  0.77350000  0.84920000  0.24250000  1.0 -0.3596532779
O  O24  1  0.09410000  0.19260000  0.66730000  1.0 -0.3703778969
O  O25  1  0.20060000  0.31530000  0.74160000  1.0 -0.3822760718
O  O26  1  0.22650000  0.15080000  0.75750000  1.0 -0.3596532779
