# DDEC6 charges by PACMAN v1.1 (https://github.com/mtap-research/PACMAN-charge/)
data_AYUJIP_ASR_pacman
_symmetry_space_group_name_H-M   'P 1'
_cell_length_a   28.05540000
_cell_length_b   28.05540000
_cell_length_c   28.05540000
_cell_angle_alpha   117.22200000
_cell_angle_beta   117.22200000
_cell_angle_gamma   117.22200000
_symmetry_Int_Tables_number   1
_chemical_formula_structural   Mn6H39C31(NO8)2
_chemical_formula_sum   'Mn36 H234 C186 N12 O96'
_cell_volume   9389.85199991
_cell_formula_units_Z   6
loop_
 _symmetry_equiv_pos_site_id
 _symmetry_equiv_pos_as_xyz
  1  'x, y, z'
loop_
 _atom_site_type_symbol
 _atom_site_label
 _atom_site_symmetry_multiplicity
 _atom_site_fract_x
 _atom_site_fract_y
 _atom_site_fract_z
 _atom_site_occupancy
 _atom_site_charge
Mn  Mn1  1  0.48436000  0.51433000  0.95595000  1.0 1.0252437373
Mn  Mn2  1  0.51433000  0.95595000  0.48436000  1.0 1.0245888015
Mn  Mn3  1  0.95595000  0.48436000  0.51433000  1.0 1.0252437373
Mn  Mn4  1  0.51564000  0.48567000  0.04405000  1.0 1.0245888015
Mn  Mn5  1  0.48567000  0.04405000  0.51564000  1.0 1.0252437373
Mn  Mn6  1  0.04405000  0.51564000  0.48567000  1.0 1.0245888015
Mn  Mn7  1  0.48566000  0.38938000  0.89483000  1.0 0.9943434974
Mn  Mn8  1  0.38938000  0.89483000  0.48566000  1.0 0.9943434974
Mn  Mn9  1  0.89483000  0.48566000  0.38938000  1.0 0.9943434974
Mn  Mn10  1  0.51434000  0.61062000  0.10517000  1.0 0.9943434974
Mn  Mn11  1  0.61062000  0.10517000  0.51434000  1.0 0.9943434974
Mn  Mn12  1  0.10517000  0.51434000  0.61062000  1.0 0.9943434974
Mn  Mn13  1  0.26911000  0.14607000  0.67711000  1.0 0.8303266546
Mn  Mn14  1  0.14607000  0.67711000  0.26911000  1.0 0.8303266546
Mn  Mn15  1  0.67711000  0.26911000  0.14607000  1.0 0.8303266546
Mn  Mn16  1  0.73089000  0.85393000  0.32289000  1.0 0.8303266546
Mn  Mn17  1  0.85393000  0.32289000  0.73089000  1.0 0.8303266546
Mn  Mn18  1  0.32289000  0.73089000  0.85393000  1.0 0.8303266546
Mn  Mn19  1  0.30964000  0.25217000  0.83735000  1.0 0.971883752
Mn  Mn20  1  0.25217000  0.83735000  0.30964000  1.0 0.971883752
Mn  Mn21  1  0.83735000  0.30964000  0.25217000  1.0 0.971883752
Mn  Mn22  1  0.69036000  0.74783000  0.16265000  1.0 0.971883752
Mn  Mn23  1  0.74783000  0.16265000  0.69036000  1.0 0.971883752
Mn  Mn24  1  0.16265000  0.69036000  0.74783000  1.0 0.971883752
Mn  Mn25  1  0.27174000  0.28299000  0.73118000  1.0 0.936780113
Mn  Mn26  1  0.28299000  0.73118000  0.27174000  1.0 0.936780113
Mn  Mn27  1  0.73118000  0.27174000  0.28299000  1.0 0.936780113
Mn  Mn28  1  0.72826000  0.71701000  0.26882000  1.0 0.936780113
Mn  Mn29  1  0.71701000  0.26882000  0.72826000  1.0 0.936780113
Mn  Mn30  1  0.26882000  0.72826000  0.71701000  1.0 0.936780113
Mn  Mn31  1  0.28419000  0.38431000  0.89881000  1.0 0.9578044991
Mn  Mn32  1  0.38431000  0.89881000  0.28419000  1.0 0.9578044991
Mn  Mn33  1  0.89881000  0.28419000  0.38431000  1.0 0.9578044991
Mn  Mn34  1  0.71581000  0.61569000  0.10119000  1.0 0.9578044991
Mn  Mn35  1  0.61569000  0.10119000  0.71581000  1.0 0.9578044991
Mn  Mn36  1  0.10119000  0.71581000  0.61569000  1.0 0.9578044991
H  H1  1  0.73370000  0.44420000  0.23640000  1.0 0.137838322
H  H2  1  0.44420000  0.23640000  0.73370000  1.0 0.137838322
H  H3  1  0.23640000  0.73370000  0.44420000  1.0 0.137838322
H  H4  1  0.26630000  0.55580000  0.76360000  1.0 0.137838322
H  H5  1  0.55580000  0.76360000  0.26630000  1.0 0.137838322
H  H6  1  0.76360000  0.26630000  0.55580000  1.0 0.137838322
H  H7  1  0.54760000  0.19060000  0.96900000  1.0 0.1087318056
H  H8  1  0.19060000  0.96900000  0.54760000  1.0 0.1087318056
H  H9  1  0.96900000  0.54760000  0.19060000  1.0 0.1087318056
H  H10  1  0.45240000  0.80940000  0.03100000  1.0 0.1087318056
H  H11  1  0.80940000  0.03100000  0.45240000  1.0 0.1087318056
H  H12  1  0.03100000  0.45240000  0.80940000  1.0 0.1087318056
H  H13  1  0.15130000  0.12250000  0.78630000  1.0 0.137838322
H  H14  1  0.12250000  0.78630000  0.15130000  1.0 0.137838322
H  H15  1  0.78630000  0.15130000  0.12250000  1.0 0.137838322
H  H16  1  0.84870000  0.87750000  0.21370000  1.0 0.137838322
H  H17  1  0.87750000  0.21370000  0.84870000  1.0 0.137838322
H  H18  1  0.21370000  0.84870000  0.87750000  1.0 0.137838322
H  H19  1  0.16040000  0.16460000  0.85630000  1.0 0.1497493456
H  H20  1  0.16460000  0.85630000  0.16040000  1.0 0.1497493456
H  H21  1  0.85630000  0.16040000  0.16460000  1.0 0.1497493456
H  H22  1  0.83960000  0.83540000  0.14370000  1.0 0.1497493456
H  H23  1  0.83540000  0.14370000  0.83960000  1.0 0.1497493456
H  H24  1  0.14370000  0.83960000  0.83540000  1.0 0.1497493456
H  H25  1  0.06960000  0.09640000  0.74920000  1.0 0.1609179628
H  H26  1  0.09640000  0.74920000  0.06960000  1.0 0.1497493456
H  H27  1  0.74920000  0.06960000  0.09640000  1.0 0.1497493456
H  H28  1  0.93040000  0.90360000  0.25080000  1.0 0.1497493456
H  H29  1  0.90360000  0.25080000  0.93040000  1.0 0.1609179628
H  H30  1  0.25080000  0.93040000  0.90360000  1.0 0.1497493456
H  H31  1  0.61780000  0.56030000  0.78530000  1.0 0.0993501148
H  H32  1  0.56030000  0.78530000  0.61780000  1.0 0.0993501148
H  H33  1  0.78530000  0.61780000  0.56030000  1.0 0.0993501148
H  H34  1  0.38220000  0.43970000  0.21470000  1.0 0.0993501148
H  H35  1  0.43970000  0.21470000  0.38220000  1.0 0.0993501148
H  H36  1  0.21470000  0.38220000  0.43970000  1.0 0.0993501148
H  H37  1  0.32590000  0.31170000  0.53170000  1.0 0.0993501148
H  H38  1  0.31170000  0.53170000  0.32590000  1.0 0.0993501148
H  H39  1  0.53170000  0.32590000  0.31170000  1.0 0.0993501148
H  H40  1  0.67410000  0.68830000  0.46830000  1.0 0.0993501148
H  H41  1  0.68830000  0.46830000  0.67410000  1.0 0.0993501148
H  H42  1  0.46830000  0.67410000  0.68830000  1.0 0.0993501148
H  H43  1  0.10120000  0.90790000  0.60220000  1.0 0.137838322
H  H44  1  0.90790000  0.60220000  0.10120000  1.0 0.137838322
H  H45  1  0.60220000  0.10120000  0.90790000  1.0 0.137838322
H  H46  1  0.89880000  0.09210000  0.39780000  1.0 0.137838322
H  H47  1  0.09210000  0.39780000  0.89880000  1.0 0.137838322
H  H48  1  0.39780000  0.89880000  0.09210000  1.0 0.137838322
H  H49  1  0.16990000  0.97710000  0.70940000  1.0 0.1609179628
H  H50  1  0.97710000  0.70940000  0.16990000  1.0 0.1609179628
H  H51  1  0.70940000  0.16990000  0.97710000  1.0 0.1609179628
H  H52  1  0.83010000  0.02290000  0.29060000  1.0 0.1609179628
H  H53  1  0.02290000  0.29060000  0.83010000  1.0 0.1609179628
H  H54  1  0.29060000  0.83010000  0.02290000  1.0 0.1609179628
H  H55  1  0.07880000  0.93780000  0.63910000  1.0 0.1497493456
H  H56  1  0.93780000  0.63910000  0.07880000  1.0 0.1497493456
H  H57  1  0.63910000  0.07880000  0.93780000  1.0 0.1497493456
H  H58  1  0.92120000  0.06220000  0.36090000  1.0 0.1497493456
H  H59  1  0.06220000  0.36090000  0.92120000  1.0 0.1497493456
H  H60  1  0.36090000  0.92120000  0.06220000  1.0 0.1497493456
H  H61  1  0.61420000  0.56260000  0.86580000  1.0 0.137838322
H  H62  1  0.56260000  0.86580000  0.61420000  1.0 0.137838322
H  H63  1  0.86580000  0.61420000  0.56260000  1.0 0.137838322
H  H64  1  0.38580000  0.43740000  0.13420000  1.0 0.137838322
H  H65  1  0.43740000  0.13420000  0.38580000  1.0 0.137838322
H  H66  1  0.13420000  0.38580000  0.43740000  1.0 0.137838322
H  H67  1  0.73330000  0.47150000  0.96440000  1.0 0.1609179628
H  H68  1  0.47150000  0.96440000  0.73330000  1.0 0.1609179628
H  H69  1  0.96440000  0.73330000  0.47150000  1.0 0.1609179628
H  H70  1  0.26670000  0.52850000  0.03560000  1.0 0.1609179628
H  H71  1  0.52850000  0.03560000  0.26670000  1.0 0.1609179628
H  H72  1  0.03560000  0.26670000  0.52850000  1.0 0.1609179628
H  H73  1  0.64250000  0.36710000  0.90010000  1.0 0.137838322
H  H74  1  0.36710000  0.90010000  0.64250000  1.0 0.137838322
H  H75  1  0.90010000  0.64250000  0.36710000  1.0 0.137838322
H  H76  1  0.35750000  0.63290000  0.09990000  1.0 0.137838322
H  H77  1  0.63290000  0.09990000  0.35750000  1.0 0.137838322
H  H78  1  0.09990000  0.35750000  0.63290000  1.0 0.137838322
H  H79  1  0.62720000  0.38480000  0.85300000  1.0 0.1497493456
H  H80  1  0.38480000  0.85300000  0.62720000  1.0 0.1497493456
H  H81  1  0.85300000  0.62720000  0.38480000  1.0 0.1497493456
H  H82  1  0.37280000  0.61520000  0.14700000  1.0 0.1497493456
H  H83  1  0.61520000  0.14700000  0.37280000  1.0 0.1497493456
H  H84  1  0.14700000  0.37280000  0.61520000  1.0 0.1497493456
H  H85  1  0.67300000  0.46610000  0.17920000  1.0 0.1170364003
H  H86  1  0.46610000  0.17920000  0.67300000  1.0 0.1170364003
H  H87  1  0.17920000  0.67300000  0.46610000  1.0 0.1170364003
H  H88  1  0.32700000  0.53390000  0.82080000  1.0 0.1170364003
H  H89  1  0.53390000  0.82080000  0.32700000  1.0 0.1170364003
H  H90  1  0.82080000  0.32700000  0.53390000  1.0 0.1170364003
H  H91  1  0.47920000  0.20900000  0.90260000  1.0 0.1087318056
H  H92  1  0.20900000  0.90260000  0.47920000  1.0 0.1087318056
H  H93  1  0.90260000  0.47920000  0.20900000  1.0 0.1087318056
H  H94  1  0.52080000  0.79100000  0.09740000  1.0 0.1087318056
H  H95  1  0.79100000  0.09740000  0.52080000  1.0 0.1087318056
H  H96  1  0.09740000  0.52080000  0.79100000  1.0 0.1087318056
H  H97  1  0.32400000  0.30600000  0.60860000  1.0 0.1170364003
H  H98  1  0.30600000  0.60860000  0.32400000  1.0 0.1170364003
H  H99  1  0.60860000  0.32400000  0.30600000  1.0 0.1170364003
H  H100  1  0.67600000  0.69400000  0.39140000  1.0 0.1170364003
H  H101  1  0.69400000  0.39140000  0.67600000  1.0 0.1170364003
H  H102  1  0.39140000  0.67600000  0.69400000  1.0 0.1170364003
H  H103  1  0.07180000  0.18330000  0.58180000  1.0 0.1497493456
H  H104  1  0.18330000  0.58180000  0.07180000  1.0 0.1497493456
H  H105  1  0.58180000  0.07180000  0.18330000  1.0 0.1497493456
H  H106  1  0.92820000  0.81670000  0.41820000  1.0 0.1497493456
H  H107  1  0.81670000  0.41820000  0.92820000  1.0 0.1497493456
H  H108  1  0.41820000  0.92820000  0.81670000  1.0 0.1497493456
H  H109  1  0.99890000  0.13350000  0.56800000  1.0 0.1664829744
H  H110  1  0.13350000  0.56800000  0.99890000  1.0 0.1664829744
H  H111  1  0.56800000  0.99890000  0.13350000  1.0 0.1664829744
H  H112  1  0.00110000  0.86650000  0.43200000  1.0 0.1664829744
H  H113  1  0.86650000  0.43200000  0.00110000  1.0 0.1664829744
H  H114  1  0.43200000  0.00110000  0.86650000  1.0 0.1664829744
H  H115  1  0.04670000  0.22130000  0.60160000  1.0 0.1664829744
H  H116  1  0.22130000  0.60160000  0.04670000  1.0 0.1664829744
H  H117  1  0.60160000  0.04670000  0.22130000  1.0 0.1664829744
H  H118  1  0.95330000  0.77870000  0.39840000  1.0 0.1664829744
H  H119  1  0.77870000  0.39840000  0.95330000  1.0 0.1664829744
H  H120  1  0.39840000  0.95330000  0.77870000  1.0 0.1664829744
H  H121  1  0.09590000  0.11140000  0.64010000  1.0 0.1087318056
H  H122  1  0.11140000  0.64010000  0.09590000  1.0 0.1087318056
H  H123  1  0.64010000  0.09590000  0.11140000  1.0 0.1087318056
H  H124  1  0.90410000  0.88860000  0.35990000  1.0 0.1087318056
H  H125  1  0.88860000  0.35990000  0.90410000  1.0 0.1087318056
H  H126  1  0.35990000  0.90410000  0.88860000  1.0 0.1087318056
H  H127  1  0.07280000  0.05490000  0.55980000  1.0 0.0906301964
H  H128  1  0.05490000  0.55980000  0.07280000  1.0 0.0906301964
H  H129  1  0.55980000  0.07280000  0.05490000  1.0 0.0906301964
H  H130  1  0.92720000  0.94510000  0.44020000  1.0 0.0906301964
H  H131  1  0.94510000  0.44020000  0.92720000  1.0 0.0906301964
H  H132  1  0.44020000  0.92720000  0.94510000  1.0 0.0906301964
H  H133  1  0.09060000  0.04450000  0.61360000  1.0 0.1087318056
H  H134  1  0.04450000  0.61360000  0.09060000  1.0 0.1087318056
H  H135  1  0.61360000  0.09060000  0.04450000  1.0 0.1087318056
H  H136  1  0.90940000  0.95550000  0.38640000  1.0 0.1087318056
H  H137  1  0.95550000  0.38640000  0.90940000  1.0 0.1087318056
H  H138  1  0.38640000  0.90940000  0.95550000  1.0 0.1087318056
H  H139  1  0.43020000  0.32140000  0.73510000  1.0 0.0906301964
H  H140  1  0.32140000  0.73510000  0.43020000  1.0 0.0906301964
H  H141  1  0.73510000  0.43020000  0.32140000  1.0 0.0906301964
H  H142  1  0.56980000  0.67860000  0.26490000  1.0 0.0906301964
H  H143  1  0.67860000  0.26490000  0.56980000  1.0 0.0906301964
H  H144  1  0.26490000  0.56980000  0.67860000  1.0 0.0906301964
H  H145  1  0.33180000  0.27140000  0.66090000  1.0 0.0737233117
H  H146  1  0.27140000  0.66090000  0.33180000  1.0 0.0737233117
H  H147  1  0.66090000  0.33180000  0.27140000  1.0 0.0737233117
H  H148  1  0.66820000  0.72860000  0.33910000  1.0 0.0737233117
H  H149  1  0.72860000  0.33910000  0.66820000  1.0 0.0737233117
H  H150  1  0.33910000  0.66820000  0.72860000  1.0 0.0737233117
H  H151  1  0.40140000  0.20910000  0.85610000  1.0 0.0906301964
H  H152  1  0.20910000  0.85610000  0.40140000  1.0 0.0906301964
H  H153  1  0.85610000  0.40140000  0.20910000  1.0 0.0906301964
H  H154  1  0.59860000  0.79090000  0.14390000  1.0 0.0906301964
H  H155  1  0.79090000  0.14390000  0.59860000  1.0 0.0906301964
H  H156  1  0.14390000  0.59860000  0.79090000  1.0 0.0906301964
H  H157  1  0.48350000  0.27460000  0.88400000  1.0 0.0829077946
H  H158  1  0.27460000  0.88400000  0.48350000  1.0 0.0829077946
H  H159  1  0.88400000  0.48350000  0.27460000  1.0 0.0829077946
H  H160  1  0.51650000  0.72540000  0.11600000  1.0 0.0829077946
H  H161  1  0.72540000  0.11600000  0.51650000  1.0 0.0829077946
H  H162  1  0.11600000  0.51650000  0.72540000  1.0 0.0829077946
H  H163  1  0.60450000  0.57610000  0.94120000  1.0 0.0906301964
H  H164  1  0.57610000  0.94120000  0.60450000  1.0 0.0906301964
H  H165  1  0.94120000  0.60450000  0.57610000  1.0 0.0906301964
H  H166  1  0.39550000  0.42390000  0.05880000  1.0 0.0906301964
H  H167  1  0.42390000  0.05880000  0.39550000  1.0 0.0906301964
H  H168  1  0.05880000  0.39550000  0.42390000  1.0 0.0906301964
H  H169  1  0.59850000  0.50810000  0.90540000  1.0 0.0906301964
H  H170  1  0.50810000  0.90540000  0.59850000  1.0 0.0906301964
H  H171  1  0.90540000  0.59850000  0.50810000  1.0 0.0906301964
H  H172  1  0.40150000  0.49190000  0.09460000  1.0 0.0906301964
H  H173  1  0.49190000  0.09460000  0.40150000  1.0 0.0906301964
H  H174  1  0.09460000  0.40150000  0.49190000  1.0 0.0906301964
H  H175  1  0.34940000  0.39190000  0.72170000  1.0 0.0906301964
H  H176  1  0.39190000  0.72170000  0.34940000  1.0 0.0906301964
H  H177  1  0.72170000  0.34940000  0.39190000  1.0 0.0906301964
H  H178  1  0.65060000  0.60810000  0.27830000  1.0 0.0906301964
H  H179  1  0.60810000  0.27830000  0.65060000  1.0 0.0906301964
H  H180  1  0.27830000  0.65060000  0.60810000  1.0 0.0906301964
H  H181  1  0.45560000  0.50500000  0.83150000  1.0 0.1087318056
H  H182  1  0.50500000  0.83150000  0.45560000  1.0 0.1087318056
H  H183  1  0.83150000  0.45560000  0.50500000  1.0 0.1087318056
H  H184  1  0.54440000  0.49500000  0.16850000  1.0 0.1087318056
H  H185  1  0.49500000  0.16850000  0.54440000  1.0 0.1087318056
H  H186  1  0.16850000  0.54440000  0.49500000  1.0 0.1087318056
H  H187  1  0.54180000  0.41260000  0.09210000  1.0 0.0829077946
H  H188  1  0.41260000  0.09210000  0.54180000  1.0 0.0829077946
H  H189  1  0.09210000  0.54180000  0.41260000  1.0 0.0829077946
H  H190  1  0.45820000  0.58740000  0.90790000  1.0 0.0829077946
H  H191  1  0.58740000  0.90790000  0.45820000  1.0 0.0829077946
H  H192  1  0.90790000  0.45820000  0.58740000  1.0 0.0829077946
H  H193  1  0.43880000  0.29670000  0.98850000  1.0 0.0993501148
H  H194  1  0.29670000  0.98850000  0.43880000  1.0 0.0993501148
H  H195  1  0.98850000  0.43880000  0.29670000  1.0 0.0993501148
H  H196  1  0.56120000  0.70330000  0.01150000  1.0 0.0993501148
H  H197  1  0.70330000  0.01150000  0.56120000  1.0 0.0993501148
H  H198  1  0.01150000  0.56120000  0.70330000  1.0 0.0993501148
H  H199  1  0.64980000  0.45960000  0.05620000  1.0 0.0906301964
H  H200  1  0.45960000  0.05620000  0.64980000  1.0 0.0906301964
H  H201  1  0.05620000  0.64980000  0.45960000  1.0 0.0906301964
H  H202  1  0.35020000  0.54040000  0.94380000  1.0 0.0906301964
H  H203  1  0.54040000  0.94380000  0.35020000  1.0 0.0906301964
H  H204  1  0.94380000  0.35020000  0.54040000  1.0 0.0906301964
H  H205  1  0.66710000  0.51060000  0.13220000  1.0 0.0993501148
H  H206  1  0.51060000  0.13220000  0.66710000  1.0 0.0993501148
H  H207  1  0.13220000  0.66710000  0.51060000  1.0 0.0993501148
H  H208  1  0.33290000  0.48940000  0.86780000  1.0 0.0993501148
H  H209  1  0.48940000  0.86780000  0.33290000  1.0 0.0993501148
H  H210  1  0.86780000  0.33290000  0.48940000  1.0 0.0993501148
H  H211  1  0.60090000  0.30700000  0.14880000  1.0 0.1170364003
H  H212  1  0.30700000  0.14880000  0.60090000  1.0 0.1170364003
H  H213  1  0.14880000  0.60090000  0.30700000  1.0 0.1170364003
H  H214  1  0.39910000  0.69300000  0.85120000  1.0 0.1170364003
H  H215  1  0.69300000  0.85120000  0.39910000  1.0 0.1170364003
H  H216  1  0.85120000  0.39910000  0.69300000  1.0 0.1170364003
H  H217  1  0.69090000  0.33380000  0.08150000  1.0 0.0993501148
H  H218  1  0.33380000  0.08150000  0.69090000  1.0 0.0993501148
H  H219  1  0.08150000  0.69090000  0.33380000  1.0 0.0993501148
H  H220  1  0.30910000  0.66620000  0.91850000  1.0 0.0993501148
H  H221  1  0.66620000  0.91850000  0.30910000  1.0 0.0993501148
H  H222  1  0.91850000  0.30910000  0.66620000  1.0 0.0993501148
H  H223  1  0.53710000  0.34160000  0.09610000  1.0 0.0993501148
H  H224  1  0.34160000  0.09610000  0.53710000  1.0 0.0993501148
H  H225  1  0.09610000  0.53710000  0.34160000  1.0 0.0993501148
H  H226  1  0.46290000  0.65840000  0.90390000  1.0 0.0993501148
H  H227  1  0.65840000  0.90390000  0.46290000  1.0 0.0993501148
H  H228  1  0.90390000  0.46290000  0.65840000  1.0 0.0993501148
H  H229  1  0.62130000  0.34800000  0.01510000  1.0 0.1087318056
H  H230  1  0.34800000  0.01510000  0.62130000  1.0 0.1087318056
H  H231  1  0.01510000  0.62130000  0.34800000  1.0 0.1087318056
H  H232  1  0.37870000  0.65200000  0.98490000  1.0 0.1087318056
H  H233  1  0.65200000  0.98490000  0.37870000  1.0 0.1087318056
H  H234  1  0.98490000  0.37870000  0.65200000  1.0 0.1087318056
C  C1  1  0.68010000  0.39390000  0.16660000  1.0 -0.0313570174
C  C2  1  0.39390000  0.16660000  0.68010000  1.0 -0.0313570174
C  C3  1  0.16660000  0.68010000  0.39390000  1.0 -0.0313570174
C  C4  1  0.31990000  0.60610000  0.83340000  1.0 -0.0313570174
C  C5  1  0.60610000  0.83340000  0.31990000  1.0 -0.0313570174
C  C6  1  0.83340000  0.31990000  0.60610000  1.0 -0.0313570174
C  C7  1  0.57350000  0.24770000  0.01260000  1.0 -0.0505904544
C  C8  1  0.24770000  0.01260000  0.57350000  1.0 -0.0505904544
C  C9  1  0.01260000  0.57350000  0.24770000  1.0 -0.0505904544
C  C10  1  0.42650000  0.75230000  0.98740000  1.0 -0.0505904544
C  C11  1  0.75230000  0.98740000  0.42650000  1.0 -0.0505904544
C  C12  1  0.98740000  0.42650000  0.75230000  1.0 -0.0505904544
C  C13  1  0.13940000  0.14710000  0.80600000  1.0 -0.5914287189
C  C14  1  0.14710000  0.80600000  0.13940000  1.0 -0.598785452
C  C15  1  0.80600000  0.13940000  0.14710000  1.0 -0.598785452
C  C16  1  0.86060000  0.85290000  0.19400000  1.0 -0.598785452
C  C17  1  0.85290000  0.19400000  0.86060000  1.0 -0.5914287189
C  C18  1  0.19400000  0.86060000  0.85290000  1.0 -0.598785452
C  C19  1  0.55610000  0.50950000  0.74900000  1.0 0.0993501148
C  C20  1  0.50950000  0.74900000  0.55610000  1.0 0.0993501148
C  C21  1  0.74900000  0.55610000  0.50950000  1.0 0.0993501148
C  C22  1  0.44390000  0.49050000  0.25100000  1.0 0.0993501148
C  C23  1  0.49050000  0.25100000  0.44390000  1.0 0.0993501148
C  C24  1  0.25100000  0.44390000  0.49050000  1.0 0.0993501148
C  C25  1  0.38490000  0.36240000  0.59930000  1.0 0.0399463024
C  C26  1  0.36240000  0.59930000  0.38490000  1.0 0.0399463024
C  C27  1  0.59930000  0.38490000  0.36240000  1.0 0.0399463024
C  C28  1  0.61510000  0.63760000  0.40070000  1.0 0.0399463024
C  C29  1  0.63760000  0.40070000  0.61510000  1.0 0.0399463024
C  C30  1  0.40070000  0.61510000  0.63760000  1.0 0.0399463024
C  C31  1  0.13060000  0.96010000  0.65890000  1.0 -0.598785452
C  C32  1  0.96010000  0.65890000  0.13060000  1.0 -0.598785452
C  C33  1  0.65890000  0.13060000  0.96010000  1.0 -0.598785452
C  C34  1  0.86940000  0.03990000  0.34110000  1.0 -0.598785452
C  C35  1  0.03990000  0.34110000  0.86940000  1.0 -0.598785452
C  C36  1  0.34110000  0.86940000  0.03990000  1.0 -0.598785452
C  C37  1  0.55470000  0.51000000  0.79760000  1.0 -0.2467751274
C  C38  1  0.51000000  0.79760000  0.55470000  1.0 -0.2467751274
C  C39  1  0.79760000  0.55470000  0.51000000  1.0 -0.2467751274
C  C40  1  0.44530000  0.49000000  0.20240000  1.0 -0.2467751274
C  C41  1  0.49000000  0.20240000  0.44530000  1.0 -0.2467751274
C  C42  1  0.20240000  0.44530000  0.49000000  1.0 -0.2467751274
C  C43  1  0.66310000  0.41470000  0.91260000  1.0 -0.6299985468
C  C44  1  0.41470000  0.91260000  0.66310000  1.0 -0.6299985468
C  C45  1  0.91260000  0.66310000  0.41470000  1.0 -0.6299985468
C  C46  1  0.33690000  0.58530000  0.08740000  1.0 -0.6299985468
C  C47  1  0.58530000  0.08740000  0.33690000  1.0 -0.6299985468
C  C48  1  0.08740000  0.33690000  0.58530000  1.0 -0.6299985468
C  C49  1  0.64450000  0.40750000  0.13310000  1.0 -0.1201726839
C  C50  1  0.40750000  0.13310000  0.64450000  1.0 -0.1201726839
C  C51  1  0.13310000  0.64450000  0.40750000  1.0 -0.1201726839
C  C52  1  0.35550000  0.59250000  0.86690000  1.0 -0.1201726839
C  C53  1  0.59250000  0.86690000  0.35550000  1.0 -0.1201726839
C  C54  1  0.86690000  0.35550000  0.59250000  1.0 -0.1201726839
C  C55  1  0.53210000  0.25790000  0.97180000  1.0 -0.1424455811
C  C56  1  0.25790000  0.97180000  0.53210000  1.0 -0.1424455811
C  C57  1  0.97180000  0.53210000  0.25790000  1.0 -0.1424455811
C  C58  1  0.46790000  0.74210000  0.02820000  1.0 -0.1424455811
C  C59  1  0.74210000  0.02820000  0.46790000  1.0 -0.1424455811
C  C60  1  0.02820000  0.46790000  0.74210000  1.0 -0.1424455811
C  C61  1  0.46501000  0.43210000  0.74469000  1.0 0.0906301964
C  C62  1  0.43210000  0.74469000  0.46501000  1.0 0.0906301964
C  C63  1  0.74469000  0.46501000  0.43210000  1.0 0.0906301964
C  C64  1  0.53499000  0.56790000  0.25531000  1.0 0.0906301964
C  C65  1  0.56790000  0.25531000  0.53499000  1.0 0.0906301964
C  C66  1  0.25531000  0.53499000  0.56790000  1.0 0.0906301964
C  C67  1  0.38550000  0.36170000  0.64740000  1.0 -0.2214396765
C  C68  1  0.36170000  0.64740000  0.38550000  1.0 -0.2214396765
C  C69  1  0.64740000  0.38550000  0.36170000  1.0 -0.2214396765
C  C70  1  0.61450000  0.63830000  0.35260000  1.0 -0.2214396765
C  C71  1  0.63830000  0.35260000  0.61450000  1.0 -0.2214396765
C  C72  1  0.35260000  0.61450000  0.63830000  1.0 -0.2214396765
C  C73  1  0.19630000  0.23600000  0.84620000  1.0 0.6442907234
C  C74  1  0.23600000  0.84620000  0.19630000  1.0 0.6442907234
C  C75  1  0.84620000  0.19630000  0.23600000  1.0 0.6442907234
C  C76  1  0.80370000  0.76400000  0.15380000  1.0 0.6442907234
C  C77  1  0.76400000  0.15380000  0.80370000  1.0 0.6442907234
C  C78  1  0.15380000  0.80370000  0.76400000  1.0 0.6442907234
C  C79  1  0.64190000  0.44760000  0.94500000  1.0 0.6725741208
C  C80  1  0.44760000  0.94500000  0.64190000  1.0 0.6725741208
C  C81  1  0.94500000  0.64190000  0.44760000  1.0 0.6725741208
C  C82  1  0.35810000  0.55240000  0.05500000  1.0 0.6725741208
C  C83  1  0.55240000  0.05500000  0.35810000  1.0 0.6725741208
C  C84  1  0.05500000  0.35810000  0.55240000  1.0 0.6725741208
C  C85  1  0.45526000  0.42332000  0.79142000  1.0 0.0215781914
C  C86  1  0.42332000  0.79142000  0.45526000  1.0 0.0215781914
C  C87  1  0.79142000  0.45526000  0.42332000  1.0 0.0215781914
C  C88  1  0.54474000  0.57668000  0.20858000  1.0 0.0215781914
C  C89  1  0.57668000  0.20858000  0.54474000  1.0 0.0215781914
C  C90  1  0.20858000  0.54474000  0.57668000  1.0 0.0215781914
C  C91  1  0.05751000  0.19499000  0.60660000  1.0 -0.6299985468
C  C92  1  0.19499000  0.60660000  0.05751000  1.0 -0.6299985468
C  C93  1  0.60660000  0.05751000  0.19499000  1.0 -0.6299985468
C  C94  1  0.94249000  0.80501000  0.39340000  1.0 -0.6299985468
C  C95  1  0.80501000  0.39340000  0.94249000  1.0 -0.6299985468
C  C96  1  0.39340000  0.94249000  0.80501000  1.0 -0.6299985468
C  C97  1  0.19447000  0.04841000  0.69872000  1.0 0.6567386369
C  C98  1  0.04841000  0.69872000  0.19447000  1.0 0.6567386369
C  C99  1  0.69872000  0.19447000  0.04841000  1.0 0.6567386369
C  C100  1  0.80553000  0.95159000  0.30128000  1.0 0.6567386369
C  C101  1  0.95159000  0.30128000  0.80553000  1.0 0.6567386369
C  C102  1  0.30128000  0.80553000  0.95159000  1.0 0.6567386369
C  C103  1  0.10975000  0.08909000  0.62156000  1.0 -0.2467751274
C  C104  1  0.08909000  0.62156000  0.10975000  1.0 -0.2467751274
C  C105  1  0.62156000  0.10975000  0.08909000  1.0 -0.2467751274
C  C106  1  0.89025000  0.91091000  0.37844000  1.0 -0.2467751274
C  C107  1  0.91091000  0.37844000  0.89025000  1.0 -0.2467751274
C  C108  1  0.37844000  0.89025000  0.91091000  1.0 -0.2467751274
C  C109  1  0.39442000  0.32270000  0.73028000  1.0 -0.0673369834
C  C110  1  0.32270000  0.73028000  0.39442000  1.0 -0.0673369834
C  C111  1  0.73028000  0.39442000  0.32270000  1.0 -0.0673369834
C  C112  1  0.60558000  0.67730000  0.26972000  1.0 -0.0673369834
C  C113  1  0.67730000  0.26972000  0.60558000  1.0 -0.0673369834
C  C114  1  0.26972000  0.60558000  0.67730000  1.0 -0.0673369834
C  C115  1  0.45150000  0.27168000  0.89042000  1.0 -0.1013122363
C  C116  1  0.27168000  0.89042000  0.45150000  1.0 -0.1013122363
C  C117  1  0.89042000  0.45150000  0.27168000  1.0 -0.1013122363
C  C118  1  0.54850000  0.72832000  0.10958000  1.0 -0.1013122363
C  C119  1  0.72832000  0.10958000  0.54850000  1.0 -0.1013122363
C  C120  1  0.10958000  0.54850000  0.72832000  1.0 -0.1013122363
C  C121  1  0.57211000  0.34287000  0.03852000  1.0 0.0581315538
C  C122  1  0.34287000  0.03852000  0.57211000  1.0 0.0581315538
C  C123  1  0.03852000  0.57211000  0.34287000  1.0 0.0581315538
C  C124  1  0.42789000  0.65713000  0.96148000  1.0 0.0581315538
C  C125  1  0.65713000  0.96148000  0.42789000  1.0 0.0581315538
C  C126  1  0.96148000  0.42789000  0.65713000  1.0 0.0581315538
C  C127  1  0.56586000  0.51262000  0.90442000  1.0 -0.0505904544
C  C128  1  0.51262000  0.90442000  0.56586000  1.0 -0.0505904544
C  C129  1  0.90442000  0.56586000  0.51262000  1.0 -0.0505904544
C  C130  1  0.43414000  0.48738000  0.09558000  1.0 -0.0505904544
C  C131  1  0.48738000  0.09558000  0.43414000  1.0 -0.0505904544
C  C132  1  0.09558000  0.43414000  0.48738000  1.0 -0.0505904544
C  C133  1  0.14121000  0.26602000  0.71017000  1.0 0.6442907234
C  C134  1  0.26602000  0.71017000  0.14121000  1.0 0.6442907234
C  C135  1  0.71017000  0.14121000  0.26602000  1.0 0.6442907234
C  C136  1  0.85879000  0.73398000  0.28983000  1.0 0.6442907234
C  C137  1  0.73398000  0.28983000  0.85879000  1.0 0.6442907234
C  C138  1  0.28983000  0.85879000  0.73398000  1.0 0.6442907234
C  C139  1  0.40940000  0.43810000  0.78920000  1.0 -0.0422456203
C  C140  1  0.43810000  0.78920000  0.40940000  1.0 -0.0422456203
C  C141  1  0.78920000  0.40940000  0.43810000  1.0 -0.0422456203
C  C142  1  0.59060000  0.56190000  0.21080000  1.0 -0.0422456203
C  C143  1  0.56190000  0.21080000  0.59060000  1.0 -0.0422456203
C  C144  1  0.21080000  0.59060000  0.56190000  1.0 -0.0422456203
C  C145  1  0.48772000  0.35816000  0.02092000  1.0 -0.0505904544
C  C146  1  0.35816000  0.02092000  0.48772000  1.0 -0.0505904544
C  C147  1  0.02092000  0.48772000  0.35816000  1.0 -0.0505904544
C  C148  1  0.51228000  0.64184000  0.97908000  1.0 -0.0505904544
C  C149  1  0.64184000  0.97908000  0.51228000  1.0 -0.0505904544
C  C150  1  0.97908000  0.51228000  0.64184000  1.0 -0.0505904544
C  C151  1  0.61848000  0.45906000  0.06256000  1.0 -0.0673369834
C  C152  1  0.45906000  0.06256000  0.61848000  1.0 -0.0673369834
C  C153  1  0.06256000  0.61848000  0.45906000  1.0 -0.0673369834
C  C154  1  0.38152000  0.54094000  0.93744000  1.0 -0.0673369834
C  C155  1  0.54094000  0.93744000  0.38152000  1.0 -0.0673369834
C  C156  1  0.93744000  0.38152000  0.54094000  1.0 -0.0673369834
C  C157  1  0.52873000  0.35663000  0.99974000  1.0 0.0399463024
C  C158  1  0.35663000  0.99974000  0.52873000  1.0 0.0399463024
C  C159  1  0.99974000  0.52873000  0.35663000  1.0 0.0399463024
C  C160  1  0.47127000  0.64337000  0.00026000  1.0 0.0399463024
C  C161  1  0.64337000  0.00026000  0.47127000  1.0 0.0399463024
C  C162  1  0.00026000  0.47127000  0.64337000  1.0 0.0399463024
C  C163  1  0.60620000  0.31910000  0.12330000  1.0 -0.1013122363
C  C164  1  0.31910000  0.12330000  0.60620000  1.0 -0.1013122363
C  C165  1  0.12330000  0.60620000  0.31910000  1.0 -0.1013122363
C  C166  1  0.39380000  0.68090000  0.87670000  1.0 -0.1013122363
C  C167  1  0.68090000  0.87670000  0.39380000  1.0 -0.1013122363
C  C168  1  0.87670000  0.39380000  0.68090000  1.0 -0.1013122363
C  C169  1  0.65530000  0.33040000  0.08180000  1.0 0.0099200326
C  C170  1  0.33040000  0.08180000  0.65530000  1.0 0.0099200326
C  C171  1  0.08180000  0.65530000  0.33040000  1.0 0.0099200326
C  C172  1  0.34470000  0.66960000  0.91820000  1.0 0.0099200326
C  C173  1  0.66960000  0.91820000  0.34470000  1.0 0.0099200326
C  C174  1  0.91820000  0.34470000  0.66960000  1.0 0.0099200326
C  C175  1  0.56220000  0.33310000  0.08550000  1.0 -0.1201726839
C  C176  1  0.33310000  0.08550000  0.56220000  1.0 -0.1201726839
C  C177  1  0.08550000  0.56220000  0.33310000  1.0 -0.1201726839
C  C178  1  0.43780000  0.66690000  0.91450000  1.0 -0.1201726839
C  C179  1  0.66690000  0.91450000  0.43780000  1.0 -0.1201726839
C  C180  1  0.91450000  0.43780000  0.66690000  1.0 -0.1201726839
C  C181  1  0.61310000  0.34130000  0.04230000  1.0 -0.0313570174
C  C182  1  0.34130000  0.04230000  0.61310000  1.0 -0.0313570174
C  C183  1  0.04230000  0.61310000  0.34130000  1.0 -0.0313570174
C  C184  1  0.38690000  0.65870000  0.95770000  1.0 -0.0313570174
C  C185  1  0.65870000  0.95770000  0.38690000  1.0 -0.0313570174
C  C186  1  0.95770000  0.38690000  0.65870000  1.0 -0.0313570174
N  N1  1  0.64495000  0.31477000  0.10778000  1.0 -0.0127615243
N  N2  1  0.31477000  0.10778000  0.64495000  1.0 -0.0127615243
N  N3  1  0.10778000  0.64495000  0.31477000  1.0 -0.0127615243
N  N4  1  0.35505000  0.68523000  0.89222000  1.0 -0.0127615243
N  N5  1  0.68523000  0.89222000  0.35505000  1.0 -0.0127615243
N  N6  1  0.89222000  0.35505000  0.68523000  1.0 -0.0127615243
N  N7  1  0.47785000  0.44370000  0.65695000  1.0 -0.2383895884
N  N8  1  0.44370000  0.65695000  0.47785000  1.0 -0.2383895884
N  N9  1  0.65695000  0.47785000  0.44370000  1.0 -0.2383895884
N  N10  1  0.52215000  0.55630000  0.34305000  1.0 -0.2383895884
N  N11  1  0.55630000  0.34305000  0.52215000  1.0 -0.2383895884
N  N12  1  0.34305000  0.52215000  0.55630000  1.0 -0.2383895884
O  O1  1  0.37291000  0.29820000  0.75859000  1.0 -0.5387509981
O  O2  1  0.29820000  0.75859000  0.37291000  1.0 -0.5387509981
O  O3  1  0.75859000  0.37291000  0.29820000  1.0 -0.5387509981
O  O4  1  0.62709000  0.70180000  0.24141000  1.0 -0.5387509981
O  O5  1  0.70180000  0.24141000  0.62709000  1.0 -0.5387509981
O  O6  1  0.24141000  0.62709000  0.70180000  1.0 -0.5387509981
O  O7  1  0.41863000  0.40353000  0.91144000  1.0 -0.7802152554
O  O8  1  0.40353000  0.91144000  0.41863000  1.0 -0.7802152554
O  O9  1  0.91144000  0.41863000  0.40353000  1.0 -0.7802152554
O  O10  1  0.58137000  0.59647000  0.08856000  1.0 -0.7802152554
O  O11  1  0.59647000  0.08856000  0.58137000  1.0 -0.7802152554
O  O12  1  0.08856000  0.58137000  0.59647000  1.0 -0.7802152554
O  O13  1  0.56079000  0.50660000  0.94971000  1.0 -0.5097080422
O  O14  1  0.50660000  0.94971000  0.56079000  1.0 -0.5097080422
O  O15  1  0.94971000  0.56079000  0.50660000  1.0 -0.5097080422
O  O16  1  0.43921000  0.49340000  0.05029000  1.0 -0.5097080422
O  O17  1  0.49340000  0.05029000  0.43921000  1.0 -0.5097080422
O  O18  1  0.05029000  0.43921000  0.49340000  1.0 -0.5097080422
O  O19  1  0.20087000  0.04440000  0.65643000  1.0 -0.5914287189
O  O20  1  0.04440000  0.65643000  0.20087000  1.0 -0.5914287189
O  O21  1  0.65643000  0.20087000  0.04440000  1.0 -0.5914287189
O  O22  1  0.79913000  0.95560000  0.34357000  1.0 -0.5914287189
O  O23  1  0.95560000  0.34357000  0.79913000  1.0 -0.5914287189
O  O24  1  0.34357000  0.79913000  0.95560000  1.0 -0.5914287189
O  O25  1  0.23730000  0.12316000  0.77524000  1.0 -0.598785452
O  O26  1  0.12316000  0.77524000  0.23730000  1.0 -0.598785452
O  O27  1  0.77524000  0.23730000  0.12316000  1.0 -0.598785452
O  O28  1  0.76270000  0.87684000  0.22476000  1.0 -0.598785452
O  O29  1  0.87684000  0.22476000  0.76270000  1.0 -0.598785452
O  O30  1  0.22476000  0.76270000  0.87684000  1.0 -0.598785452
O  O31  1  0.58970000  0.48101000  0.03219000  1.0 -0.5097080422
O  O32  1  0.48101000  0.03219000  0.58970000  1.0 -0.5097080422
O  O33  1  0.03219000  0.58970000  0.48101000  1.0 -0.5097080422
O  O34  1  0.41030000  0.51899000  0.96781000  1.0 -0.5097080422
O  O35  1  0.51899000  0.96781000  0.41030000  1.0 -0.5097080422
O  O36  1  0.96781000  0.41030000  0.51899000  1.0 -0.5097080422
O  O37  1  0.40222000  0.27254000  0.84194000  1.0 -0.5387509981
O  O38  1  0.27254000  0.84194000  0.40222000  1.0 -0.5387509981
O  O39  1  0.84194000  0.40222000  0.27254000  1.0 -0.5387509981
O  O40  1  0.59778000  0.72746000  0.15806000  1.0 -0.5387509981
O  O41  1  0.72746000  0.15806000  0.59778000  1.0 -0.5387509981
O  O42  1  0.15806000  0.59778000  0.72746000  1.0 -0.5387509981
O  O43  1  0.44229000  0.36872000  0.98949000  1.0 -0.4986026605
O  O44  1  0.36872000  0.98949000  0.44229000  1.0 -0.4986026605
O  O45  1  0.98949000  0.44229000  0.36872000  1.0 -0.4986026605
O  O46  1  0.55771000  0.63128000  0.01051000  1.0 -0.4986026605
O  O47  1  0.63128000  0.01051000  0.55771000  1.0 -0.4986026605
O  O48  1  0.01051000  0.55771000  0.63128000  1.0 -0.4986026605
O  O49  1  0.55074000  0.37843000  0.88183000  1.0 -0.5914287189
O  O50  1  0.37843000  0.88183000  0.55074000  1.0 -0.5914287189
O  O51  1  0.88183000  0.55074000  0.37843000  1.0 -0.5914287189
O  O52  1  0.44926000  0.62157000  0.11817000  1.0 -0.5914287189
O  O53  1  0.62157000  0.11817000  0.44926000  1.0 -0.5914287189
O  O54  1  0.11817000  0.44926000  0.62157000  1.0 -0.5914287189
O  O55  1  0.71267000  0.53802000  0.02831000  1.0 -0.5505323231
O  O56  1  0.53802000  0.02831000  0.71267000  1.0 -0.5505323231
O  O57  1  0.02831000  0.71267000  0.53802000  1.0 -0.5505323231
O  O58  1  0.28733000  0.46198000  0.97169000  1.0 -0.5505323231
O  O59  1  0.46198000  0.97169000  0.28733000  1.0 -0.5505323231
O  O60  1  0.97169000  0.28733000  0.46198000  1.0 -0.5505323231
O  O61  1  0.14094000  0.29418000  0.76028000  1.0 -0.4986026605
O  O62  1  0.29418000  0.76028000  0.14094000  1.0 -0.4986026605
O  O63  1  0.76028000  0.14094000  0.29418000  1.0 -0.4986026605
O  O64  1  0.85906000  0.70582000  0.23972000  1.0 -0.4986026605
O  O65  1  0.70582000  0.23972000  0.85906000  1.0 -0.4986026605
O  O66  1  0.23972000  0.85906000  0.70582000  1.0 -0.4986026605
O  O67  1  0.38441000  0.42484000  0.82055000  1.0 -0.5097080422
O  O68  1  0.42484000  0.82055000  0.38441000  1.0 -0.5097080422
O  O69  1  0.82055000  0.38441000  0.42484000  1.0 -0.5097080422
O  O70  1  0.61559000  0.57516000  0.17945000  1.0 -0.5097080422
O  O71  1  0.57516000  0.17945000  0.61559000  1.0 -0.5097080422
O  O72  1  0.17945000  0.61559000  0.57516000  1.0 -0.5097080422
O  O73  1  0.21635000  0.17492000  0.69943000  1.0 -0.5505323231
O  O74  1  0.17492000  0.69943000  0.21635000  1.0 -0.5505323231
O  O75  1  0.69943000  0.21635000  0.17492000  1.0 -0.5505323231
O  O76  1  0.78365000  0.82508000  0.30057000  1.0 -0.5505323231
O  O77  1  0.82508000  0.30057000  0.78365000  1.0 -0.5505323231
O  O78  1  0.30057000  0.78365000  0.82508000  1.0 -0.5505323231
O  O79  1  0.19208000  0.28219000  0.87773000  1.0 -0.5387509981
O  O80  1  0.28219000  0.87773000  0.19208000  1.0 -0.5387509981
O  O81  1  0.87773000  0.19208000  0.28219000  1.0 -0.5387509981
O  O82  1  0.80792000  0.71781000  0.12227000  1.0 -0.5387509981
O  O83  1  0.71781000  0.12227000  0.80792000  1.0 -0.5387509981
O  O84  1  0.12227000  0.80792000  0.71781000  1.0 -0.5387509981
O  O85  1  0.24661000  0.26726000  0.84923000  1.0 -0.5211323321
O  O86  1  0.26726000  0.84923000  0.24661000  1.0 -0.5211323321
O  O87  1  0.84923000  0.24661000  0.26726000  1.0 -0.5211323321
O  O88  1  0.75339000  0.73274000  0.15077000  1.0 -0.5211323321
O  O89  1  0.73274000  0.15077000  0.75339000  1.0 -0.5211323321
O  O90  1  0.15077000  0.75339000  0.73274000  1.0 -0.5211323321
O  O91  1  0.21497000  0.29816000  0.75487000  1.0 -0.5387509981
O  O92  1  0.29816000  0.75487000  0.21497000  1.0 -0.5387509981
O  O93  1  0.75487000  0.21497000  0.29816000  1.0 -0.5387509981
O  O94  1  0.78503000  0.70184000  0.24513000  1.0 -0.5387509981
O  O95  1  0.70184000  0.24513000  0.78503000  1.0 -0.5387509981
O  O96  1  0.24513000  0.78503000  0.70184000  1.0 -0.5387509981
