# DDEC6 charges by PACMAN v1.1 (https://github.com/mtap-research/PACMAN-charge/)
data_AYUPOZ_FSR_pacman
_symmetry_space_group_name_H-M   'P 1'
_cell_length_a   10.87220000
_cell_length_b   10.87220000
_cell_length_c   8.90980000
_cell_angle_alpha   90.00000000
_cell_angle_beta   90.00000000
_cell_angle_gamma   90.00000000
_symmetry_Int_Tables_number   1
_chemical_formula_structural   Ni2H2SO5F4
_chemical_formula_sum   'Ni8 H8 S4 O20 F16'
_cell_volume   1053.18052866
_cell_formula_units_Z   4
loop_
 _symmetry_equiv_pos_site_id
 _symmetry_equiv_pos_as_xyz
  1  'x, y, z'
loop_
 _atom_site_type_symbol
 _atom_site_label
 _atom_site_symmetry_multiplicity
 _atom_site_fract_x
 _atom_site_fract_y
 _atom_site_fract_z
 _atom_site_occupancy
 _atom_site_charge
Ni  Ni1  1  0.89726000  0.10031000  0.09935000  1.0 1.2697525152
Ni  Ni2  1  0.10274000  0.89969000  0.59935000  1.0 1.2697525152
Ni  Ni3  1  0.10031000  0.10274000  0.34935000  1.0 1.2697525152
Ni  Ni4  1  0.89969000  0.89726000  0.84935000  1.0 1.2697525152
Ni  Ni5  1  0.61527000  0.44291000  0.92192000  1.0 1.2506252059
Ni  Ni6  1  0.38473000  0.55709000  0.42192000  1.0 1.2506252059
Ni  Ni7  1  0.44291000  0.38473000  0.17192000  1.0 1.2506252059
Ni  Ni8  1  0.55709000  0.61527000  0.67192000  1.0 1.2506252059
H  H1  1  0.83880000  0.31070000  0.03610000  1.0 0.4208291599
H  H2  1  0.16120000  0.68930000  0.53610000  1.0 0.4208291599
H  H3  1  0.31070000  0.16120000  0.28610000  1.0 0.4208291599
H  H4  1  0.68930000  0.83880000  0.78610000  1.0 0.4208291599
H  H5  1  0.94860000  0.33830000  0.11370000  1.0 0.4389082023
H  H6  1  0.05140000  0.66170000  0.61370000  1.0 0.4389082023
H  H7  1  0.33830000  0.05140000  0.36370000  1.0 0.4389082023
H  H8  1  0.66170000  0.94860000  0.86370000  1.0 0.4389082023
S  S1  1  0.60755000  0.16034000  0.03200000  1.0 1.3626999684
S  S2  1  0.39245000  0.83966000  0.53200000  1.0 1.3650411793
S  S3  1  0.16034000  0.39245000  0.28200000  1.0 1.3650411793
S  S4  1  0.83966000  0.60755000  0.78200000  1.0 1.3626999684
O  O1  1  0.89920000  0.28750000  0.08340000  1.0 -0.699159818
O  O2  1  0.10080000  0.71250000  0.58340000  1.0 -0.699159818
O  O3  1  0.28750000  0.10080000  0.33340000  1.0 -0.699159818
O  O4  1  0.71250000  0.89920000  0.83340000  1.0 -0.699159818
O  O5  1  0.70830000  0.10570000  0.12120000  1.0 -0.5697543791
O  O6  1  0.29170000  0.89430000  0.62120000  1.0 -0.5697543791
O  O7  1  0.10570000  0.29170000  0.37120000  1.0 -0.5697543791
O  O8  1  0.89430000  0.70830000  0.87120000  1.0 -0.5697543791
O  O9  1  0.65910000  0.26130000  0.93850000  1.0 -0.6009525976
O  O10  1  0.34090000  0.73870000  0.43850000  1.0 -0.6009525976
O  O11  1  0.26130000  0.34090000  0.18850000  1.0 -0.6009525976
O  O12  1  0.73870000  0.65910000  0.68850000  1.0 -0.6009525976
O  O13  1  0.51260000  0.20710000  0.13630000  1.0 -0.5697543791
O  O14  1  0.48740000  0.79290000  0.63630000  1.0 -0.5697543791
O  O15  1  0.20710000  0.48740000  0.38630000  1.0 -0.5697543791
O  O16  1  0.79290000  0.51260000  0.88630000  1.0 -0.5697543791
O  O17  1  0.55400000  0.06600000  0.93530000  1.0 -0.4068859986
O  O18  1  0.44600000  0.93400000  0.43530000  1.0 -0.4068859986
O  O19  1  0.06600000  0.44600000  0.18530000  1.0 -0.4068859986
O  O20  1  0.93400000  0.55400000  0.68530000  1.0 -0.4068859986
F  F1  1  0.08310000  0.09810000  0.12290000  1.0 -0.481201881
F  F2  1  0.91690000  0.90190000  0.62290000  1.0 -0.481201881
F  F3  1  0.09810000  0.91690000  0.37290000  1.0 -0.481201881
F  F4  1  0.90190000  0.08310000  0.87290000  1.0 -0.481201881
F  F5  1  0.91480000  0.09510000  0.32740000  1.0 -0.481201881
F  F6  1  0.08520000  0.90490000  0.82740000  1.0 -0.4741906595
F  F7  1  0.09510000  0.08520000  0.57740000  1.0 -0.4741906595
F  F8  1  0.90490000  0.91480000  0.07740000  1.0 -0.4741906595
F  F9  1  0.43450000  0.40510000  0.95050000  1.0 -0.4591312579
F  F10  1  0.56550000  0.59490000  0.45050000  1.0 -0.4591312579
F  F11  1  0.40510000  0.56550000  0.20050000  1.0 -0.4591312579
F  F12  1  0.59490000  0.43450000  0.70050000  1.0 -0.4591312579
F  F13  1  0.61990000  0.44050000  0.14980000  1.0 -0.481201881
F  F14  1  0.38010000  0.55950000  0.64980000  1.0 -0.481201881
F  F15  1  0.44050000  0.38010000  0.39980000  1.0 -0.481201881
F  F16  1  0.55950000  0.61990000  0.89980000  1.0 -0.481201881
