# DDEC6 charges by PACMAN v1.1 (https://github.com/mtap-research/PACMAN-charge/)
data_AZEWEH_FSR_pacman
_symmetry_space_group_name_H-M   'P 1'
_cell_length_a   6.62100000
_cell_length_b   11.79410000
_cell_length_c   12.20640000
_cell_angle_alpha   90.84600000
_cell_angle_beta   100.57700000
_cell_angle_gamma   102.44600000
_symmetry_Int_Tables_number   1
_chemical_formula_structural   NdH2S2O9
_chemical_formula_sum   'Nd4 H8 S8 O36'
_cell_volume   913.50089364
_cell_formula_units_Z   4
loop_
 _symmetry_equiv_pos_site_id
 _symmetry_equiv_pos_as_xyz
  1  'x, y, z'
loop_
 _atom_site_type_symbol
 _atom_site_label
 _atom_site_symmetry_multiplicity
 _atom_site_fract_x
 _atom_site_fract_y
 _atom_site_fract_z
 _atom_site_occupancy
 _atom_site_charge
Nd  Nd1  1  0.34661000  0.42056000  0.12960000  1.0 2.1542870706
Nd  Nd2  1  0.65339000  0.57944000  0.87040000  1.0 2.1542870706
Nd  Nd3  1  0.73274000  0.86706000  0.44785000  1.0 2.126612634
Nd  Nd4  1  0.26726000  0.13294000  0.55215000  1.0 2.126612634
H  H1  1  0.63200000  0.07970000  0.36340000  1.0 0.3428221797
H  H2  1  0.36800000  0.92030000  0.63660000  1.0 0.3428221797
H  H3  1  0.78000000  0.10100000  0.32230000  1.0 0.3629192417
H  H4  1  0.22000000  0.89900000  0.67770000  1.0 0.3629192417
H  H5  1  0.19300000  0.32290000  0.88550000  1.0 0.4113771324
H  H6  1  0.80700000  0.67710000  0.11450000  1.0 0.4113771324
H  H7  1  0.06200000  0.29300000  0.95600000  1.0 0.3843806689
H  H8  1  0.93800000  0.70700000  0.04400000  1.0 0.3855017429
S  S1  1  0.15990000  0.88028000  0.35798000  1.0 1.4822458928
S  S2  1  0.84010000  0.11972000  0.64202000  1.0 1.4822458928
S  S3  1  0.53310000  0.65708000  0.27418000  1.0 1.4405105417
S  S4  1  0.46690000  0.34292000  0.72582000  1.0 1.4405105417
S  S5  1  0.76270000  0.35265000  0.07308000  1.0 1.4921133226
S  S6  1  0.23730000  0.64735000  0.92692000  1.0 1.4921133226
S  S7  1  0.26410000  0.24731000  0.31931000  1.0 1.4405105417
S  S8  1  0.73590000  0.75269000  0.68069000  1.0 1.4405105417
O  O1  1  0.97630000  0.41610000  0.12230000  1.0 -0.6865958864
O  O2  1  0.02370000  0.58390000  0.87770000  1.0 -0.6865958864
O  O3  1  0.64430000  0.43530000  0.01140000  1.0 -0.8178417975
O  O4  1  0.35570000  0.56470000  0.98860000  1.0 -0.8178417975
O  O5  1  0.35250000  0.37510000  0.32660000  1.0 -0.6473688627
O  O6  1  0.64750000  0.62490000  0.67340000  1.0 -0.6473688627
O  O7  1  0.17960000  0.29740000  0.95830000  1.0 -0.7004548306
O  O8  1  0.82040000  0.70260000  0.04170000  1.0 -0.7004548306
O  O9  1  0.63940000  0.31190000  0.15990000  1.0 -0.6664916868
O  O10  1  0.36060000  0.68810000  0.84010000  1.0 -0.6664916868
O  O11  1  0.30910000  0.60120000  0.23490000  1.0 -0.6080336863
O  O12  1  0.69090000  0.39880000  0.76510000  1.0 -0.6080336863
O  O13  1  0.65140000  0.58550000  0.22130000  1.0 -0.6385120347
O  O14  1  0.34860000  0.41450000  0.77870000  1.0 -0.6385120347
O  O15  1  0.19730000  0.21250000  0.19990000  1.0 -0.6385120347
O  O16  1  0.80270000  0.78750000  0.80010000  1.0 -0.6385120347
O  O17  1  0.37380000  0.88380000  0.41960000  1.0 -0.7004548306
O  O18  1  0.62620000  0.11620000  0.58040000  1.0 -0.7004548306
O  O19  1  0.58620000  0.78050000  0.24690000  1.0 -0.6473688627
O  O20  1  0.41380000  0.21950000  0.75310000  1.0 -0.6473688627
O  O21  1  0.08410000  0.97770000  0.41010000  1.0 -0.8309598262
O  O22  1  0.91590000  0.02230000  0.58990000  1.0 -0.8309598262
O  O23  1  0.58960000  0.65650000  0.39840000  1.0 -0.6294669802
O  O24  1  0.41040000  0.34350000  0.60160000  1.0 -0.6294669802
O  O25  1  0.42350000  0.18710000  0.38010000  1.0 -0.6294669802
O  O26  1  0.57650000  0.81290000  0.61990000  1.0 -0.6294669802
O  O27  1  0.00990000  0.77600000  0.38160000  1.0 -0.6294669802
O  O28  1  0.99010000  0.22400000  0.61840000  1.0 -0.6294669802
O  O29  1  0.69770000  0.04730000  0.33800000  1.0 -0.5792849357
O  O30  1  0.30230000  0.95270000  0.66200000  1.0 -0.5792849357
O  O31  1  0.08760000  0.22030000  0.38110000  1.0 -0.6385120347
O  O32  1  0.91240000  0.77970000  0.61890000  1.0 -0.6385120347
O  O33  1  0.15530000  0.89510000  0.24080000  1.0 -0.4644869114
O  O34  1  0.84470000  0.10490000  0.75920000  1.0 -0.4644869114
O  O35  1  0.77000000  0.25630000  0.99830000  1.0 -0.4850606019
O  O36  1  0.23000000  0.74370000  0.00170000  1.0 -0.4850606019
