# DDEC6 charges by PACMAN v1.1 (https://github.com/mtap-research/PACMAN-charge/)
data_BABREE_ASR_pacman
_symmetry_space_group_name_H-M   'P 1'
_cell_length_a   22.90560000
_cell_length_b   24.22760000
_cell_length_c   24.81450000
_cell_angle_alpha   61.77700000
_cell_angle_beta   63.59900000
_cell_angle_gamma   77.40700000
_symmetry_Int_Tables_number   1
_chemical_formula_structural   Cu12H47C96O61
_chemical_formula_sum   'Cu24 H94 C192 O122'
_cell_volume   10867.58723019
_cell_formula_units_Z   2
loop_
 _symmetry_equiv_pos_site_id
 _symmetry_equiv_pos_as_xyz
  1  'x, y, z'
loop_
 _atom_site_type_symbol
 _atom_site_label
 _atom_site_symmetry_multiplicity
 _atom_site_fract_x
 _atom_site_fract_y
 _atom_site_fract_z
 _atom_site_occupancy
 _atom_site_charge
Cu  Cu1  1  0.04632000  0.89042000  0.94921000  1.0 0.8228845799
Cu  Cu2  1  0.95368000  0.10958000  0.05079000  1.0 0.8228845799
Cu  Cu3  1  0.03222000  0.91565000  0.84060000  1.0 0.8584031904
Cu  Cu4  1  0.96778000  0.08435000  0.15940000  1.0 0.8496869528
Cu  Cu5  1  0.06949000  0.35986000  0.58604000  1.0 0.8496869528
Cu  Cu6  1  0.93051000  0.64014000  0.41396000  1.0 0.8496869528
Cu  Cu7  1  0.98586000  0.64772000  0.77386000  1.0 0.8584031904
Cu  Cu8  1  0.01414000  0.35228000  0.22614000  1.0 0.8584031904
Cu  Cu9  1  0.98452000  0.52895000  0.85619000  1.0 0.8584031904
Cu  Cu10  1  0.01548000  0.47105000  0.14381000  1.0 0.8584031904
Cu  Cu11  1  0.33680000  0.18944000  0.27492000  1.0 0.8496869528
Cu  Cu12  1  0.66320000  0.81056000  0.72508000  1.0 0.8496869528
Cu  Cu13  1  0.62023000  0.11653000  0.87658000  1.0 0.7835393453
Cu  Cu14  1  0.37977000  0.88347000  0.12342000  1.0 0.7835393453
Cu  Cu15  1  0.05591000  0.26645000  0.56661000  1.0 0.8419683679
Cu  Cu16  1  0.94409000  0.73355000  0.43339000  1.0 0.8419683679
Cu  Cu17  1  0.44737000  0.24918000  0.20482000  1.0 0.8228845799
Cu  Cu18  1  0.55263000  0.75082000  0.79518000  1.0 0.8273541136
Cu  Cu19  1  0.71290000  0.08636000  0.78495000  1.0 0.8419683679
Cu  Cu20  1  0.28710000  0.91364000  0.21505000  1.0 0.8419683679
Cu  Cu21  1  0.42672000  0.77659000  0.57067000  1.0 0.8273541136
Cu  Cu22  1  0.57328000  0.22341000  0.42933000  1.0 0.8273541136
Cu  Cu23  1  0.31999000  0.83051000  0.55415000  1.0 0.8419683679
Cu  Cu24  1  0.68001000  0.16949000  0.44585000  1.0 0.8419683679
H  H1  1  0.30620000  0.46110000  0.80890000  1.0 0.3485588063
H  H2  1  0.69380000  0.53890000  0.19110000  1.0 0.3485588063
H  H3  1  0.65800000  0.47750000  0.04090000  1.0 0.3485588063
H  H4  1  0.34200000  0.52250000  0.95910000  1.0 0.3485588063
H  H5  1  0.39700000  0.27290000  0.69620000  1.0 0.3485588063
H  H6  1  0.60300000  0.72710000  0.30380000  1.0 0.3485588063
H  H7  1  0.32780000  0.49660000  0.31420000  1.0 0.2804353365
H  H8  1  0.67220000  0.50340000  0.68580000  1.0 0.2804353365
H  H9  1  0.07480000  0.16730000  0.92330000  1.0 0.3485588063
H  H10  1  0.92520000  0.83270000  0.07670000  1.0 0.3485588063
H  H11  1  0.36550000  0.81680000  0.87340000  1.0 0.3662020767
H  H12  1  0.63450000  0.18320000  0.12660000  1.0 0.3662020767
H  H13  1  0.61950000  0.07680000  0.38130000  1.0 0.3485588063
H  H14  1  0.38050000  0.92320000  0.61870000  1.0 0.3485588063
H  H15  1  0.77060000  0.40080000  0.79890000  1.0 0.357476277
H  H16  1  0.22940000  0.59920000  0.20110000  1.0 0.357476277
H  H17  1  0.68480000  0.91350000  0.14950000  1.0 0.357476277
H  H18  1  0.31520000  0.08650000  0.85050000  1.0 0.357476277
H  H19  1  0.49820000  0.22300000  0.77110000  1.0 0.140843769
H  H20  1  0.50180000  0.77700000  0.22890000  1.0 0.140843769
H  H21  1  0.63950000  0.17200000  0.63170000  1.0 0.140843769
H  H22  1  0.36050000  0.82800000  0.36830000  1.0 0.140843769
H  H23  1  0.98950000  0.73220000  0.88560000  1.0 0.1326484767
H  H24  1  0.01050000  0.26780000  0.11440000  1.0 0.1326484767
H  H25  1  0.99430000  0.55160000  0.01650000  1.0 0.140843769
H  H26  1  0.00570000  0.44840000  0.98350000  1.0 0.140843769
H  H27  1  0.02360000  0.69090000  0.04610000  1.0 0.1326484767
H  H28  1  0.97640000  0.30910000  0.95390000  1.0 0.1326484767
H  H29  1  0.10210000  0.25140000  0.76520000  1.0 0.1490147121
H  H30  1  0.89790000  0.74860000  0.23480000  1.0 0.1490147121
H  H31  1  0.96330000  0.49600000  0.46660000  1.0 0.140843769
H  H32  1  0.03670000  0.50400000  0.53340000  1.0 0.140843769
H  H33  1  0.24620000  0.27010000  0.41500000  1.0 0.1490147121
H  H34  1  0.75380000  0.72990000  0.58500000  1.0 0.1490147121
H  H35  1  0.07350000  0.07760000  0.91180000  1.0 0.140843769
H  H36  1  0.92650000  0.92240000  0.08820000  1.0 0.140843769
H  H37  1  0.07860000  0.10910000  0.73520000  1.0 0.140843769
H  H38  1  0.92140000  0.89090000  0.26480000  1.0 0.140843769
H  H39  1  0.22370000  0.86230000  0.72860000  1.0 0.1490147121
H  H40  1  0.77630000  0.13770000  0.27140000  1.0 0.1490147121
H  H41  1  0.38960000  0.78320000  0.75460000  1.0 0.1490147121
H  H42  1  0.61040000  0.21680000  0.24540000  1.0 0.1490147121
H  H43  1  0.38200000  0.06570000  0.18170000  1.0 0.140843769
H  H44  1  0.61800000  0.93430000  0.81830000  1.0 0.140843769
H  H45  1  0.78010000  0.67270000  0.81530000  1.0 0.140843769
H  H46  1  0.21990000  0.32730000  0.18470000  1.0 0.140843769
H  H47  1  0.02490000  0.37380000  0.38520000  1.0 0.1326484767
H  H48  1  0.97510000  0.62620000  0.61480000  1.0 0.140843769
H  H49  1  0.83810000  0.98790000  0.88880000  1.0 0.1490147121
H  H50  1  0.16190000  0.01210000  0.11120000  1.0 0.140843769
H  H51  1  0.24710000  0.84030000  0.89050000  1.0 0.140843769
H  H52  1  0.75290000  0.15970000  0.10950000  1.0 0.140843769
H  H53  1  0.94010000  0.53570000  0.29820000  1.0 0.140843769
H  H54  1  0.05990000  0.46430000  0.70180000  1.0 0.140843769
H  H55  1  0.39270000  0.01790000  0.41130000  1.0 0.140843769
H  H56  1  0.60730000  0.98210000  0.58870000  1.0 0.140843769
H  H57  1  0.71020000  0.27550000  0.83740000  1.0 0.140843769
H  H58  1  0.28980000  0.72450000  0.16260000  1.0 0.140843769
H  H59  1  0.19180000  0.67430000  0.68690000  1.0 0.140843769
H  H60  1  0.80820000  0.32570000  0.31310000  1.0 0.140843769
H  H61  1  0.85560000  0.22560000  0.70500000  1.0 0.1490147121
H  H62  1  0.14440000  0.77440000  0.29500000  1.0 0.1490147121
H  H63  1  0.51630000  0.19840000  0.03700000  1.0 0.140843769
H  H64  1  0.48370000  0.80160000  0.96300000  1.0 0.140843769
H  H65  1  0.49620000  0.05450000  0.00820000  1.0 0.140843769
H  H66  1  0.50380000  0.94550000  0.99180000  1.0 0.140843769
H  H67  1  0.39980000  0.38470000  0.28650000  1.0 0.1490147121
H  H68  1  0.60020000  0.61530000  0.71350000  1.0 0.1490147121
H  H69  1  0.54140000  0.94230000  0.46540000  1.0 0.1490147121
H  H70  1  0.45860000  0.05770000  0.53460000  1.0 0.1490147121
H  H71  1  0.55040000  0.11990000  0.33070000  1.0 0.140843769
H  H72  1  0.44960000  0.88010000  0.66930000  1.0 0.140843769
H  H73  1  0.87890000  0.36690000  0.73350000  1.0 0.140843769
H  H74  1  0.12110000  0.63310000  0.26650000  1.0 0.140843769
H  H75  1  0.61220000  0.58180000  0.93650000  1.0 0.140843769
H  H76  1  0.38780000  0.41820000  0.06350000  1.0 0.140843769
H  H77  1  0.67660000  0.99560000  0.04300000  1.0 0.140843769
H  H78  1  0.32340000  0.00440000  0.95700000  1.0 0.140843769
H  H79  1  0.25950000  0.42270000  0.43270000  1.0 0.140843769
H  H80  1  0.74050000  0.57730000  0.56730000  1.0 0.140843769
H  H81  1  0.18750000  0.49110000  0.80300000  1.0 0.140843769
H  H82  1  0.81250000  0.50890000  0.19700000  1.0 0.1490147121
H  H83  1  0.83660000  0.90360000  0.07140000  1.0 0.1326484767
H  H84  1  0.16340000  0.09640000  0.92860000  1.0 0.1326484767
H  H85  1  0.77730000  0.49630000  0.95380000  1.0 0.140843769
H  H86  1  0.22270000  0.50370000  0.04620000  1.0 0.140843769
H  H87  1  0.36020000  0.58280000  0.68440000  1.0 0.140843769
H  H88  1  0.63980000  0.41720000  0.31560000  1.0 0.140843769
H  H89  1  0.48230000  0.26280000  0.59970000  1.0 0.1326484767
H  H90  1  0.51770000  0.73720000  0.40030000  1.0 0.1326484767
H  H91  1  0.38350000  0.44350000  0.38100000  1.0 0.2711270903
H  H92  1  0.61650000  0.55650000  0.61900000  1.0 0.2711270903
H  H93  1  0.58620000  0.13050000  0.93990000  1.0 0.3071270043
H  H94  1  0.41380000  0.86950000  0.06010000  1.0 0.3071270043
C  C1  1  0.68860000  0.53330000  0.95430000  1.0 0.2592418277
C  C2  1  0.31140000  0.46670000  0.04570000  1.0 0.2592418277
C  C3  1  0.51520000  0.22370000  0.72910000  1.0 -0.2104913129
C  C4  1  0.48480000  0.77630000  0.27090000  1.0 -0.2104913129
C  C5  1  0.48150000  0.25390000  0.68670000  1.0 0.2991082796
C  C6  1  0.51850000  0.74610000  0.31330000  1.0 0.2991082796
C  C7  1  0.27850000  0.52890000  0.74790000  1.0 0.2711270903
C  C8  1  0.72150000  0.47110000  0.25210000  1.0 0.2711270903
C  C9  1  0.94850000  0.30330000  0.66060000  1.0 0.5720856869
C  C10  1  0.05150000  0.69670000  0.33940000  1.0 0.5720856869
C  C11  1  0.98350000  0.61760000  0.90000000  1.0 0.579629391
C  C12  1  0.01650000  0.38240000  0.10000000  1.0 0.579629391
C  C13  1  0.06330000  0.01520000  0.85370000  1.0 0.579629391
C  C14  1  0.93670000  0.98480000  0.14630000  1.0 0.579629391
C  C15  1  0.35420000  0.27920000  0.30850000  1.0 0.579629391
C  C16  1  0.64580000  0.72080000  0.69150000  1.0 0.579629391
C  C17  1  0.01570000  0.79000000  0.93920000  1.0 0.579629391
C  C18  1  0.98430000  0.21000000  0.06080000  1.0 0.579629391
C  C19  1  0.59940000  0.19150000  0.64550000  1.0 -0.1111066276
C  C20  1  0.40060000  0.80850000  0.35450000  1.0 -0.1111066276
C  C21  1  0.99440000  0.70280000  0.92450000  1.0 -0.1288122833
C  C22  1  0.00560000  0.29720000  0.07550000  1.0 -0.1288122833
C  C23  1  0.17550000  0.32860000  0.49030000  1.0 0.5720856869
C  C24  1  0.82450000  0.67140000  0.50970000  1.0 0.5720856869
C  C25  1  0.73380000  0.19220000  0.79290000  1.0 0.579629391
C  C26  1  0.26620000  0.80780000  0.20710000  1.0 0.579629391
C  C27  1  0.39890000  0.99310000  0.12660000  1.0 0.5720856869
C  C28  1  0.60110000  0.00690000  0.87340000  1.0 0.5720856869
C  C29  1  0.86370000  0.58690000  0.85590000  1.0 0.579629391
C  C30  1  0.13630000  0.41310000  0.14410000  1.0 0.579629391
C  C31  1  0.00610000  0.72150000  0.96340000  1.0 -0.0184235342
C  C32  1  0.99390000  0.27850000  0.03660000  1.0 -0.0184235342
C  C33  1  0.08650000  0.16820000  0.84540000  1.0 0.2711270903
C  C34  1  0.91350000  0.83180000  0.15460000  1.0 0.2711270903
C  C35  1  0.99690000  0.59420000  0.00330000  1.0 -0.1905638174
C  C36  1  0.00310000  0.40580000  0.99670000  1.0 -0.1971819092
C  C37  1  0.08930000  0.23360000  0.67280000  1.0 0.5720856869
C  C38  1  0.91070000  0.76640000  0.32720000  1.0 0.5720856869
C  C39  1  0.98990000  0.63770000  0.94520000  1.0 -0.0184235342
C  C40  1  0.01010000  0.36230000  0.05480000  1.0 -0.0184235342
C  C41  1  0.58800000  0.21170000  0.54250000  1.0 0.579629391
C  C42  1  0.41200000  0.78830000  0.45750000  1.0 0.579629391
C  C43  1  0.42670000  0.16580000  0.16400000  1.0 0.579629391
C  C44  1  0.57330000  0.83420000  0.83600000  1.0 0.579629391
C  C45  1  0.01410000  0.67770000  0.02130000  1.0 -0.1905638174
C  C46  1  0.98590000  0.32230000  0.97870000  1.0 -0.1905638174
C  C47  1  0.09440000  0.20940000  0.78080000  1.0 -0.1905638174
C  C48  1  0.90560000  0.79060000  0.21920000  1.0 -0.1905638174
C  C49  1  0.15710000  0.87590000  0.84090000  1.0 0.5720856869
C  C50  1  0.84290000  0.12410000  0.15910000  1.0 0.5720856869
C  C51  1  0.42710000  0.90890000  0.49080000  1.0 0.579629391
C  C52  1  0.57290000  0.09110000  0.50920000  1.0 0.579629391
C  C53  1  0.00050000  0.43550000  0.27840000  1.0 0.579629391
C  C54  1  0.99950000  0.56450000  0.72160000  1.0 0.579629391
C  C55  1  0.96760000  0.48490000  0.43390000  1.0 -0.2104913129
C  C56  1  0.03240000  0.51510000  0.56610000  1.0 -0.2104913129
C  C57  1  0.10850000  0.58400000  0.77500000  1.0 0.579629391
C  C58  1  0.89150000  0.41600000  0.22500000  1.0 0.579629391
C  C59  1  0.99940000  0.42900000  0.43270000  1.0 0.0017702196
C  C60  1  0.00060000  0.57100000  0.56730000  1.0 0.0017702196
C  C61  1  0.26870000  0.30570000  0.39980000  1.0 -0.1288122833
C  C62  1  0.73130000  0.69430000  0.60020000  1.0 -0.1288122833
C  C63  1  0.07770000  0.10530000  0.86860000  1.0 -0.2186003199
C  C64  1  0.92230000  0.89470000  0.13140000  1.0 -0.2186003199
C  C65  1  0.08100000  0.12430000  0.76230000  1.0 -0.1288122833
C  C66  1  0.91900000  0.87570000  0.23770000  1.0 -0.1288122833
C  C67  1  0.24870000  0.84870000  0.75370000  1.0 -0.1396863973
C  C68  1  0.75130000  0.15130000  0.24630000  1.0 -0.1396863973
C  C69  1  0.71980000  0.03710000  0.91060000  1.0 0.5720856869
C  C70  1  0.28020000  0.96290000  0.08940000  1.0 0.5720856869
C  C71  1  0.09080000  0.18880000  0.73860000  1.0 -0.0102267676
C  C72  1  0.90920000  0.81120000  0.26140000  1.0 -0.0102267676
C  C73  1  0.98580000  0.45370000  0.33400000  1.0 -0.0102267676
C  C74  1  0.01420000  0.54630000  0.66600000  1.0 -0.0102267676
C  C75  1  0.00800000  0.61450000  0.04220000  1.0 0.3215274417
C  C76  1  0.99200000  0.38550000  0.95780000  1.0 0.3215274417
C  C77  1  0.02330000  0.38640000  0.48690000  1.0 0.579629391
C  C78  1  0.97670000  0.61360000  0.51310000  1.0 0.579629391
C  C79  1  0.34930000  0.80220000  0.76870000  1.0 -0.2292233466
C  C80  1  0.65070000  0.19780000  0.23130000  1.0 -0.2292233466
C  C81  1  0.41630000  0.08080000  0.14000000  1.0 -0.1236151627
C  C82  1  0.58370000  0.91920000  0.86000000  1.0 -0.1236151627
C  C83  1  0.75760000  0.63660000  0.85010000  1.0 -0.1111066276
C  C84  1  0.24240000  0.36340000  0.14990000  1.0 -0.1111066276
C  C85  1  0.07510000  0.08390000  0.82780000  1.0 0.0084761252
C  C86  1  0.92490000  0.91610000  0.17220000  1.0 0.0084761252
C  C87  1  0.00650000  0.41230000  0.38430000  1.0 -0.1396863973
C  C88  1  0.99350000  0.58770000  0.61570000  1.0 -0.1396863973
C  C89  1  0.33620000  0.81720000  0.66760000  1.0 0.5720856869
C  C90  1  0.66380000  0.18280000  0.33240000  1.0 0.5720856869
C  C91  1  0.46140000  0.97070000  0.44610000  1.0 -0.0102267676
C  C92  1  0.53860000  0.02930000  0.55390000  1.0 -0.0102267676
C  C93  1  0.32660000  0.31960000  0.34580000  1.0 0.0017702196
C  C94  1  0.67340000  0.68040000  0.65420000  1.0 0.0017702196
C  C95  1  0.43790000  0.12990000  0.31550000  1.0 0.5720856869
C  C96  1  0.56210000  0.87010000  0.68450000  1.0 0.5720856869
C  C97  1  0.84810000  0.94460000  0.97710000  1.0 -0.0043354053
C  C98  1  0.15190000  0.05540000  0.02290000  1.0 -0.0043354053
C  C99  1  0.24320000  0.34420000  0.43250000  1.0 0.0186856554
C  C100  1  0.75680000  0.65580000  0.56750000  1.0 0.0186856554
C  C101  1  0.81660000  0.97870000  0.93390000  1.0 -0.1236151627
C  C102  1  0.18340000  0.02130000  0.06610000  1.0 -0.1236151627
C  C103  1  0.79120000  0.58580000  0.88070000  1.0 -0.0102267676
C  C104  1  0.20880000  0.41420000  0.11930000  1.0 -0.0102267676
C  C105  1  0.46860000  0.07690000  0.36130000  1.0 0.0256007181
C  C106  1  0.53140000  0.92310000  0.63870000  1.0 0.0256007181
C  C107  1  0.87810000  0.29760000  0.71140000  1.0 0.0084761252
C  C108  1  0.12190000  0.70240000  0.28860000  1.0 0.0084761252
C  C109  1  0.22460000  0.85350000  0.81380000  1.0 0.0017702196
C  C110  1  0.77540000  0.14650000  0.18620000  1.0 0.0017702196
C  C111  1  0.26290000  0.83560000  0.85130000  1.0 -0.2410508291
C  C112  1  0.73710000  0.16440000  0.14870000  1.0 -0.2410508291
C  C113  1  0.69140000  0.63460000  0.87030000  1.0 -0.0102267676
C  C114  1  0.30860000  0.36540000  0.12970000  1.0 -0.0102267676
C  C115  1  0.31730000  0.69790000  0.63500000  1.0 0.5720856869
C  C116  1  0.68270000  0.30210000  0.36500000  1.0 0.5720856869
C  C117  1  0.91870000  0.92700000  0.94790000  1.0 0.5968820059
C  C118  1  0.08130000  0.07300000  0.05210000  1.0 0.5968820059
C  C119  1  0.95380000  0.50900000  0.33230000  1.0 -0.1971819092
C  C120  1  0.04620000  0.49100000  0.66770000  1.0 -0.1971819092
C  C121  1  0.32580000  0.81050000  0.82760000  1.0 0.2991082796
C  C122  1  0.67420000  0.18950000  0.17240000  1.0 0.2991082796
C  C123  1  0.43440000  0.02110000  0.40710000  1.0 -0.1396863973
C  C124  1  0.56560000  0.97890000  0.59290000  1.0 -0.1288122833
C  C125  1  0.61040000  0.16290000  0.75300000  1.0 0.5720856869
C  C126  1  0.38960000  0.83710000  0.24700000  1.0 0.5720856869
C  C127  1  0.44870000  0.13370000  0.11870000  1.0 -0.0102267676
C  C128  1  0.55130000  0.86630000  0.88130000  1.0 -0.0102267676
C  C129  1  0.43380000  0.05000000  0.10100000  1.0 -0.0184235342
C  C130  1  0.56620000  0.95000000  0.89900000  1.0 -0.0184235342
C  C131  1  0.31050000  0.82330000  0.73170000  1.0 -0.0184235342
C  C132  1  0.68950000  0.17670000  0.26830000  1.0 -0.0184235342
C  C133  1  0.55690000  0.03250000  0.39600000  1.0 0.286826601
C  C134  1  0.44310000  0.96750000  0.60400000  1.0 0.286826601
C  C135  1  0.75290000  0.28030000  0.80590000  1.0 -0.1778706755
C  C136  1  0.24710000  0.71970000  0.19410000  1.0 -0.1778706755
C  C137  1  0.21460000  0.63790000  0.70330000  1.0 -0.093033979
C  C138  1  0.78540000  0.36210000  0.29670000  1.0 -0.093033979
C  C139  1  0.56460000  0.21690000  0.60550000  1.0 -0.0386693219
C  C140  1  0.43540000  0.78310000  0.39450000  1.0 -0.0386693219
C  C141  1  0.83900000  0.25140000  0.72690000  1.0 -0.1111066276
C  C142  1  0.16100000  0.74860000  0.27310000  1.0 -0.1111066276
C  C143  1  0.51100000  0.12970000  0.01260000  1.0 0.2804353365
C  C144  1  0.48900000  0.87030000  0.98740000  1.0 0.2804353365
C  C145  1  0.94260000  0.52380000  0.38620000  1.0 0.3485588063
C  C146  1  0.05740000  0.47620000  0.61380000  1.0 0.3485588063
C  C147  1  0.49590000  0.16130000  0.05310000  1.0 -0.2186003199
C  C148  1  0.50410000  0.83870000  0.94690000  1.0 -0.2186003199
C  C149  1  0.65670000  0.69020000  0.83350000  1.0 0.579629391
C  C150  1  0.34330000  0.30980000  0.16650000  1.0 0.579629391
C  C151  1  0.77610000  0.24310000  0.77420000  1.0 -0.0102267676
C  C152  1  0.22390000  0.75690000  0.22580000  1.0 -0.0102267676
C  C153  1  0.18110000  0.58260000  0.74950000  1.0 -0.0184235342
C  C154  1  0.81890000  0.41740000  0.25050000  1.0 -0.0184235342
C  C155  1  0.28140000  0.64010000  0.68100000  1.0 -0.0530968627
C  C156  1  0.71860000  0.35990000  0.31900000  1.0 -0.0530968627
C  C157  1  0.48330000  0.07530000  0.03510000  1.0 -0.2292233466
C  C158  1  0.51670000  0.92470000  0.96490000  1.0 -0.2292233466
C  C159  1  0.36020000  0.37440000  0.32330000  1.0 -0.2410508291
C  C160  1  0.63980000  0.62560000  0.67670000  1.0 -0.2410508291
C  C161  1  0.75430000  0.99840000  0.95820000  1.0 0.0084761252
C  C162  1  0.24570000  0.00160000  0.04180000  1.0 0.0084761252
C  C163  1  0.79160000  0.32570000  0.79250000  1.0 0.2592418277
C  C164  1  0.20840000  0.67430000  0.20750000  1.0 0.2546414041
C  C165  1  0.52240000  0.97630000  0.44000000  1.0 -0.1971819092
C  C166  1  0.47760000  0.02370000  0.56000000  1.0 -0.1971819092
C  C167  1  0.52860000  0.08190000  0.35870000  1.0 -0.2410508291
C  C168  1  0.47140000  0.91810000  0.64130000  1.0 -0.2410508291
C  C169  1  0.57480000  0.19480000  0.70610000  1.0 -0.0102267676
C  C170  1  0.42520000  0.80520000  0.29390000  1.0 -0.0102267676
C  C171  1  0.85360000  0.33510000  0.74410000  1.0 -0.2104913129
C  C172  1  0.14640000  0.66490000  0.25590000  1.0 -0.2104913129
C  C173  1  0.65710000  0.58290000  0.92270000  1.0 -0.1778706755
C  C174  1  0.34290000  0.41710000  0.07730000  1.0 -0.1905638174
C  C175  1  0.71950000  0.98250000  0.02620000  1.0 -0.2186003199
C  C176  1  0.28050000  0.01750000  0.97380000  1.0 -0.2186003199
C  C177  1  0.27630000  0.39710000  0.41050000  1.0 -0.2579655296
C  C178  1  0.72370000  0.60290000  0.58950000  1.0 -0.2579655296
C  C179  1  0.75270000  0.94580000  0.06760000  1.0 0.2592418277
C  C180  1  0.24730000  0.05420000  0.93240000  1.0 0.2592418277
C  C181  1  0.21080000  0.52800000  0.77230000  1.0 -0.1778706755
C  C182  1  0.78920000  0.47200000  0.22770000  1.0 -0.1778706755
C  C183  1  0.81570000  0.92780000  0.04270000  1.0 -0.1778706755
C  C184  1  0.18430000  0.07220000  0.95730000  1.0 -0.1778706755
C  C185  1  0.33400000  0.41140000  0.35600000  1.0 0.3254643881
C  C186  1  0.66600000  0.58860000  0.64400000  1.0 0.3254643881
C  C187  1  0.75600000  0.53200000  0.93340000  1.0 -0.2104913129
C  C188  1  0.24400000  0.46800000  0.06660000  1.0 -0.2104913129
C  C189  1  0.31490000  0.58400000  0.70120000  1.0 -0.1778706755
C  C190  1  0.68510000  0.41600000  0.29880000  1.0 -0.1778706755
C  C191  1  0.50630000  0.24680000  0.62590000  1.0 -0.1971819092
C  C192  1  0.49370000  0.75320000  0.37410000  1.0 -0.1971819092
O  O1  1  0.31420000  0.47280000  0.76940000  1.0 -0.4324572003
O  O2  1  0.68580000  0.52720000  0.23060000  1.0 -0.4402148606
O  O3  1  0.97540000  0.66034000  0.84907000  1.0 -0.519816593
O  O4  1  0.02460000  0.33966000  0.15093000  1.0 -0.519816593
O  O5  1  0.06190000  0.99879000  0.81233000  1.0 -0.519816593
O  O6  1  0.93810000  0.00121000  0.18767000  1.0 -0.519816593
O  O7  1  0.09840000  0.28949000  0.65478000  1.0 -0.4998904912
O  O8  1  0.90160000  0.71051000  0.34522000  1.0 -0.4998904912
O  O9  1  0.03280000  0.80341000  0.97283000  1.0 -0.519816593
O  O10  1  0.96720000  0.19659000  0.02717000  1.0 -0.519816593
O  O11  1  0.98340000  0.56014000  0.91675000  1.0 -0.508145954
O  O12  1  0.01660000  0.43986000  0.08325000  1.0 -0.508145954
O  O13  1  0.65540000  0.48070000  0.00770000  1.0 -0.4324572003
O  O14  1  0.34460000  0.51930000  0.99230000  1.0 -0.4324572003
O  O15  1  0.42010000  0.28050000  0.70930000  1.0 -0.4324572003
O  O16  1  0.57990000  0.71950000  0.29070000  1.0 -0.4324572003
O  O17  1  0.03320000  0.40900000  0.51740000  1.0 -0.508145954
O  O18  1  0.96680000  0.59100000  0.48260000  1.0 -0.508145954
O  O19  1  0.00470000  0.82753000  0.88799000  1.0 -0.519816593
O  O20  1  0.99530000  0.17247000  0.11201000  1.0 -0.519816593
O  O21  1  0.01770000  0.57170000  0.09764000  1.0 -0.4721174857
O  O22  1  0.98230000  0.42830000  0.90236000  1.0 -0.4721174857
O  O23  1  0.07780000  0.21168000  0.64243000  1.0 -0.508145954
O  O24  1  0.92220000  0.78832000  0.35757000  1.0 -0.508145954
O  O25  1  0.03340000  0.33058000  0.49377000  1.0 -0.519816593
O  O26  1  0.96660000  0.66942000  0.50623000  1.0 -0.519816593
O  O27  1  0.58500000  0.16370000  0.80800000  1.0 -0.4915402627
O  O28  1  0.41500000  0.83630000  0.19200000  1.0 -0.4915402627
O  O29  1  0.13870000  0.88188000  0.89400000  1.0 -0.519816593
O  O30  1  0.86130000  0.11812000  0.10600000  1.0 -0.519816593
O  O31  1  0.05760000  0.97981000  0.91184000  1.0 -0.4998904912
O  O32  1  0.94240000  0.02019000  0.08816000  1.0 -0.4998904912
O  O33  1  0.35710000  0.47160000  0.32120000  1.0 -0.1562839246
O  O34  1  0.64290000  0.52840000  0.67880000  1.0 -0.1562839246
O  O35  1  0.46810000  0.20350000  0.15080000  1.0 -0.5399161971
O  O36  1  0.53190000  0.79650000  0.84920000  1.0 -0.5399161971
O  O37  1  0.75860000  0.15990000  0.76020000  1.0 -0.508145954
O  O38  1  0.24140000  0.84010000  0.23980000  1.0 -0.508145954
O  O39  1  0.94370000  0.94040000  0.88633000  1.0 -0.508145954
O  O40  1  0.05630000  0.05960000  0.11367000  1.0 -0.508145954
O  O41  1  0.90870000  0.57600000  0.38940000  1.0 -0.4721174857
O  O42  1  0.09130000  0.42400000  0.61060000  1.0 -0.4721174857
O  O43  1  0.08020000  0.63550000  0.75320000  1.0 -0.508145954
O  O44  1  0.91980000  0.36450000  0.24680000  1.0 -0.508145954
O  O45  1  0.00110000  0.37702000  0.29455000  1.0 -0.5282783365
O  O46  1  0.99890000  0.62298000  0.70545000  1.0 -0.5282783365
O  O47  1  0.94876000  0.90131000  0.98590000  1.0 -0.5399161971
O  O48  1  0.05124000  0.09869000  0.01410000  1.0 -0.5399161971
O  O49  1  0.01110000  0.47947000  0.22124000  1.0 -0.508145954
O  O50  1  0.98890000  0.52053000  0.77876000  1.0 -0.508145954
O  O51  1  0.31740000  0.23680000  0.32670000  1.0 -0.508145954
O  O52  1  0.68260000  0.76320000  0.67330000  1.0 -0.508145954
O  O53  1  0.96610000  0.27070000  0.63010000  1.0 -0.4998904912
O  O54  1  0.03390000  0.72930000  0.36990000  1.0 -0.4915402627
O  O55  1  0.89160000  0.63570000  0.81000000  1.0 -0.4915402627
O  O56  1  0.10840000  0.36430000  0.19000000  1.0 -0.4915402627
O  O57  1  0.69270000  0.73700000  0.78720000  1.0 -0.5282783365
O  O58  1  0.30730000  0.26300000  0.21280000  1.0 -0.5282783365
O  O59  1  0.64320000  0.18620000  0.52480000  1.0 -0.508145954
O  O60  1  0.35680000  0.81380000  0.47520000  1.0 -0.4998904912
O  O61  1  0.38010000  0.12436000  0.32950000  1.0 -0.4998904912
O  O62  1  0.61990000  0.87564000  0.67050000  1.0 -0.4998904912
O  O63  1  0.55140000  0.23160000  0.51180000  1.0 -0.4998904912
O  O64  1  0.44860000  0.76840000  0.48820000  1.0 -0.4998904912
O  O65  1  0.59720000  0.68560000  0.85010000  1.0 -0.4998904912
O  O66  1  0.40280000  0.31440000  0.14990000  1.0 -0.4998904912
O  O67  1  0.12250000  0.88748000  0.80884000  1.0 -0.508145954
O  O68  1  0.87750000  0.11252000  0.19116000  1.0 -0.508145954
O  O69  1  0.89120000  0.53701000  0.88650000  1.0 -0.519816593
O  O70  1  0.10880000  0.46299000  0.11350000  1.0 -0.519816593
O  O71  1  0.08840000  0.19322000  0.88420000  1.0 -0.4202050364
O  O72  1  0.91160000  0.80678000  0.11580000  1.0 -0.4202050364
O  O73  1  0.74690000  0.03840000  0.85460000  1.0 -0.4915402627
O  O74  1  0.25310000  0.96160000  0.14540000  1.0 -0.4915402627
O  O75  1  0.66470000  0.13770000  0.72980000  1.0 -0.519816593
O  O76  1  0.33530000  0.86230000  0.27020000  1.0 -0.519816593
O  O77  1  0.42580000  0.95720000  0.09480000  1.0 -0.5399161971
O  O78  1  0.57420000  0.04280000  0.90520000  1.0 -0.5399161971
O  O79  1  0.66640000  0.06350000  0.93370000  1.0 -0.5282783365
O  O80  1  0.33360000  0.93650000  0.06630000  1.0 -0.5282783365
O  O81  1  0.29910000  0.83897000  0.63550000  1.0 -0.519816593
O  O82  1  0.70090000  0.16103000  0.36450000  1.0 -0.519816593
O  O83  1  0.08000000  0.53240000  0.81630000  1.0 -0.4998904912
O  O84  1  0.92000000  0.46760000  0.18370000  1.0 -0.4998904912
O  O85  1  0.98100000  0.34370000  0.65270000  1.0 -0.4998904912
O  O86  1  0.01900000  0.65630000  0.34730000  1.0 -0.4998904912
O  O87  1  0.45909000  0.86262000  0.51660000  1.0 -0.5282783365
O  O88  1  0.54091000  0.13738000  0.48340000  1.0 -0.5282783365
O  O89  1  0.40980000  0.29054000  0.26420000  1.0 -0.508145954
O  O90  1  0.59020000  0.70946000  0.73580000  1.0 -0.508145954
O  O91  1  0.47370000  0.17620000  0.27180000  1.0 -0.519816593
O  O92  1  0.52630000  0.82380000  0.72820000  1.0 -0.519816593
O  O93  1  0.14940000  0.28247000  0.50613000  1.0 -0.4575185275
O  O94  1  0.85060000  0.71753000  0.49387000  1.0 -0.4575185275
O  O95  1  0.36830000  0.90897000  0.50000000  1.0 -0.508145954
O  O96  1  0.63170000  0.09103000  0.50000000  1.0 -0.508145954
O  O97  1  0.34530000  0.98310000  0.17500000  1.0 -0.4998904912
O  O98  1  0.65470000  0.01690000  0.82500000  1.0 -0.4998904912
O  O99  1  0.15590000  0.36804000  0.51581000  1.0 -0.5282783365
O  O100  1  0.84410000  0.63196000  0.48419000  1.0 -0.5282783365
O  O101  1  0.39020000  0.79100000  0.65160000  1.0 -0.4998904912
O  O102  1  0.60980000  0.20900000  0.34840000  1.0 -0.4998904912
O  O103  1  0.37290000  0.15260000  0.21070000  1.0 -0.4998904912
O  O104  1  0.62710000  0.84740000  0.78930000  1.0 -0.4998904912
O  O105  1  0.37640000  0.69750000  0.62380000  1.0 -0.508145954
O  O106  1  0.62360000  0.30250000  0.37620000  1.0 -0.508145954
O  O107  1  0.67900000  0.18500000  0.83880000  1.0 -0.4915402627
O  O108  1  0.32100000  0.81500000  0.16120000  1.0 -0.4915402627
O  O109  1  0.36200000  0.78910000  0.86490000  1.0 -0.3801803386
O  O110  1  0.63800000  0.21090000  0.13510000  1.0 -0.3801803386
O  O111  1  0.55440000  0.15570000  0.94610000  1.0 -0.4402148606
O  O112  1  0.44560000  0.84430000  0.05390000  1.0 -0.4402148606
O  O113  1  0.28550000  0.74460000  0.61030000  1.0 -0.4998904912
O  O114  1  0.71450000  0.25540000  0.38970000  1.0 -0.508145954
O  O115  1  0.61460000  0.03970000  0.39330000  1.0 -0.3933999336
O  O116  1  0.38540000  0.96030000  0.60670000  1.0 -0.3933999336
O  O117  1  0.76440000  0.36390000  0.82580000  1.0 -0.4402148606
O  O118  1  0.23560000  0.63610000  0.17420000  1.0 -0.4402148606
O  O119  1  0.71940000  0.92950000  0.13650000  1.0 -0.4402148606
O  O120  1  0.28060000  0.07050000  0.86350000  1.0 -0.4402148606
O  O121  1  0.38070000  0.45370000  0.34560000  1.0 -0.1003384537
O  O122  1  0.61930000  0.54630000  0.65440000  1.0 -0.1003384537
