# DDEC6 charges by PACMAN v1.1 (https://github.com/mtap-research/PACMAN-charge/)
data_BACNEC_FSR_pacman
_symmetry_space_group_name_H-M   'P 1'
_cell_length_a   15.32430000
_cell_length_b   21.04420000
_cell_length_c   21.21870000
_cell_angle_alpha   90.00000000
_cell_angle_beta   90.00000000
_cell_angle_gamma   90.00000000
_symmetry_Int_Tables_number   1
_chemical_formula_structural   Cs2K2Yb4Re6H8C18Se8S2N10O41
_chemical_formula_sum   'Cs8 K8 Yb16 Re24 H32 C72 Se32 S8 N40 O164'
_cell_volume   6842.76836083
_cell_formula_units_Z   4
loop_
 _symmetry_equiv_pos_site_id
 _symmetry_equiv_pos_as_xyz
  1  'x, y, z'
loop_
 _atom_site_type_symbol
 _atom_site_label
 _atom_site_symmetry_multiplicity
 _atom_site_fract_x
 _atom_site_fract_y
 _atom_site_fract_z
 _atom_site_occupancy
 _atom_site_charge
Cs  Cs1  1  0.43542000  0.46374000  0.09804000  1.0 0.6825265248
Cs  Cs2  1  0.56458000  0.96374000  0.40196000  1.0 0.6825265248
Cs  Cs3  1  0.93542000  0.53626000  0.90196000  1.0 0.6825265248
Cs  Cs4  1  0.06458000  0.03626000  0.59804000  1.0 0.6825265248
Cs  Cs5  1  0.56458000  0.53626000  0.90196000  1.0 0.6825265248
Cs  Cs6  1  0.43542000  0.03626000  0.59804000  1.0 0.6825265248
Cs  Cs7  1  0.06458000  0.46374000  0.09804000  1.0 0.6825265248
Cs  Cs8  1  0.93542000  0.96374000  0.40196000  1.0 0.6825265248
K  K1  1  0.25000000  0.94620000  0.25100000  1.0 0.3626747687
K  K2  1  0.75000000  0.44620000  0.24900000  1.0 0.3658053089
K  K3  1  0.75000000  0.05380000  0.74900000  1.0 0.3658053089
K  K4  1  0.25000000  0.55380000  0.75100000  1.0 0.3626747687
K  K5  1  0.75000000  0.43480000  0.23700000  1.0 0.4709140394
K  K6  1  0.25000000  0.93480000  0.26300000  1.0 0.4709140394
K  K7  1  0.25000000  0.56520000  0.76300000  1.0 0.4709140394
K  K8  1  0.75000000  0.06520000  0.73700000  1.0 0.4709140394
Yb  Yb1  1  0.37265000  0.61447000  0.23163000  1.0 2.0703100521
Yb  Yb2  1  0.62735000  0.11447000  0.26837000  1.0 2.0703100521
Yb  Yb3  1  0.87265000  0.38553000  0.76837000  1.0 2.0703100521
Yb  Yb4  1  0.12735000  0.88553000  0.73163000  1.0 2.0703100521
Yb  Yb5  1  0.62735000  0.38553000  0.76837000  1.0 2.0703100521
Yb  Yb6  1  0.37265000  0.88553000  0.73163000  1.0 2.0703100521
Yb  Yb7  1  0.12735000  0.61447000  0.23163000  1.0 2.0703100521
Yb  Yb8  1  0.87265000  0.11447000  0.26837000  1.0 2.0703100521
Yb  Yb9  1  0.25000000  0.56120000  0.36977000  1.0 2.1513944823
Yb  Yb10  1  0.25000000  0.73342000  0.32342000  1.0 2.1513944823
Yb  Yb11  1  0.75000000  0.06120000  0.13023000  1.0 2.1513944823
Yb  Yb12  1  0.75000000  0.23342000  0.17658000  1.0 2.1513944823
Yb  Yb13  1  0.75000000  0.43880000  0.63023000  1.0 2.1513944823
Yb  Yb14  1  0.75000000  0.26658000  0.67658000  1.0 2.1513944823
Yb  Yb15  1  0.25000000  0.93880000  0.86977000  1.0 2.1513944823
Yb  Yb16  1  0.25000000  0.76658000  0.82342000  1.0 2.1513944823
Re  Re1  1  0.16421000  0.23497000  0.52878000  1.0 0.2187594983
Re  Re2  1  0.16437000  0.30845000  0.62882000  1.0 0.1067691926
Re  Re3  1  0.83579000  0.73497000  0.97122000  1.0 0.2187594983
Re  Re4  1  0.83563000  0.80845000  0.87118000  1.0 0.1067691926
Re  Re5  1  0.66421000  0.76503000  0.47122000  1.0 0.2143785913
Re  Re6  1  0.66437000  0.69155000  0.37118000  1.0 0.1067691926
Re  Re7  1  0.33579000  0.26503000  0.02878000  1.0 0.2187594983
Re  Re8  1  0.33563000  0.19155000  0.12882000  1.0 0.1067691926
Re  Re9  1  0.83579000  0.76503000  0.47122000  1.0 0.2143785913
Re  Re10  1  0.83563000  0.69155000  0.37118000  1.0 0.1067691926
Re  Re11  1  0.16421000  0.26503000  0.02878000  1.0 0.2187594983
Re  Re12  1  0.16437000  0.19155000  0.12882000  1.0 0.1067691926
Re  Re13  1  0.33579000  0.23497000  0.52878000  1.0 0.2187594983
Re  Re14  1  0.33563000  0.30845000  0.62882000  1.0 0.1067691926
Re  Re15  1  0.66421000  0.73497000  0.97122000  1.0 0.2187594983
Re  Re16  1  0.66437000  0.80845000  0.87118000  1.0 0.1067691926
Re  Re17  1  0.25000000  0.34338000  0.52729000  1.0 0.0679380197
Re  Re18  1  0.25000000  0.19996000  0.63046000  1.0 0.200286891
Re  Re19  1  0.75000000  0.84338000  0.97271000  1.0 0.0679380197
Re  Re20  1  0.75000000  0.69996000  0.86954000  1.0 0.200286891
Re  Re21  1  0.75000000  0.65662000  0.47271000  1.0 0.0642903406
Re  Re22  1  0.75000000  0.80004000  0.36954000  1.0 0.200286891
Re  Re23  1  0.25000000  0.15662000  0.02729000  1.0 0.0642903406
Re  Re24  1  0.25000000  0.30004000  0.13046000  1.0 0.200286891
H  H1  1  0.11109000  0.65154000  0.35939000  1.0 0.4111675878
H  H2  1  0.37227000  0.37731000  0.37581000  1.0 0.1208084084
H  H3  1  0.45120000  0.27594000  0.36392000  1.0 0.1317719162
H  H4  1  0.88891000  0.15154000  0.14061000  1.0 0.4111675878
H  H5  1  0.62773000  0.87731000  0.12419000  1.0 0.1208084084
H  H6  1  0.54880000  0.77594000  0.13608000  1.0 0.1317719162
H  H7  1  0.61109000  0.34846000  0.64061000  1.0 0.4111675878
H  H8  1  0.87227000  0.62269000  0.62419000  1.0 0.1208084084
H  H9  1  0.95120000  0.72406000  0.63608000  1.0 0.1317719162
H  H10  1  0.38891000  0.84846000  0.85939000  1.0 0.4111675878
H  H11  1  0.12773000  0.12269000  0.87581000  1.0 0.1208084084
H  H12  1  0.04880000  0.22406000  0.86392000  1.0 0.1317719162
H  H13  1  0.88891000  0.34846000  0.64061000  1.0 0.4111675878
H  H14  1  0.62773000  0.62269000  0.62419000  1.0 0.1208084084
H  H15  1  0.54880000  0.72406000  0.63608000  1.0 0.1317719162
H  H16  1  0.11109000  0.84846000  0.85939000  1.0 0.4111675878
H  H17  1  0.37227000  0.12269000  0.87581000  1.0 0.1208084084
H  H18  1  0.45120000  0.22406000  0.86392000  1.0 0.1317719162
H  H19  1  0.38891000  0.65154000  0.35939000  1.0 0.4111675878
H  H20  1  0.12773000  0.37731000  0.37581000  1.0 0.1208084084
H  H21  1  0.04880000  0.27594000  0.36392000  1.0 0.1317719162
H  H22  1  0.61109000  0.15154000  0.14061000  1.0 0.4111675878
H  H23  1  0.87227000  0.87731000  0.12419000  1.0 0.1208084084
H  H24  1  0.95120000  0.77594000  0.13608000  1.0 0.1317719162
H  H25  1  0.25000000  0.51417000  0.24158000  1.0 0.3774627704
H  H26  1  0.25000000  0.70833000  0.19078000  1.0 0.4213984568
H  H27  1  0.75000000  0.01417000  0.25842000  1.0 0.3774627704
H  H28  1  0.75000000  0.20833000  0.30922000  1.0 0.4213984568
H  H29  1  0.75000000  0.48583000  0.75842000  1.0 0.3774627704
H  H30  1  0.75000000  0.29167000  0.80922000  1.0 0.4213984568
H  H31  1  0.25000000  0.98583000  0.74158000  1.0 0.3774627704
H  H32  1  0.25000000  0.79167000  0.69078000  1.0 0.4213984568
C  C1  1  0.40850000  0.48010000  0.29710000  1.0 0.6437035013
C  C2  1  0.44310000  0.41550000  0.30320000  1.0 -0.104676437
C  C3  1  0.41650000  0.37040000  0.34520000  1.0 -0.108870117
C  C4  1  0.46160000  0.31230000  0.33850000  1.0 -0.104676437
C  C5  1  0.52170000  0.31460000  0.29130000  1.0 -0.108870117
C  C6  1  0.58220000  0.26370000  0.27110000  1.0 0.6437035013
C  C7  1  0.06620000  0.19160000  0.47490000  1.0 -0.0421324591
C  C8  1  0.06480000  0.34890000  0.68310000  1.0 0.1208084084
C  C9  1  0.59150000  0.98010000  0.20290000  1.0 0.6437035013
C  C10  1  0.55690000  0.91550000  0.19680000  1.0 -0.104676437
C  C11  1  0.58350000  0.87040000  0.15480000  1.0 -0.108870117
C  C12  1  0.53840000  0.81230000  0.16150000  1.0 -0.104676437
C  C13  1  0.47830000  0.81460000  0.20870000  1.0 -0.108870117
C  C14  1  0.41780000  0.76370000  0.22890000  1.0 0.6437035013
C  C15  1  0.93380000  0.69160000  0.02510000  1.0 -0.0421324591
C  C16  1  0.93520000  0.84890000  0.81690000  1.0 0.1208084084
C  C17  1  0.90850000  0.51990000  0.70290000  1.0 0.6437035013
C  C18  1  0.94310000  0.58450000  0.69680000  1.0 -0.104676437
C  C19  1  0.91650000  0.62960000  0.65480000  1.0 -0.108870117
C  C20  1  0.96160000  0.68770000  0.66150000  1.0 -0.104676437
C  C21  1  0.02170000  0.68540000  0.70870000  1.0 -0.108870117
C  C22  1  0.08220000  0.73630000  0.72890000  1.0 0.6437035013
C  C23  1  0.56620000  0.80840000  0.52510000  1.0 -0.0421324591
C  C24  1  0.56480000  0.65110000  0.31690000  1.0 0.1208084084
C  C25  1  0.09150000  0.01990000  0.79710000  1.0 0.6437035013
C  C26  1  0.05690000  0.08450000  0.80320000  1.0 -0.104676437
C  C27  1  0.08350000  0.12960000  0.84520000  1.0 -0.108870117
C  C28  1  0.03840000  0.18770000  0.83850000  1.0 -0.104676437
C  C29  1  0.97830000  0.18540000  0.79130000  1.0 -0.104676437
C  C30  1  0.91780000  0.23630000  0.77110000  1.0 0.6437035013
C  C31  1  0.43380000  0.30840000  0.97490000  1.0 -0.0421324591
C  C32  1  0.43520000  0.15110000  0.18310000  1.0 0.1208084084
C  C33  1  0.59150000  0.51990000  0.70290000  1.0 0.6437035013
C  C34  1  0.55690000  0.58450000  0.69680000  1.0 -0.104676437
C  C35  1  0.58350000  0.62960000  0.65480000  1.0 -0.108870117
C  C36  1  0.53840000  0.68770000  0.66150000  1.0 -0.108870117
C  C37  1  0.47830000  0.68540000  0.70870000  1.0 -0.108870117
C  C38  1  0.41780000  0.73630000  0.72890000  1.0 0.6437035013
C  C39  1  0.93380000  0.80840000  0.52510000  1.0 -0.0421324591
C  C40  1  0.93520000  0.65110000  0.31690000  1.0 0.1208084084
C  C41  1  0.40850000  0.01990000  0.79710000  1.0 0.6437035013
C  C42  1  0.44310000  0.08450000  0.80320000  1.0 -0.104676437
C  C43  1  0.41650000  0.12960000  0.84520000  1.0 -0.108870117
C  C44  1  0.46160000  0.18770000  0.83850000  1.0 -0.104676437
C  C45  1  0.52170000  0.18540000  0.79130000  1.0 -0.108870117
C  C46  1  0.58220000  0.23630000  0.77110000  1.0 0.6437035013
C  C47  1  0.06620000  0.30840000  0.97490000  1.0 -0.0421324591
C  C48  1  0.06480000  0.15110000  0.18310000  1.0 0.1208084084
C  C49  1  0.09150000  0.48010000  0.29710000  1.0 0.6437035013
C  C50  1  0.05690000  0.41550000  0.30320000  1.0 -0.104676437
C  C51  1  0.08350000  0.37040000  0.34520000  1.0 -0.108870117
C  C52  1  0.03840000  0.31230000  0.33850000  1.0 -0.104676437
C  C53  1  0.97830000  0.31460000  0.29130000  1.0 -0.104676437
C  C54  1  0.91780000  0.26370000  0.27110000  1.0 0.6437035013
C  C55  1  0.43380000  0.19160000  0.47490000  1.0 -0.0421324591
C  C56  1  0.43520000  0.34890000  0.68310000  1.0 0.1208084084
C  C57  1  0.90850000  0.98010000  0.20290000  1.0 0.6437035013
C  C58  1  0.94310000  0.91550000  0.19680000  1.0 -0.104676437
C  C59  1  0.91650000  0.87040000  0.15480000  1.0 -0.108870117
C  C60  1  0.96160000  0.81230000  0.16150000  1.0 -0.104676437
C  C61  1  0.02170000  0.81460000  0.20870000  1.0 -0.108870117
C  C62  1  0.08220000  0.76370000  0.22890000  1.0 0.6437035013
C  C63  1  0.56620000  0.69160000  0.02510000  1.0 -0.0421324591
C  C64  1  0.56480000  0.84890000  0.81690000  1.0 0.1208084084
C  C65  1  0.25000000  0.42700000  0.47180000  1.0 0.1208084084
C  C66  1  0.25000000  0.11590000  0.68500000  1.0 -0.0094703323
C  C67  1  0.75000000  0.92700000  0.02820000  1.0 0.1208084084
C  C68  1  0.75000000  0.61590000  0.81500000  1.0 -0.0094703323
C  C69  1  0.75000000  0.57300000  0.52820000  1.0 0.1208084084
C  C70  1  0.75000000  0.88410000  0.31500000  1.0 -0.0094703323
C  C71  1  0.25000000  0.07300000  0.97180000  1.0 0.1208084084
C  C72  1  0.25000000  0.38410000  0.18500000  1.0 -0.0151483848
Se  Se1  1  0.08534000  0.33988000  0.52907000  1.0 0.2187594983
Se  Se2  1  0.08523000  0.20403000  0.62858000  1.0 0.0116176856
Se  Se3  1  0.91466000  0.83988000  0.97093000  1.0 0.2187594983
Se  Se4  1  0.91477000  0.70403000  0.87142000  1.0 0.0116176856
Se  Se5  1  0.58534000  0.66012000  0.47093000  1.0 0.2187594983
Se  Se6  1  0.58523000  0.79597000  0.37142000  1.0 0.0116176856
Se  Se7  1  0.41466000  0.16012000  0.02907000  1.0 0.2289755066
Se  Se8  1  0.41477000  0.29597000  0.12858000  1.0 0.0116176856
Se  Se9  1  0.91466000  0.66012000  0.47093000  1.0 0.2187594983
Se  Se10  1  0.91477000  0.79597000  0.37142000  1.0 0.0116176856
Se  Se11  1  0.08534000  0.16012000  0.02907000  1.0 0.2187594983
Se  Se12  1  0.08523000  0.29597000  0.12858000  1.0 0.0116176856
Se  Se13  1  0.41466000  0.33988000  0.52907000  1.0 0.2187594983
Se  Se14  1  0.41477000  0.20403000  0.62858000  1.0 0.0116176856
Se  Se15  1  0.58534000  0.83988000  0.97093000  1.0 0.2187594983
Se  Se16  1  0.58523000  0.70403000  0.87142000  1.0 0.0116176856
Se  Se17  1  0.25000000  0.41071000  0.62589000  1.0 0.0116176856
Se  Se18  1  0.25000000  0.26983000  0.43305000  1.0 -0.108870117
Se  Se19  1  0.25000000  0.27313000  0.72453000  1.0 -0.0493844853
Se  Se20  1  0.25000000  0.13293000  0.53165000  1.0 -0.2627510618
Se  Se21  1  0.75000000  0.91071000  0.87411000  1.0 0.0116176856
Se  Se22  1  0.75000000  0.76983000  0.06695000  1.0 -0.108870117
Se  Se23  1  0.75000000  0.77313000  0.77547000  1.0 -0.0493844853
Se  Se24  1  0.75000000  0.63293000  0.96835000  1.0 -0.2627510618
Se  Se25  1  0.75000000  0.58929000  0.37411000  1.0 0.0116176856
Se  Se26  1  0.75000000  0.73017000  0.56695000  1.0 -0.108870117
Se  Se27  1  0.75000000  0.72687000  0.27547000  1.0 -0.0493844853
Se  Se28  1  0.75000000  0.86707000  0.46835000  1.0 -0.2627510618
Se  Se29  1  0.25000000  0.08929000  0.12589000  1.0 0.0116176856
Se  Se30  1  0.25000000  0.23017000  0.93305000  1.0 -0.108870117
Se  Se31  1  0.25000000  0.22687000  0.22453000  1.0 -0.0493844853
Se  Se32  1  0.25000000  0.36707000  0.03165000  1.0 -0.2627510618
S  S1  1  0.52342000  0.38718000  0.25469000  1.0 0.0284581423
S  S2  1  0.47658000  0.88718000  0.24531000  1.0 0.0284581423
S  S3  1  0.02342000  0.61282000  0.74531000  1.0 0.0284581423
S  S4  1  0.97658000  0.11282000  0.75469000  1.0 0.0284581423
S  S5  1  0.47658000  0.61282000  0.74531000  1.0 0.0284581423
S  S6  1  0.52342000  0.11282000  0.75469000  1.0 0.0284581423
S  S7  1  0.97658000  0.38718000  0.25469000  1.0 0.0284581423
S  S8  1  0.02342000  0.88718000  0.24531000  1.0 0.0284581423
N  N1  1  0.01130000  0.16720000  0.44640000  1.0 -0.2729383301
N  N2  1  0.00750000  0.37060000  0.71060000  1.0 -0.4232064874
N  N3  1  0.66820000  0.47320000  0.07300000  1.0 0.3392796987
N  N4  1  0.98870000  0.66720000  0.05360000  1.0 -0.2729383301
N  N5  1  0.99250000  0.87060000  0.78940000  1.0 -0.4255511205
N  N6  1  0.33180000  0.97320000  0.42700000  1.0 0.3392796987
N  N7  1  0.51130000  0.83280000  0.55360000  1.0 -0.2729383301
N  N8  1  0.50750000  0.62940000  0.28940000  1.0 -0.4255511205
N  N9  1  0.16820000  0.52680000  0.92700000  1.0 0.3392796987
N  N10  1  0.48870000  0.33280000  0.94640000  1.0 -0.2729383301
N  N11  1  0.49250000  0.12940000  0.21060000  1.0 -0.4255511205
N  N12  1  0.83180000  0.02680000  0.57300000  1.0 0.3465036709
N  N13  1  0.98870000  0.83280000  0.55360000  1.0 -0.2729383301
N  N14  1  0.99250000  0.62940000  0.28940000  1.0 -0.4255511205
N  N15  1  0.33180000  0.52680000  0.92700000  1.0 0.3392796987
N  N16  1  0.01130000  0.33280000  0.94640000  1.0 -0.2729383301
N  N17  1  0.00750000  0.12940000  0.21060000  1.0 -0.4232064874
N  N18  1  0.66820000  0.02680000  0.57300000  1.0 0.3392796987
N  N19  1  0.48870000  0.16720000  0.44640000  1.0 -0.2729383301
N  N20  1  0.49250000  0.37060000  0.71060000  1.0 -0.4255511205
N  N21  1  0.83180000  0.47320000  0.07300000  1.0 0.3392796987
N  N22  1  0.51130000  0.66720000  0.05360000  1.0 -0.2729383301
N  N23  1  0.50750000  0.87060000  0.78940000  1.0 -0.4255511205
N  N24  1  0.16820000  0.97320000  0.42700000  1.0 0.3392796987
N  N25  1  0.25000000  0.56790000  0.10790000  1.0 0.4326787177
N  N26  1  0.25000000  0.47260000  0.44370000  1.0 -0.4232064874
N  N27  1  0.25000000  0.06700000  0.70940000  1.0 -0.32603002
N  N28  1  0.25000000  0.58340000  0.10040000  1.0 0.4626739953
N  N29  1  0.75000000  0.06790000  0.39210000  1.0 0.4326787177
N  N30  1  0.75000000  0.97260000  0.05630000  1.0 -0.4232064874
N  N31  1  0.75000000  0.56700000  0.79060000  1.0 -0.32603002
N  N32  1  0.75000000  0.08340000  0.39960000  1.0 0.4626739953
N  N33  1  0.75000000  0.43210000  0.89210000  1.0 0.4326787177
N  N34  1  0.75000000  0.52740000  0.55630000  1.0 -0.4232064874
N  N35  1  0.75000000  0.93300000  0.29060000  1.0 -0.32603002
N  N36  1  0.75000000  0.41660000  0.89960000  1.0 0.4626739953
N  N37  1  0.25000000  0.93210000  0.60790000  1.0 0.4326787177
N  N38  1  0.25000000  0.02740000  0.94370000  1.0 -0.4232064874
N  N39  1  0.25000000  0.43300000  0.20940000  1.0 -0.32603002
N  N40  1  0.25000000  0.91660000  0.60040000  1.0 0.4626739953
O  O1  1  0.16360000  0.64410000  0.33240000  1.0 -1.1279219281
O  O2  1  0.35110000  0.58900000  0.45100000  1.0 -0.6481503127
O  O3  1  0.48800000  0.59170000  0.15890000  1.0 -0.6111100245
O  O4  1  0.15350000  0.75390000  0.41100000  1.0 -0.6111100245
O  O5  1  0.42300000  0.51120000  0.24750000  1.0 -0.6481503127
O  O6  1  0.36750000  0.50150000  0.34390000  1.0 -0.6232473071
O  O7  1  0.63270000  0.27570000  0.22620000  1.0 -0.6269944798
O  O8  1  0.57790000  0.21120000  0.30000000  1.0 -0.6232473071
O  O9  1  0.32140000  0.58840000  0.13030000  1.0 -0.3870373297
O  O10  1  0.84180000  0.56300000  0.20510000  1.0 0.0679380197
O  O11  1  0.81090000  0.61060000  0.14650000  1.0 0.0867452535
O  O12  1  0.60230000  0.39820000  0.07060000  1.0 -0.0094703323
O  O13  1  0.13020000  0.03220000  0.27770000  1.0 -0.0421324591
O  O14  1  0.59120000  0.51530000  0.03400000  1.0 -0.0858680766
O  O15  1  0.62890000  0.42210000  0.08700000  1.0 -0.0033733201
O  O16  1  0.62470000  0.52050000  0.05240000  1.0 -0.0421324591
O  O17  1  0.83640000  0.14410000  0.16760000  1.0 -1.1279219281
O  O18  1  0.64890000  0.08900000  0.04900000  1.0 -0.6630336087
O  O19  1  0.51200000  0.09170000  0.34110000  1.0 -0.6111100245
O  O20  1  0.84650000  0.25390000  0.08900000  1.0 -0.6111100245
O  O21  1  0.57700000  0.01120000  0.25250000  1.0 -0.6481503127
O  O22  1  0.63250000  0.00150000  0.15610000  1.0 -0.6232473071
O  O23  1  0.36730000  0.77570000  0.27380000  1.0 -0.6269944798
O  O24  1  0.42210000  0.71120000  0.20000000  1.0 -0.6232473071
O  O25  1  0.67860000  0.08840000  0.36970000  1.0 -0.3870373297
O  O26  1  0.15820000  0.06300000  0.29490000  1.0 0.0679380197
O  O27  1  0.18910000  0.11060000  0.35350000  1.0 0.0867452535
O  O28  1  0.39770000  0.89820000  0.42940000  1.0 -0.0094703323
O  O29  1  0.86980000  0.53220000  0.22230000  1.0 -0.0421324591
O  O30  1  0.40880000  0.01530000  0.46600000  1.0 -0.0808514993
O  O31  1  0.37110000  0.92210000  0.41300000  1.0 -0.0033733201
O  O32  1  0.37530000  0.02050000  0.44760000  1.0 -0.0421324591
O  O33  1  0.66360000  0.35590000  0.66760000  1.0 -1.1279219281
O  O34  1  0.85110000  0.41100000  0.54900000  1.0 -0.6481503127
O  O35  1  0.98800000  0.40830000  0.84110000  1.0 -0.6111100245
O  O36  1  0.65350000  0.24610000  0.58900000  1.0 -0.6111100245
O  O37  1  0.92300000  0.48880000  0.75250000  1.0 -0.6481503127
O  O38  1  0.86750000  0.49850000  0.65610000  1.0 -0.6232473071
O  O39  1  0.13270000  0.72430000  0.77380000  1.0 -0.6269944798
O  O40  1  0.07790000  0.78880000  0.70000000  1.0 -0.6232473071
O  O41  1  0.82140000  0.41160000  0.86970000  1.0 -0.3870373297
O  O42  1  0.34180000  0.43700000  0.79490000  1.0 0.0679380197
O  O43  1  0.31090000  0.38940000  0.85350000  1.0 0.0867452535
O  O44  1  0.10230000  0.60180000  0.92940000  1.0 -0.0094703323
O  O45  1  0.63020000  0.96780000  0.72230000  1.0 -0.0421324591
O  O46  1  0.09120000  0.48470000  0.96600000  1.0 -0.0808514993
O  O47  1  0.12890000  0.57790000  0.91300000  1.0 -0.0033733201
O  O48  1  0.12470000  0.47950000  0.94760000  1.0 -0.0421324591
O  O49  1  0.33640000  0.85590000  0.83240000  1.0 -1.1279219281
O  O50  1  0.14890000  0.91100000  0.95100000  1.0 -0.6481503127
O  O51  1  0.01200000  0.90830000  0.65890000  1.0 -0.6111100245
O  O52  1  0.34650000  0.74610000  0.91100000  1.0 -0.6111100245
O  O53  1  0.07700000  0.98880000  0.74750000  1.0 -0.6447464864
O  O54  1  0.13250000  0.99850000  0.84390000  1.0 -0.6232473071
O  O55  1  0.86730000  0.22430000  0.72620000  1.0 -0.6269944798
O  O56  1  0.92210000  0.28880000  0.80000000  1.0 -0.6232473071
O  O57  1  0.17860000  0.91160000  0.63030000  1.0 -0.3870373297
O  O58  1  0.65820000  0.93700000  0.70510000  1.0 0.0679380197
O  O59  1  0.68910000  0.88940000  0.64650000  1.0 0.0867452535
O  O60  1  0.89770000  0.10180000  0.57060000  1.0 -0.0033733201
O  O61  1  0.36980000  0.46780000  0.77770000  1.0 -0.0295088649
O  O62  1  0.90880000  0.98470000  0.53400000  1.0 -0.0858680766
O  O63  1  0.87110000  0.07790000  0.58700000  1.0 -0.0033733201
O  O64  1  0.87530000  0.97950000  0.55240000  1.0 -0.0421324591
O  O65  1  0.83640000  0.35590000  0.66760000  1.0 -1.1279219281
O  O66  1  0.64890000  0.41100000  0.54900000  1.0 -0.6630336087
O  O67  1  0.51200000  0.40830000  0.84110000  1.0 -0.6111100245
O  O68  1  0.84650000  0.24610000  0.58900000  1.0 -0.6111100245
O  O69  1  0.57700000  0.48880000  0.75250000  1.0 -0.6481503127
O  O70  1  0.63250000  0.49850000  0.65610000  1.0 -0.6232473071
O  O71  1  0.36730000  0.72430000  0.77380000  1.0 -0.6269944798
O  O72  1  0.42210000  0.78880000  0.70000000  1.0 -0.6232473071
O  O73  1  0.67860000  0.41160000  0.86970000  1.0 -0.3870373297
O  O74  1  0.15820000  0.43700000  0.79490000  1.0 0.0679380197
O  O75  1  0.18910000  0.38940000  0.85350000  1.0 0.0867452535
O  O76  1  0.39770000  0.60180000  0.92940000  1.0 -0.0094703323
O  O77  1  0.86980000  0.96780000  0.72230000  1.0 -0.0421324591
O  O78  1  0.40880000  0.48470000  0.96600000  1.0 -0.0858680766
O  O79  1  0.37110000  0.57790000  0.91300000  1.0 -0.0033733201
O  O80  1  0.37530000  0.47950000  0.94760000  1.0 -0.0421324591
O  O81  1  0.16360000  0.85590000  0.83240000  1.0 -1.1279219281
O  O82  1  0.35110000  0.91100000  0.95100000  1.0 -0.6481503127
O  O83  1  0.48800000  0.90830000  0.65890000  1.0 -0.6111100245
O  O84  1  0.15350000  0.74610000  0.91100000  1.0 -0.6111100245
O  O85  1  0.42300000  0.98880000  0.74750000  1.0 -0.6447464864
O  O86  1  0.36750000  0.99850000  0.84390000  1.0 -0.6232473071
O  O87  1  0.63270000  0.22430000  0.72620000  1.0 -0.6269944798
O  O88  1  0.57790000  0.28880000  0.80000000  1.0 -0.6232473071
O  O89  1  0.32140000  0.91160000  0.63030000  1.0 -0.3870373297
O  O90  1  0.84180000  0.93700000  0.70510000  1.0 0.0679380197
O  O91  1  0.81090000  0.88940000  0.64650000  1.0 0.0867452535
O  O92  1  0.60230000  0.10180000  0.57060000  1.0 -0.0094703323
O  O93  1  0.13020000  0.46780000  0.77770000  1.0 -0.0421324591
O  O94  1  0.59120000  0.98470000  0.53400000  1.0 -0.0858680766
O  O95  1  0.62890000  0.07790000  0.58700000  1.0 -0.0033733201
O  O96  1  0.62470000  0.97950000  0.55240000  1.0 -0.0421324591
O  O97  1  0.33640000  0.64410000  0.33240000  1.0 -1.1279219281
O  O98  1  0.14890000  0.58900000  0.45100000  1.0 -0.6481503127
O  O99  1  0.01200000  0.59170000  0.15890000  1.0 -0.6111100245
O  O100  1  0.34650000  0.75390000  0.41100000  1.0 -0.6111100245
O  O101  1  0.07700000  0.51120000  0.24750000  1.0 -0.6447464864
O  O102  1  0.13250000  0.50150000  0.34390000  1.0 -0.6232473071
O  O103  1  0.86730000  0.27570000  0.22620000  1.0 -0.6269944798
O  O104  1  0.92210000  0.21120000  0.30000000  1.0 -0.6232473071
O  O105  1  0.17860000  0.58840000  0.13030000  1.0 -0.3870373297
O  O106  1  0.65820000  0.56300000  0.20510000  1.0 0.0679380197
O  O107  1  0.68910000  0.61060000  0.14650000  1.0 0.0867452535
O  O108  1  0.89770000  0.39820000  0.07060000  1.0 -0.0094703323
O  O109  1  0.36980000  0.03220000  0.27770000  1.0 -0.0421324591
O  O110  1  0.90880000  0.51530000  0.03400000  1.0 -0.0858680766
O  O111  1  0.87110000  0.42210000  0.08700000  1.0 -0.0033733201
O  O112  1  0.87530000  0.52050000  0.05240000  1.0 -0.0421324591
O  O113  1  0.66360000  0.14410000  0.16760000  1.0 -1.1279219281
O  O114  1  0.85110000  0.08900000  0.04900000  1.0 -0.6481503127
O  O115  1  0.98800000  0.09170000  0.34110000  1.0 -0.6111100245
O  O116  1  0.65350000  0.25390000  0.08900000  1.0 -0.6111100245
O  O117  1  0.92300000  0.01120000  0.25250000  1.0 -0.6481503127
O  O118  1  0.86750000  0.00150000  0.15610000  1.0 -0.6232473071
O  O119  1  0.13270000  0.77570000  0.27380000  1.0 -0.6269944798
O  O120  1  0.07790000  0.71120000  0.20000000  1.0 -0.6232473071
O  O121  1  0.82140000  0.08840000  0.36970000  1.0 -0.3870373297
O  O122  1  0.34180000  0.06300000  0.29490000  1.0 0.0679380197
O  O123  1  0.31090000  0.11060000  0.35350000  1.0 0.0867452535
O  O124  1  0.10230000  0.89820000  0.42940000  1.0 -0.0094703323
O  O125  1  0.63020000  0.53220000  0.22230000  1.0 -0.0421324591
O  O126  1  0.09120000  0.01530000  0.46600000  1.0 -0.0808514993
O  O127  1  0.12890000  0.92210000  0.41300000  1.0 -0.0033733201
O  O128  1  0.12470000  0.02050000  0.44760000  1.0 -0.0421324591
O  O129  1  0.25000000  0.55840000  0.25880000  1.0 -1.1551758092
O  O130  1  0.25000000  0.67920000  0.22800000  1.0 -1.1442157667
O  O131  1  0.25000000  0.84490000  0.34760000  1.0 -0.591974948
O  O132  1  0.25000000  0.52850000  0.06280000  1.0 -0.1686107855
O  O133  1  0.25000000  0.90750000  0.19690000  1.0 -0.0421324591
O  O134  1  0.25000000  0.57300000  0.04140000  1.0 -0.0808514993
O  O135  1  0.75000000  0.05840000  0.24120000  1.0 -1.1536183398
O  O136  1  0.75000000  0.17920000  0.27200000  1.0 -1.1442157667
O  O137  1  0.75000000  0.34490000  0.15240000  1.0 -0.591974948
O  O138  1  0.75000000  0.02850000  0.43720000  1.0 -0.1686107855
O  O139  1  0.75000000  0.40750000  0.30310000  1.0 -0.0421324591
O  O140  1  0.75000000  0.07300000  0.45860000  1.0 -0.0808514993
O  O141  1  0.75000000  0.44160000  0.74120000  1.0 -1.1536183398
O  O142  1  0.75000000  0.32080000  0.77200000  1.0 -1.1442157667
O  O143  1  0.75000000  0.15510000  0.65240000  1.0 -0.591974948
O  O144  1  0.75000000  0.47150000  0.93720000  1.0 -0.1686107855
O  O145  1  0.75000000  0.09250000  0.80310000  1.0 -0.0421324591
O  O146  1  0.75000000  0.42700000  0.95860000  1.0 -0.0808514993
O  O147  1  0.25000000  0.94160000  0.75880000  1.0 -1.1536183398
O  O148  1  0.25000000  0.82080000  0.72800000  1.0 -1.1442157667
O  O149  1  0.25000000  0.65510000  0.84760000  1.0 -0.591974948
O  O150  1  0.25000000  0.97150000  0.56280000  1.0 -0.1686107855
O  O151  1  0.25000000  0.59250000  0.69690000  1.0 -0.0421324591
O  O152  1  0.25000000  0.92700000  0.54140000  1.0 -0.0808514993
O  O153  1  0.75000000  0.61470000  0.13440000  1.0 0.2289755066
O  O154  1  0.75000000  0.39900000  0.34800000  1.0 -0.1503205303
O  O155  1  0.75000000  0.47870000  0.08220000  1.0 -0.2455904226
O  O156  1  0.25000000  0.11470000  0.36560000  1.0 0.2289755066
O  O157  1  0.25000000  0.89900000  0.15200000  1.0 -0.1503205303
O  O158  1  0.25000000  0.97870000  0.41780000  1.0 -0.2455904226
O  O159  1  0.25000000  0.38530000  0.86560000  1.0 0.2289755066
O  O160  1  0.25000000  0.60100000  0.65200000  1.0 -0.1503205303
O  O161  1  0.25000000  0.52130000  0.91780000  1.0 -0.2455904226
O  O162  1  0.75000000  0.88530000  0.63440000  1.0 0.2289755066
O  O163  1  0.75000000  0.10100000  0.84800000  1.0 -0.1503205303
O  O164  1  0.75000000  0.02130000  0.58220000  1.0 -0.2455904226
