# DDEC6 charges by PACMAN v1.1 (https://github.com/mtap-research/PACMAN-charge/)
data_BADXAI_ASR_pacman
_symmetry_space_group_name_H-M   'P 1'
_cell_length_a   18.41600000
_cell_length_b   18.41600000
_cell_length_c   18.41600000
_cell_angle_alpha   115.38000000
_cell_angle_beta   115.38000000
_cell_angle_gamma   115.38000000
_symmetry_Int_Tables_number   1
_chemical_formula_structural   TbH17C18(NO5)2
_chemical_formula_sum   'Tb6 H102 C108 N12 O60'
_cell_volume   3371.37068588
_cell_formula_units_Z   6
loop_
 _symmetry_equiv_pos_site_id
 _symmetry_equiv_pos_as_xyz
  1  'x, y, z'
loop_
 _atom_site_type_symbol
 _atom_site_label
 _atom_site_symmetry_multiplicity
 _atom_site_fract_x
 _atom_site_fract_y
 _atom_site_fract_z
 _atom_site_occupancy
 _atom_site_charge
Tb  Tb1  1  0.36082000  0.03327000  0.70708000  1.0 2.0416224562
Tb  Tb2  1  0.03327000  0.70708000  0.36082000  1.0 2.0416224562
Tb  Tb3  1  0.70708000  0.36082000  0.03327000  1.0 2.0416224562
Tb  Tb4  1  0.63918000  0.96673000  0.29292000  1.0 2.0416224562
Tb  Tb5  1  0.96673000  0.29292000  0.63918000  1.0 2.0416224562
Tb  Tb6  1  0.29292000  0.63918000  0.96673000  1.0 2.0416224562
H  H1  1  0.22540000  0.82870000  0.33100000  1.0 0.1234823826
H  H2  1  0.82870000  0.33100000  0.22540000  1.0 0.1234823826
H  H3  1  0.33100000  0.22540000  0.82870000  1.0 0.1234823826
H  H4  1  0.77460000  0.17130000  0.66900000  1.0 0.1234823826
H  H5  1  0.17130000  0.66900000  0.77460000  1.0 0.1234823826
H  H6  1  0.66900000  0.77460000  0.17130000  1.0 0.1234823826
H  H7  1  0.49240000  0.89270000  0.55890000  1.0 0.133337653
H  H8  1  0.89270000  0.55890000  0.49240000  1.0 0.133337653
H  H9  1  0.55890000  0.49240000  0.89270000  1.0 0.133337653
H  H10  1  0.50760000  0.10730000  0.44110000  1.0 0.133337653
H  H11  1  0.10730000  0.44110000  0.50760000  1.0 0.133337653
H  H12  1  0.44110000  0.50760000  0.10730000  1.0 0.133337653
H  H13  1  0.15760000  0.11250000  0.53080000  1.0 0.1389810575
H  H14  1  0.11250000  0.53080000  0.15760000  1.0 0.1389810575
H  H15  1  0.53080000  0.15760000  0.11250000  1.0 0.1389810575
H  H16  1  0.84240000  0.88750000  0.46920000  1.0 0.1389810575
H  H17  1  0.88750000  0.46920000  0.84240000  1.0 0.1389810575
H  H18  1  0.46920000  0.84240000  0.88750000  1.0 0.1389810575
H  H19  1  0.25010000  0.78620000  0.21230000  1.0 0.133337653
H  H20  1  0.78620000  0.21230000  0.25010000  1.0 0.133337653
H  H21  1  0.21230000  0.25010000  0.78620000  1.0 0.133337653
H  H22  1  0.74990000  0.21380000  0.78770000  1.0 0.133337653
H  H23  1  0.21380000  0.78770000  0.74990000  1.0 0.133337653
H  H24  1  0.78770000  0.74990000  0.21380000  1.0 0.133337653
H  H25  1  0.00060000  0.83480000  0.52360000  1.0 0.2156393293
H  H26  1  0.83480000  0.52360000  0.00060000  1.0 0.2156393293
H  H27  1  0.52360000  0.00060000  0.83480000  1.0 0.2156393293
H  H28  1  0.99940000  0.16520000  0.47640000  1.0 0.2156393293
H  H29  1  0.16520000  0.47640000  0.99940000  1.0 0.2156393293
H  H30  1  0.47640000  0.99940000  0.16520000  1.0 0.2156393293
H  H31  1  0.58820000  0.87730000  0.43230000  1.0 0.2902063194
H  H32  1  0.87730000  0.43230000  0.58820000  1.0 0.2902063194
H  H33  1  0.43230000  0.58820000  0.87730000  1.0 0.2902063194
H  H34  1  0.41180000  0.12270000  0.56770000  1.0 0.2902063194
H  H35  1  0.12270000  0.56770000  0.41180000  1.0 0.2902063194
H  H36  1  0.56770000  0.41180000  0.12270000  1.0 0.2902063194
H  H37  1  0.87440000  0.66470000  0.50640000  1.0 0.0857537452
H  H38  1  0.66470000  0.50640000  0.87440000  1.0 0.0857537452
H  H39  1  0.50640000  0.87440000  0.66470000  1.0 0.0857537452
H  H40  1  0.12560000  0.33530000  0.49360000  1.0 0.0857537452
H  H41  1  0.33530000  0.49360000  0.12560000  1.0 0.0857537452
H  H42  1  0.49360000  0.12560000  0.33530000  1.0 0.0857537452
H  H43  1  0.74480000  0.88250000  0.58880000  1.0 0.1102088455
H  H44  1  0.88250000  0.58880000  0.74480000  1.0 0.1102088455
H  H45  1  0.58880000  0.74480000  0.88250000  1.0 0.1102088455
H  H46  1  0.25520000  0.11750000  0.41120000  1.0 0.1102088455
H  H47  1  0.11750000  0.41120000  0.25520000  1.0 0.1102088455
H  H48  1  0.41120000  0.25520000  0.11750000  1.0 0.1102088455
H  H49  1  0.92500000  0.83840000  0.69520000  1.0 0.1389810575
H  H50  1  0.83840000  0.69520000  0.92500000  1.0 0.1389810575
H  H51  1  0.69520000  0.92500000  0.83840000  1.0 0.1389810575
H  H52  1  0.07500000  0.16160000  0.30480000  1.0 0.1389810575
H  H53  1  0.16160000  0.30480000  0.07500000  1.0 0.1389810575
H  H54  1  0.30480000  0.07500000  0.16160000  1.0 0.1389810575
H  H55  1  0.91030000  0.73990000  0.67700000  1.0 0.150671995
H  H56  1  0.73990000  0.67700000  0.91030000  1.0 0.150671995
H  H57  1  0.67700000  0.91030000  0.73990000  1.0 0.150671995
H  H58  1  0.08970000  0.26010000  0.32300000  1.0 0.150671995
H  H59  1  0.26010000  0.32300000  0.08970000  1.0 0.150671995
H  H60  1  0.32300000  0.08970000  0.26010000  1.0 0.150671995
H  H61  1  0.80020000  0.70010000  0.57520000  1.0 0.1389810575
H  H62  1  0.70010000  0.57520000  0.80020000  1.0 0.1389810575
H  H63  1  0.57520000  0.80020000  0.70010000  1.0 0.1389810575
H  H64  1  0.19980000  0.29990000  0.42480000  1.0 0.1389810575
H  H65  1  0.29990000  0.42480000  0.19980000  1.0 0.1389810575
H  H66  1  0.42480000  0.19980000  0.29990000  1.0 0.1389810575
H  H67  1  0.06700000  0.80330000  0.63180000  1.0 0.3655325933
H  H68  1  0.80330000  0.63180000  0.06700000  1.0 0.3655325933
H  H69  1  0.63180000  0.06700000  0.80330000  1.0 0.3655325933
H  H70  1  0.93300000  0.19670000  0.36820000  1.0 0.3655325933
H  H71  1  0.19670000  0.36820000  0.93300000  1.0 0.3655325933
H  H72  1  0.36820000  0.93300000  0.19670000  1.0 0.3655325933
H  H73  1  0.75100000  0.01190000  0.59420000  1.0 0.3319282893
H  H74  1  0.01190000  0.59420000  0.75100000  1.0 0.3319282893
H  H75  1  0.59420000  0.75100000  0.01190000  1.0 0.3319282893
H  H76  1  0.24900000  0.98810000  0.40580000  1.0 0.3319282893
H  H77  1  0.98810000  0.40580000  0.24900000  1.0 0.3319282893
H  H78  1  0.40580000  0.24900000  0.98810000  1.0 0.3319282893
H  H79  1  0.62730000  0.69950000  0.44350000  1.0 0.1389810575
H  H80  1  0.69950000  0.44350000  0.62730000  1.0 0.1389810575
H  H81  1  0.44350000  0.62730000  0.69950000  1.0 0.1389810575
H  H82  1  0.37270000  0.30050000  0.55650000  1.0 0.1389810575
H  H83  1  0.30050000  0.55650000  0.37270000  1.0 0.1389810575
H  H84  1  0.55650000  0.37270000  0.30050000  1.0 0.1389810575
H  H85  1  0.53870000  0.68120000  0.34430000  1.0 0.1389810575
H  H86  1  0.68120000  0.34430000  0.53870000  1.0 0.1389810575
H  H87  1  0.34430000  0.53870000  0.68120000  1.0 0.1389810575
H  H88  1  0.46130000  0.31880000  0.65570000  1.0 0.1389810575
H  H89  1  0.31880000  0.65570000  0.46130000  1.0 0.1389810575
H  H90  1  0.65570000  0.46130000  0.31880000  1.0 0.1389810575
H  H91  1  0.66450000  0.74010000  0.39360000  1.0 0.1570832941
H  H92  1  0.74010000  0.39360000  0.66450000  1.0 0.1570832941
H  H93  1  0.39360000  0.66450000  0.74010000  1.0 0.1570832941
H  H94  1  0.33550000  0.25990000  0.60640000  1.0 0.1570832941
H  H95  1  0.25990000  0.60640000  0.33550000  1.0 0.1570832941
H  H96  1  0.60640000  0.33550000  0.25990000  1.0 0.1570832941
H  H97  1  0.03390000  0.13260000  0.49160000  1.0 0.1024916185
H  H98  1  0.13260000  0.49160000  0.03390000  1.0 0.1024916185
H  H99  1  0.49160000  0.03390000  0.13260000  1.0 0.1024916185
H  H100  1  0.96610000  0.86740000  0.50840000  1.0 0.1024916185
H  H101  1  0.86740000  0.50840000  0.96610000  1.0 0.1024916185
H  H102  1  0.50840000  0.96610000  0.86740000  1.0 0.1024916185
C  C1  1  0.33740000  0.89300000  0.53000000  1.0 0.6098391179
C  C2  1  0.89300000  0.53000000  0.33740000  1.0 0.6098391179
C  C3  1  0.53000000  0.33740000  0.89300000  1.0 0.6098391179
C  C4  1  0.66260000  0.10700000  0.47000000  1.0 0.6098391179
C  C5  1  0.10700000  0.47000000  0.66260000  1.0 0.6098391179
C  C6  1  0.47000000  0.66260000  0.10700000  1.0 0.6098391179
C  C7  1  0.15910000  0.98340000  0.55880000  1.0 0.5730601314
C  C8  1  0.98340000  0.55880000  0.15910000  1.0 0.5730601314
C  C9  1  0.55880000  0.15910000  0.98340000  1.0 0.5730601314
C  C10  1  0.84090000  0.01660000  0.44120000  1.0 0.5730601314
C  C11  1  0.01660000  0.44120000  0.84090000  1.0 0.5730601314
C  C12  1  0.44120000  0.84090000  0.01660000  1.0 0.5730601314
C  C13  1  0.35360000  0.86030000  0.45290000  1.0 0.0034945669
C  C14  1  0.86030000  0.45290000  0.35360000  1.0 0.0034945669
C  C15  1  0.45290000  0.35360000  0.86030000  1.0 0.0034945669
C  C16  1  0.64640000  0.13970000  0.54710000  1.0 0.0034945669
C  C17  1  0.13970000  0.54710000  0.64640000  1.0 0.0034945669
C  C18  1  0.54710000  0.64640000  0.13970000  1.0 0.0034945669
C  C19  1  0.07490000  0.98840000  0.52460000  1.0 -0.0917199166
C  C20  1  0.98840000  0.52460000  0.07490000  1.0 -0.0917199166
C  C21  1  0.52460000  0.07490000  0.98840000  1.0 -0.0917199166
C  C22  1  0.92510000  0.01160000  0.47540000  1.0 -0.0917199166
C  C23  1  0.01160000  0.47540000  0.92510000  1.0 -0.0917199166
C  C24  1  0.47540000  0.92510000  0.01160000  1.0 -0.0917199166
C  C25  1  0.28450000  0.83190000  0.35210000  1.0 -0.1065268118
C  C26  1  0.83190000  0.35210000  0.28450000  1.0 -0.1065268118
C  C27  1  0.35210000  0.28450000  0.83190000  1.0 -0.1065268118
C  C28  1  0.71550000  0.16810000  0.64790000  1.0 -0.1065268118
C  C29  1  0.16810000  0.64790000  0.71550000  1.0 -0.1065268118
C  C30  1  0.64790000  0.71550000  0.16810000  1.0 -0.1065268118
C  C31  1  0.44330000  0.87030000  0.48790000  1.0 -0.1868954834
C  C32  1  0.87030000  0.48790000  0.44330000  1.0 -0.1868954834
C  C33  1  0.48790000  0.44330000  0.87030000  1.0 -0.1868954834
C  C34  1  0.55670000  0.12970000  0.51210000  1.0 -0.1868954834
C  C35  1  0.12970000  0.51210000  0.55670000  1.0 -0.1868954834
C  C36  1  0.51210000  0.55670000  0.12970000  1.0 -0.1868954834
C  C37  1  0.09370000  0.06690000  0.51850000  1.0 -0.1571808991
C  C38  1  0.06690000  0.51850000  0.09370000  1.0 -0.1571808991
C  C39  1  0.51850000  0.09370000  0.06690000  1.0 -0.1571808991
C  C40  1  0.90630000  0.93310000  0.48150000  1.0 -0.1571808991
C  C41  1  0.93310000  0.48150000  0.90630000  1.0 -0.1571808991
C  C42  1  0.48150000  0.90630000  0.93310000  1.0 -0.1571808991
C  C43  1  0.98010000  0.92140000  0.50520000  1.0 0.1102088455
C  C44  1  0.92140000  0.50520000  0.98010000  1.0 0.1102088455
C  C45  1  0.50520000  0.98010000  0.92140000  1.0 0.1102088455
C  C46  1  0.01990000  0.07860000  0.49480000  1.0 0.1102088455
C  C47  1  0.07860000  0.49480000  0.01990000  1.0 0.1102088455
C  C48  1  0.49480000  0.01990000  0.07860000  1.0 0.1102088455
C  C49  1  0.30030000  0.80830000  0.28280000  1.0 -0.0836456057
C  C50  1  0.80830000  0.28280000  0.30030000  1.0 -0.0836456057
C  C51  1  0.28280000  0.30030000  0.80830000  1.0 -0.0836456057
C  C52  1  0.69970000  0.19170000  0.71720000  1.0 -0.0836456057
C  C53  1  0.19170000  0.71720000  0.69970000  1.0 -0.0836456057
C  C54  1  0.71720000  0.69970000  0.19170000  1.0 -0.0836456057
C  C55  1  0.46160000  0.84650000  0.41690000  1.0 0.2269161853
C  C56  1  0.84650000  0.41690000  0.46160000  1.0 0.2269161853
C  C57  1  0.41690000  0.46160000  0.84650000  1.0 0.2269161853
C  C58  1  0.53840000  0.15350000  0.58310000  1.0 0.2269161853
C  C59  1  0.15350000  0.58310000  0.53840000  1.0 0.2269161853
C  C60  1  0.58310000  0.53840000  0.15350000  1.0 0.2269161853
C  C61  1  0.39050000  0.81620000  0.31430000  1.0 -0.1322755701
C  C62  1  0.81620000  0.31430000  0.39050000  1.0 -0.1322755701
C  C63  1  0.31430000  0.39050000  0.81620000  1.0 -0.1322755701
C  C64  1  0.60950000  0.18380000  0.68570000  1.0 -0.1322755701
C  C65  1  0.18380000  0.68570000  0.60950000  1.0 -0.1322755701
C  C66  1  0.68570000  0.60950000  0.18380000  1.0 -0.1322755701
C  C67  1  0.88610000  0.79180000  0.52210000  1.0 0.4447063966
C  C68  1  0.79180000  0.52210000  0.88610000  1.0 0.4447063966
C  C69  1  0.52210000  0.88610000  0.79180000  1.0 0.4447063966
C  C70  1  0.11390000  0.20820000  0.47790000  1.0 0.4447063966
C  C71  1  0.20820000  0.47790000  0.11390000  1.0 0.4447063966
C  C72  1  0.47790000  0.11390000  0.20820000  1.0 0.4447063966
C  C73  1  0.41620000  0.80080000  0.24670000  1.0 0.6211615566
C  C74  1  0.80080000  0.24670000  0.41620000  1.0 0.6211615566
C  C75  1  0.24670000  0.41620000  0.80080000  1.0 0.6211615566
C  C76  1  0.58380000  0.19920000  0.75330000  1.0 0.6211615566
C  C77  1  0.19920000  0.75330000  0.58380000  1.0 0.6211615566
C  C78  1  0.75330000  0.58380000  0.19920000  1.0 0.6211615566
C  C79  1  0.59390000  0.83710000  0.51600000  1.0 0.4760565225
C  C80  1  0.83710000  0.51600000  0.59390000  1.0 0.4760565225
C  C81  1  0.51600000  0.59390000  0.83710000  1.0 0.4760565225
C  C82  1  0.40610000  0.16290000  0.48400000  1.0 0.4760565225
C  C83  1  0.16290000  0.48400000  0.40610000  1.0 0.4760565225
C  C84  1  0.48400000  0.40610000  0.16290000  1.0 0.4760565225
C  C85  1  0.92100000  0.75030000  0.57370000  1.0 0.1024916185
C  C86  1  0.75030000  0.57370000  0.92100000  1.0 0.1024916185
C  C87  1  0.57370000  0.92100000  0.75030000  1.0 0.1024916185
C  C88  1  0.07900000  0.24970000  0.42630000  1.0 0.1024916185
C  C89  1  0.24970000  0.42630000  0.07900000  1.0 0.1024916185
C  C90  1  0.42630000  0.07900000  0.24970000  1.0 0.1024916185
C  C91  1  0.68660000  0.85870000  0.51570000  1.0 0.1024916185
C  C92  1  0.85870000  0.51570000  0.68660000  1.0 0.1024916185
C  C93  1  0.51570000  0.68660000  0.85870000  1.0 0.1024916185
C  C94  1  0.31340000  0.14130000  0.48430000  1.0 0.1024916185
C  C95  1  0.14130000  0.48430000  0.31340000  1.0 0.1024916185
C  C96  1  0.48430000  0.31340000  0.14130000  1.0 0.1024916185
C  C97  1  0.88640000  0.75810000  0.63650000  1.0 -0.4473351177
C  C98  1  0.75810000  0.63650000  0.88640000  1.0 -0.4473351177
C  C99  1  0.63650000  0.88640000  0.75810000  1.0 -0.4473351177
C  C100  1  0.11360000  0.24190000  0.36350000  1.0 -0.4473351177
C  C101  1  0.24190000  0.36350000  0.11360000  1.0 -0.4473351177
C  C102  1  0.36350000  0.11360000  0.24190000  1.0 -0.4473351177
C  C103  1  0.62370000  0.73390000  0.41540000  1.0 -0.4591960298
C  C104  1  0.73390000  0.41540000  0.62370000  1.0 -0.4591960298
C  C105  1  0.41540000  0.62370000  0.73390000  1.0 -0.4591960298
C  C106  1  0.37630000  0.26610000  0.58460000  1.0 -0.4591960298
C  C107  1  0.26610000  0.58460000  0.37630000  1.0 -0.4591960298
C  C108  1  0.58460000  0.37630000  0.26610000  1.0 -0.4591960298
N  N1  1  0.95830000  0.84750000  0.51720000  1.0 -0.281277536
N  N2  1  0.84750000  0.51720000  0.95830000  1.0 -0.281277536
N  N3  1  0.51720000  0.95830000  0.84750000  1.0 -0.281277536
N  N4  1  0.04170000  0.15250000  0.48280000  1.0 -0.281277536
N  N5  1  0.15250000  0.48280000  0.04170000  1.0 -0.281277536
N  N6  1  0.48280000  0.04170000  0.15250000  1.0 -0.281277536
N  N7  1  0.55420000  0.85680000  0.45200000  1.0 -0.4240900811
N  N8  1  0.85680000  0.45200000  0.55420000  1.0 -0.4240900811
N  N9  1  0.45200000  0.55420000  0.85680000  1.0 -0.4240900811
N  N10  1  0.44580000  0.14320000  0.54800000  1.0 -0.4240900811
N  N11  1  0.14320000  0.54800000  0.44580000  1.0 -0.4240900811
N  N12  1  0.54800000  0.44580000  0.14320000  1.0 -0.4240900811
O  O1  1  0.25260000  0.88090000  0.49520000  1.0 -0.7376161949
O  O2  1  0.88090000  0.49520000  0.25260000  1.0 -0.7376161949
O  O3  1  0.49520000  0.25260000  0.88090000  1.0 -0.7376161949
O  O4  1  0.74740000  0.11910000  0.50480000  1.0 -0.7376161949
O  O5  1  0.11910000  0.50480000  0.74740000  1.0 -0.7376161949
O  O6  1  0.50480000  0.74740000  0.11910000  1.0 -0.7376161949
O  O7  1  0.41350000  0.94130000  0.63450000  1.0 -0.6243607438
O  O8  1  0.94130000  0.63450000  0.41350000  1.0 -0.6243607438
O  O9  1  0.63450000  0.41350000  0.94130000  1.0 -0.6243607438
O  O10  1  0.58650000  0.05870000  0.36550000  1.0 -0.6243607438
O  O11  1  0.05870000  0.36550000  0.58650000  1.0 -0.6243607438
O  O12  1  0.36550000  0.58650000  0.05870000  1.0 -0.6243607438
O  O13  1  0.26430000  0.06980000  0.61620000  1.0 -0.5460194584
O  O14  1  0.06980000  0.61620000  0.26430000  1.0 -0.5460194584
O  O15  1  0.61620000  0.26430000  0.06980000  1.0 -0.5460194584
O  O16  1  0.73570000  0.93020000  0.38380000  1.0 -0.5460194584
O  O17  1  0.93020000  0.38380000  0.73570000  1.0 -0.5460194584
O  O18  1  0.38380000  0.73570000  0.93020000  1.0 -0.5460194584
O  O19  1  0.12660000  0.89220000  0.53670000  1.0 -0.7376161949
O  O20  1  0.89220000  0.53670000  0.12660000  1.0 -0.7376161949
O  O21  1  0.53670000  0.12660000  0.89220000  1.0 -0.7376161949
O  O22  1  0.87340000  0.10780000  0.46330000  1.0 -0.7376161949
O  O23  1  0.10780000  0.46330000  0.87340000  1.0 -0.7376161949
O  O24  1  0.46330000  0.87340000  0.10780000  1.0 -0.7376161949
O  O25  1  0.26310000  0.86480000  0.66910000  1.0 -0.6908015645
O  O26  1  0.86480000  0.66910000  0.26310000  1.0 -0.6908015645
O  O27  1  0.66910000  0.26310000  0.86480000  1.0 -0.6908015645
O  O28  1  0.73690000  0.13520000  0.33090000  1.0 -0.6908015645
O  O29  1  0.13520000  0.33090000  0.73690000  1.0 -0.6908015645
O  O30  1  0.33090000  0.73690000  0.13520000  1.0 -0.6908015645
O  O31  1  0.47880000  0.14440000  0.69760000  1.0 -0.6031654116
O  O32  1  0.14440000  0.69760000  0.47880000  1.0 -0.6031654116
O  O33  1  0.69760000  0.47880000  0.14440000  1.0 -0.6031654116
O  O34  1  0.52120000  0.85560000  0.30240000  1.0 -0.6031654116
O  O35  1  0.85560000  0.30240000  0.52120000  1.0 -0.6031654116
O  O36  1  0.30240000  0.52120000  0.85560000  1.0 -0.6031654116
O  O37  1  0.80990000  0.78610000  0.50200000  1.0 -0.4685375181
O  O38  1  0.78610000  0.50200000  0.80990000  1.0 -0.4685375181
O  O39  1  0.50200000  0.80990000  0.78610000  1.0 -0.4685375181
O  O40  1  0.19010000  0.21390000  0.49800000  1.0 -0.4685375181
O  O41  1  0.21390000  0.49800000  0.19010000  1.0 -0.4685375181
O  O42  1  0.49800000  0.19010000  0.21390000  1.0 -0.4685375181
O  O43  1  0.63740000  0.90790000  0.61770000  1.0 -0.5006343362
O  O44  1  0.90790000  0.61770000  0.63740000  1.0 -0.5006343362
O  O45  1  0.61770000  0.63740000  0.90790000  1.0 -0.5006343362
O  O46  1  0.36260000  0.09210000  0.38230000  1.0 -0.5006343362
O  O47  1  0.09210000  0.38230000  0.36260000  1.0 -0.5006343362
O  O48  1  0.38230000  0.36260000  0.09210000  1.0 -0.5006343362
O  O49  1  0.05300000  0.83460000  0.66340000  1.0 -0.4685375181
O  O50  1  0.83460000  0.66340000  0.05300000  1.0 -0.4685375181
O  O51  1  0.66340000  0.05300000  0.83460000  1.0 -0.4685375181
O  O52  1  0.94700000  0.16540000  0.33660000  1.0 -0.4685375181
O  O53  1  0.16540000  0.33660000  0.94700000  1.0 -0.4685375181
O  O54  1  0.33660000  0.94700000  0.16540000  1.0 -0.4685375181
O  O55  1  0.76210000  0.97560000  0.56330000  1.0 -0.4591960298
O  O56  1  0.97560000  0.56330000  0.76210000  1.0 -0.4591960298
O  O57  1  0.56330000  0.76210000  0.97560000  1.0 -0.4591960298
O  O58  1  0.23790000  0.02440000  0.43670000  1.0 -0.4591960298
O  O59  1  0.02440000  0.43670000  0.23790000  1.0 -0.4591960298
O  O60  1  0.43670000  0.23790000  0.02440000  1.0 -0.4591960298
