# DDEC6 charges by PACMAN v1.1 (https://github.com/mtap-research/PACMAN-charge/)
data_BAFVAH_FSR_pacman
_symmetry_space_group_name_H-M   'P 1'
_cell_length_a   20.32890000
_cell_length_b   20.32890000
_cell_length_c   20.32890000
_cell_angle_alpha   125.84200000
_cell_angle_beta   125.84200000
_cell_angle_gamma   80.14720000
_symmetry_Int_Tables_number   1
_chemical_formula_structural   CuH17C30O17
_chemical_formula_sum   'Cu8 H136 C240 O136'
_cell_volume   5328.76859274
_cell_formula_units_Z   8
loop_
 _symmetry_equiv_pos_site_id
 _symmetry_equiv_pos_as_xyz
  1  'x, y, z'
loop_
 _atom_site_type_symbol
 _atom_site_label
 _atom_site_symmetry_multiplicity
 _atom_site_fract_x
 _atom_site_fract_y
 _atom_site_fract_z
 _atom_site_occupancy
 _atom_site_charge
Cu  Cu1  1  0.99438000  0.56604000  0.00000000  1.0 0.7831706321
Cu  Cu2  1  0.56604000  0.56604000  0.57166000  1.0 0.7831706321
Cu  Cu3  1  0.00562000  0.00562000  0.57166000  1.0 0.7831706321
Cu  Cu4  1  0.56604000  0.99438000  0.00000000  1.0 0.7831706321
Cu  Cu5  1  0.00562000  0.43396000  0.00000000  1.0 0.7831706321
Cu  Cu6  1  0.99438000  0.99438000  0.42834000  1.0 0.7831706321
Cu  Cu7  1  0.43396000  0.43396000  0.42834000  1.0 0.7831706321
Cu  Cu8  1  0.43396000  0.00562000  0.00000000  1.0 0.7831706321
H  H1  1  0.01460000  0.47000000  0.76140000  1.0 0.1535603289
H  H2  1  0.47000000  0.70860000  0.45540000  1.0 0.1535603289
H  H3  1  0.98540000  0.74680000  0.45540000  1.0 0.1535603289
H  H4  1  0.70860000  0.25320000  0.23860000  1.0 0.1535603289
H  H5  1  0.74680000  0.29140000  0.76140000  1.0 0.1535603289
H  H6  1  0.25320000  0.01460000  0.54460000  1.0 0.1535603289
H  H7  1  0.29140000  0.53000000  0.54460000  1.0 0.1535603289
H  H8  1  0.53000000  0.98540000  0.23860000  1.0 0.1535603289
H  H9  1  0.98540000  0.53000000  0.23860000  1.0 0.1535603289
H  H10  1  0.53000000  0.29140000  0.54460000  1.0 0.1535603289
H  H11  1  0.01460000  0.25320000  0.54460000  1.0 0.1535603289
H  H12  1  0.29140000  0.74680000  0.76140000  1.0 0.1535603289
H  H13  1  0.25320000  0.70860000  0.23860000  1.0 0.1535603289
H  H14  1  0.74680000  0.98540000  0.45540000  1.0 0.1535603289
H  H15  1  0.70860000  0.47000000  0.45540000  1.0 0.1535603289
H  H16  1  0.47000000  0.01460000  0.76140000  1.0 0.1535603289
H  H17  1  0.02130000  0.26650000  0.75480000  1.0 0.1535603289
H  H18  1  0.26650000  0.51170000  0.24520000  1.0 0.1535603289
H  H19  1  0.97870000  0.73350000  0.24520000  1.0 0.1535603289
H  H20  1  0.51170000  0.26650000  0.24520000  1.0 0.1535603289
H  H21  1  0.73350000  0.48830000  0.75480000  1.0 0.1535603289
H  H22  1  0.26650000  0.02130000  0.75480000  1.0 0.1535603289
H  H23  1  0.48830000  0.73350000  0.75480000  1.0 0.1535603289
H  H24  1  0.73350000  0.97870000  0.24520000  1.0 0.1535603289
H  H25  1  0.01050000  0.51990000  0.68080000  1.0 0.1108760974
H  H26  1  0.51990000  0.83910000  0.50940000  1.0 0.1108760974
H  H27  1  0.98950000  0.67030000  0.50940000  1.0 0.1108760974
H  H28  1  0.83910000  0.32970000  0.31920000  1.0 0.1108760974
H  H29  1  0.67030000  0.16090000  0.68080000  1.0 0.1108760974
H  H30  1  0.32970000  0.01050000  0.49060000  1.0 0.1108760974
H  H31  1  0.16090000  0.48010000  0.49060000  1.0 0.1108760974
H  H32  1  0.48010000  0.98950000  0.31920000  1.0 0.1108760974
H  H33  1  0.98950000  0.48010000  0.31920000  1.0 0.1108760974
H  H34  1  0.48010000  0.16090000  0.49060000  1.0 0.1108760974
H  H35  1  0.01050000  0.32970000  0.49060000  1.0 0.1108760974
H  H36  1  0.16090000  0.67030000  0.68080000  1.0 0.1108760974
H  H37  1  0.32970000  0.83910000  0.31920000  1.0 0.1108760974
H  H38  1  0.67030000  0.98950000  0.50940000  1.0 0.1108760974
H  H39  1  0.83910000  0.51990000  0.50940000  1.0 0.1108760974
H  H40  1  0.51990000  0.01050000  0.68080000  1.0 0.1108760974
H  H41  1  0.92530000  0.44900000  0.57310000  1.0 0.0733734476
H  H42  1  0.44900000  0.87590000  0.52370000  1.0 0.0733734476
H  H43  1  0.07470000  0.64780000  0.52370000  1.0 0.0733734476
H  H44  1  0.87590000  0.35220000  0.42690000  1.0 0.0733734476
H  H45  1  0.64780000  0.12410000  0.57310000  1.0 0.0733734476
H  H46  1  0.35220000  0.92530000  0.47630000  1.0 0.0733734476
H  H47  1  0.12410000  0.55100000  0.47630000  1.0 0.0733734476
H  H48  1  0.55100000  0.07470000  0.42690000  1.0 0.0733734476
H  H49  1  0.07470000  0.55100000  0.42690000  1.0 0.0733734476
H  H50  1  0.55100000  0.12410000  0.47630000  1.0 0.0733734476
H  H51  1  0.92530000  0.35220000  0.47630000  1.0 0.0733734476
H  H52  1  0.12410000  0.64780000  0.57310000  1.0 0.0733734476
H  H53  1  0.35220000  0.87590000  0.42690000  1.0 0.0733734476
H  H54  1  0.64780000  0.07470000  0.52370000  1.0 0.0733734476
H  H55  1  0.87590000  0.44900000  0.52370000  1.0 0.0733734476
H  H56  1  0.44900000  0.92530000  0.57310000  1.0 0.0733734476
H  H57  1  0.18980000  0.47580000  0.62560000  1.0 0.0437667733
H  H58  1  0.47580000  0.85020000  0.28600000  1.0 0.0437667733
H  H59  1  0.81020000  0.43580000  0.28600000  1.0 0.0437667733
H  H60  1  0.85020000  0.56420000  0.37440000  1.0 0.0437667733
H  H61  1  0.43580000  0.14980000  0.62560000  1.0 0.0437667733
H  H62  1  0.56420000  0.18980000  0.71400000  1.0 0.0437667733
H  H63  1  0.14980000  0.52420000  0.71400000  1.0 0.0437667733
H  H64  1  0.52420000  0.81020000  0.37440000  1.0 0.0437667733
H  H65  1  0.81020000  0.52420000  0.37440000  1.0 0.0437667733
H  H66  1  0.52420000  0.14980000  0.71400000  1.0 0.0437667733
H  H67  1  0.18980000  0.56420000  0.71400000  1.0 0.0437667733
H  H68  1  0.14980000  0.43580000  0.62560000  1.0 0.0437667733
H  H69  1  0.56420000  0.85020000  0.37440000  1.0 0.0437667733
H  H70  1  0.43580000  0.81020000  0.28600000  1.0 0.0437667733
H  H71  1  0.85020000  0.47580000  0.28600000  1.0 0.0437667733
H  H72  1  0.47580000  0.18980000  0.62560000  1.0 0.0437667733
H  H73  1  0.12980000  0.40420000  0.59220000  1.0 0.1016748762
H  H74  1  0.40420000  0.81200000  0.27440000  1.0 0.1016748762
H  H75  1  0.87020000  0.46240000  0.27440000  1.0 0.1016748762
H  H76  1  0.81200000  0.53760000  0.40780000  1.0 0.1016748762
H  H77  1  0.46240000  0.18800000  0.59220000  1.0 0.1016748762
H  H78  1  0.53760000  0.12980000  0.72560000  1.0 0.1016748762
H  H79  1  0.18800000  0.59580000  0.72560000  1.0 0.1016748762
H  H80  1  0.59580000  0.87020000  0.40780000  1.0 0.1016748762
H  H81  1  0.87020000  0.59580000  0.40780000  1.0 0.1016748762
H  H82  1  0.59580000  0.18800000  0.72560000  1.0 0.1016748762
H  H83  1  0.12980000  0.53760000  0.72560000  1.0 0.1016748762
H  H84  1  0.18800000  0.46240000  0.59220000  1.0 0.1016748762
H  H85  1  0.53760000  0.81200000  0.40780000  1.0 0.1016748762
H  H86  1  0.46240000  0.87020000  0.27440000  1.0 0.1016748762
H  H87  1  0.81200000  0.40420000  0.27440000  1.0 0.1016748762
H  H88  1  0.40420000  0.12980000  0.59220000  1.0 0.1016748762
H  H89  1  0.18210000  0.27410000  0.37140000  1.0 0.1016748762
H  H90  1  0.27410000  0.90270000  0.09200000  1.0 0.1016748762
H  H91  1  0.81790000  0.18930000  0.09200000  1.0 0.1016748762
H  H92  1  0.90270000  0.81070000  0.62860000  1.0 0.1016748762
H  H93  1  0.18930000  0.09730000  0.37140000  1.0 0.1016748762
H  H94  1  0.81070000  0.18210000  0.90800000  1.0 0.1016748762
H  H95  1  0.09730000  0.72590000  0.90800000  1.0 0.1016748762
H  H96  1  0.72590000  0.81790000  0.62860000  1.0 0.1016748762
H  H97  1  0.81790000  0.72590000  0.62860000  1.0 0.1016748762
H  H98  1  0.72590000  0.09730000  0.90800000  1.0 0.1016748762
H  H99  1  0.18210000  0.81070000  0.90800000  1.0 0.1016748762
H  H100  1  0.09730000  0.18930000  0.37140000  1.0 0.1016748762
H  H101  1  0.81070000  0.90270000  0.62860000  1.0 0.1016748762
H  H102  1  0.18930000  0.81790000  0.09200000  1.0 0.1016748762
H  H103  1  0.90270000  0.27410000  0.09200000  1.0 0.1016748762
H  H104  1  0.27410000  0.18210000  0.37140000  1.0 0.1016748762
H  H105  1  0.43480000  0.33310000  0.56850000  1.0 0.1292503262
H  H106  1  0.33310000  0.76460000  0.89830000  1.0 0.1292503262
H  H107  1  0.56520000  0.13370000  0.89830000  1.0 0.1292503262
H  H108  1  0.76460000  0.86630000  0.43150000  1.0 0.1292503262
H  H109  1  0.13370000  0.23540000  0.56850000  1.0 0.1292503262
H  H110  1  0.86630000  0.43480000  0.10170000  1.0 0.1292503262
H  H111  1  0.23540000  0.66690000  0.10170000  1.0 0.1292503262
H  H112  1  0.66690000  0.56520000  0.43150000  1.0 0.1292503262
H  H113  1  0.56520000  0.66690000  0.43150000  1.0 0.1292503262
H  H114  1  0.66690000  0.23540000  0.10170000  1.0 0.1292503262
H  H115  1  0.43480000  0.86630000  0.10170000  1.0 0.1292503262
H  H116  1  0.23540000  0.13370000  0.56850000  1.0 0.1292503262
H  H117  1  0.86630000  0.76460000  0.43150000  1.0 0.1292503262
H  H118  1  0.13370000  0.56520000  0.89830000  1.0 0.1292503262
H  H119  1  0.76460000  0.33310000  0.89830000  1.0 0.1292503262
H  H120  1  0.33310000  0.43480000  0.56850000  1.0 0.1292503262
H  H121  1  0.30470000  0.44790000  0.67820000  1.0 0.1208032137
H  H122  1  0.44790000  0.76970000  0.14320000  1.0 0.1208032137
H  H123  1  0.69530000  0.37350000  0.14320000  1.0 0.1208032137
H  H124  1  0.76970000  0.62650000  0.32180000  1.0 0.1208032137
H  H125  1  0.37350000  0.23030000  0.67820000  1.0 0.1208032137
H  H126  1  0.62650000  0.30470000  0.85680000  1.0 0.1208032137
H  H127  1  0.23030000  0.55210000  0.85680000  1.0 0.1208032137
H  H128  1  0.55210000  0.69530000  0.32180000  1.0 0.1208032137
H  H129  1  0.69530000  0.55210000  0.32180000  1.0 0.1208032137
H  H130  1  0.55210000  0.23030000  0.85680000  1.0 0.1208032137
H  H131  1  0.30470000  0.62650000  0.85680000  1.0 0.1208032137
H  H132  1  0.23030000  0.37350000  0.67820000  1.0 0.1208032137
H  H133  1  0.62650000  0.76970000  0.32180000  1.0 0.1208032137
H  H134  1  0.37350000  0.69530000  0.14320000  1.0 0.1208032137
H  H135  1  0.76970000  0.44790000  0.14320000  1.0 0.1208032137
H  H136  1  0.44790000  0.30470000  0.67820000  1.0 0.1208032137
C  C1  1  0.01410000  0.36700000  0.64710000  1.0 0.1586780725
C  C2  1  0.36700000  0.71990000  0.35290000  1.0 0.1586780725
C  C3  1  0.98590000  0.63300000  0.35290000  1.0 0.1586780725
C  C4  1  0.71990000  0.36700000  0.35290000  1.0 0.1586780725
C  C5  1  0.63300000  0.28010000  0.64710000  1.0 0.1586780725
C  C6  1  0.36700000  0.01410000  0.64710000  1.0 0.1586780725
C  C7  1  0.28010000  0.63300000  0.64710000  1.0 0.1586780725
C  C8  1  0.63300000  0.98590000  0.35290000  1.0 0.1586780725
C  C9  1  0.01611000  0.41281000  0.73130000  1.0 -0.228439086
C  C10  1  0.41281000  0.68151000  0.39670000  1.0 -0.228439086
C  C11  1  0.98389000  0.71519000  0.39670000  1.0 -0.228439086
C  C12  1  0.68151000  0.28481000  0.26870000  1.0 -0.228439086
C  C13  1  0.71519000  0.31849000  0.73130000  1.0 -0.228439086
C  C14  1  0.28481000  0.01611000  0.60330000  1.0 -0.228439086
C  C15  1  0.31849000  0.58719000  0.60330000  1.0 -0.228439086
C  C16  1  0.58719000  0.98389000  0.26870000  1.0 -0.228439086
C  C17  1  0.98389000  0.58719000  0.26870000  1.0 -0.228439086
C  C18  1  0.58719000  0.31849000  0.60330000  1.0 -0.228439086
C  C19  1  0.01611000  0.28481000  0.60330000  1.0 -0.228439086
C  C20  1  0.31849000  0.71519000  0.73130000  1.0 -0.228439086
C  C21  1  0.28481000  0.68151000  0.26870000  1.0 -0.228439086
C  C22  1  0.71519000  0.98389000  0.39670000  1.0 -0.228439086
C  C23  1  0.68151000  0.41281000  0.39670000  1.0 -0.228439086
C  C24  1  0.41281000  0.01611000  0.73130000  1.0 -0.228439086
C  C25  1  0.01530000  0.42440000  0.86090000  1.0 0.5670110947
C  C26  1  0.42440000  0.56350000  0.40910000  1.0 0.5670110947
C  C27  1  0.98470000  0.84560000  0.40910000  1.0 0.5670110947
C  C28  1  0.56350000  0.15440000  0.13910000  1.0 0.5670110947
C  C29  1  0.84560000  0.43650000  0.86090000  1.0 0.5670110947
C  C30  1  0.15440000  0.01530000  0.59090000  1.0 0.5670110947
C  C31  1  0.43650000  0.57560000  0.59090000  1.0 0.5670110947
C  C32  1  0.57560000  0.98470000  0.13910000  1.0 0.5670110947
C  C33  1  0.98470000  0.57560000  0.13910000  1.0 0.5670110947
C  C34  1  0.57560000  0.43650000  0.59090000  1.0 0.5670110947
C  C35  1  0.01530000  0.15440000  0.59090000  1.0 0.5670110947
C  C36  1  0.43650000  0.84560000  0.86090000  1.0 0.5670110947
C  C37  1  0.15440000  0.56350000  0.13910000  1.0 0.5670110947
C  C38  1  0.84560000  0.98470000  0.40910000  1.0 0.5670110947
C  C39  1  0.56350000  0.42440000  0.40910000  1.0 0.5670110947
C  C40  1  0.42440000  0.01530000  0.86090000  1.0 0.5670110947
C  C41  1  0.02030000  0.37530000  0.77340000  1.0 0.0265769689
C  C42  1  0.37530000  0.60190000  0.35500000  1.0 0.0265769689
C  C43  1  0.97970000  0.75310000  0.35500000  1.0 0.0265769689
C  C44  1  0.60190000  0.24690000  0.22660000  1.0 0.0265769689
C  C45  1  0.75310000  0.39810000  0.77340000  1.0 0.0265769689
C  C46  1  0.24690000  0.02030000  0.64500000  1.0 0.0265769689
C  C47  1  0.39810000  0.62470000  0.64500000  1.0 0.0265769689
C  C48  1  0.62470000  0.97970000  0.22660000  1.0 0.0265769689
C  C49  1  0.97970000  0.62470000  0.22660000  1.0 0.0265769689
C  C50  1  0.62470000  0.39810000  0.64500000  1.0 0.0265769689
C  C51  1  0.02030000  0.24690000  0.64500000  1.0 0.0265769689
C  C52  1  0.39810000  0.75310000  0.77340000  1.0 0.0265769689
C  C53  1  0.24690000  0.60190000  0.22660000  1.0 0.0265769689
C  C54  1  0.75310000  0.97970000  0.35500000  1.0 0.0265769689
C  C55  1  0.60190000  0.37530000  0.35500000  1.0 0.0265769689
C  C56  1  0.37530000  0.02030000  0.77340000  1.0 0.0265769689
C  C57  1  0.02070000  0.29260000  0.72810000  1.0 -0.0997345932
C  C58  1  0.29260000  0.56450000  0.27190000  1.0 -0.0997345932
C  C59  1  0.97930000  0.70740000  0.27190000  1.0 -0.0997345932
C  C60  1  0.56450000  0.29260000  0.27190000  1.0 -0.0997345932
C  C61  1  0.70740000  0.43550000  0.72810000  1.0 -0.0997345932
C  C62  1  0.29260000  0.02070000  0.72810000  1.0 -0.0997345932
C  C63  1  0.43550000  0.70740000  0.72810000  1.0 -0.0997345932
C  C64  1  0.70740000  0.97930000  0.27190000  1.0 -0.0997345932
C  C65  1  0.98670000  0.46700000  0.61150000  1.0 -0.0478465464
C  C66  1  0.46700000  0.85550000  0.48030000  1.0 -0.0478465464
C  C67  1  0.01330000  0.62480000  0.48030000  1.0 -0.0478465464
C  C68  1  0.85550000  0.37520000  0.38850000  1.0 -0.0478465464
C  C69  1  0.62480000  0.14450000  0.61150000  1.0 -0.0478465464
C  C70  1  0.37520000  0.98670000  0.51970000  1.0 -0.0478465464
C  C71  1  0.14450000  0.53300000  0.51970000  1.0 -0.0478465464
C  C72  1  0.53300000  0.01330000  0.38850000  1.0 -0.0478465464
C  C73  1  0.01330000  0.53300000  0.38850000  1.0 -0.0478465464
C  C74  1  0.53300000  0.14450000  0.51970000  1.0 -0.0478465464
C  C75  1  0.98670000  0.37520000  0.51970000  1.0 -0.0478465464
C  C76  1  0.14450000  0.62480000  0.61150000  1.0 -0.0478465464
C  C77  1  0.37520000  0.85550000  0.38850000  1.0 -0.0478465464
C  C78  1  0.62480000  0.01330000  0.48030000  1.0 -0.0478465464
C  C79  1  0.85550000  0.46700000  0.48030000  1.0 -0.0478465464
C  C80  1  0.46700000  0.98670000  0.61150000  1.0 -0.0478465464
C  C81  1  0.06540000  0.46450000  0.52990000  1.0 -0.0198409038
C  C82  1  0.46450000  0.93460000  0.39910000  1.0 -0.0198409038
C  C83  1  0.93460000  0.46450000  0.39910000  1.0 -0.0198409038
C  C84  1  0.93460000  0.53550000  0.47010000  1.0 -0.0198409038
C  C85  1  0.46450000  0.06540000  0.52990000  1.0 -0.0198409038
C  C86  1  0.53550000  0.06540000  0.60090000  1.0 -0.0198409038
C  C87  1  0.06540000  0.53550000  0.60090000  1.0 -0.0198409038
C  C88  1  0.53550000  0.93460000  0.47010000  1.0 -0.0198409038
C  C89  1  0.99470000  0.47900000  0.54990000  1.0 0.0194791401
C  C90  1  0.47900000  0.92910000  0.48430000  1.0 0.0194791401
C  C91  1  0.00530000  0.55520000  0.48430000  1.0 0.0194791401
C  C92  1  0.92910000  0.44480000  0.45010000  1.0 0.0194791401
C  C93  1  0.55520000  0.07090000  0.54990000  1.0 0.0194791401
C  C94  1  0.44480000  0.99470000  0.51570000  1.0 0.0194791401
C  C95  1  0.07090000  0.52100000  0.51570000  1.0 0.0194791401
C  C96  1  0.52100000  0.00530000  0.45010000  1.0 0.0194791401
C  C97  1  0.00530000  0.52100000  0.45010000  1.0 0.0194791401
C  C98  1  0.52100000  0.07090000  0.51570000  1.0 0.0194791401
C  C99  1  0.99470000  0.44480000  0.51570000  1.0 0.0194791401
C  C100  1  0.07090000  0.55520000  0.54990000  1.0 0.0194791401
C  C101  1  0.44480000  0.92910000  0.45010000  1.0 0.0194791401
C  C102  1  0.55520000  0.00530000  0.48430000  1.0 0.0194791401
C  C103  1  0.92910000  0.47900000  0.48430000  1.0 0.0194791401
C  C104  1  0.47900000  0.99470000  0.54990000  1.0 0.0194791401
C  C105  1  0.13780000  0.42930000  0.56710000  1.0 -0.1194210555
C  C106  1  0.42930000  0.86220000  0.29150000  1.0 -0.1194210555
C  C107  1  0.86220000  0.42930000  0.29150000  1.0 -0.1194210555
C  C108  1  0.86220000  0.57070000  0.43290000  1.0 -0.1194210555
C  C109  1  0.42930000  0.13780000  0.56710000  1.0 -0.1194210555
C  C110  1  0.57070000  0.13780000  0.70850000  1.0 -0.1194210555
C  C111  1  0.13780000  0.57070000  0.70850000  1.0 -0.1194210555
C  C112  1  0.57070000  0.86220000  0.43290000  1.0 -0.1194210555
C  C113  1  0.22870000  0.36250000  0.52120000  1.0 -0.0291996663
C  C114  1  0.36250000  0.84130000  0.13380000  1.0 -0.0291996663
C  C115  1  0.77130000  0.29250000  0.13380000  1.0 -0.0291996663
C  C116  1  0.84130000  0.70750000  0.47880000  1.0 -0.0291996663
C  C117  1  0.29250000  0.15870000  0.52120000  1.0 -0.0291996663
C  C118  1  0.70750000  0.22870000  0.86620000  1.0 -0.0291996663
C  C119  1  0.15870000  0.63750000  0.86620000  1.0 -0.0291996663
C  C120  1  0.63750000  0.77130000  0.47880000  1.0 -0.0291996663
C  C121  1  0.77130000  0.63750000  0.47880000  1.0 -0.0291996663
C  C122  1  0.63750000  0.15870000  0.86620000  1.0 -0.0291996663
C  C123  1  0.22870000  0.70750000  0.86620000  1.0 -0.0291996663
C  C124  1  0.15870000  0.29250000  0.52120000  1.0 -0.0291996663
C  C125  1  0.70750000  0.84130000  0.47880000  1.0 -0.0291996663
C  C126  1  0.29250000  0.77130000  0.13380000  1.0 -0.0291996663
C  C127  1  0.84130000  0.36250000  0.13380000  1.0 -0.0291996663
C  C128  1  0.36250000  0.22870000  0.52120000  1.0 -0.0291996663
C  C129  1  0.23240000  0.30530000  0.43970000  1.0 -0.0613702507
C  C130  1  0.30530000  0.86560000  0.07290000  1.0 -0.0613702507
C  C131  1  0.76760000  0.20730000  0.07290000  1.0 -0.0613702507
C  C132  1  0.86560000  0.79270000  0.56030000  1.0 -0.0613702507
C  C133  1  0.20730000  0.13440000  0.43970000  1.0 -0.0613702507
C  C134  1  0.79270000  0.23240000  0.92710000  1.0 -0.0613702507
C  C135  1  0.13440000  0.69470000  0.92710000  1.0 -0.0613702507
C  C136  1  0.69470000  0.76760000  0.56030000  1.0 -0.0613702507
C  C137  1  0.76760000  0.69470000  0.56030000  1.0 -0.0613702507
C  C138  1  0.69470000  0.13440000  0.92710000  1.0 -0.0613702507
C  C139  1  0.23240000  0.79270000  0.92710000  1.0 -0.0613702507
C  C140  1  0.13440000  0.20730000  0.43970000  1.0 -0.0613702507
C  C141  1  0.79270000  0.86560000  0.56030000  1.0 -0.0613702507
C  C142  1  0.20730000  0.76760000  0.07290000  1.0 -0.0613702507
C  C143  1  0.86560000  0.30530000  0.07290000  1.0 -0.0613702507
C  C144  1  0.30530000  0.23240000  0.43970000  1.0 -0.0613702507
C  C145  1  0.30940000  0.29400000  0.45840000  1.0 -0.0038538018
C  C146  1  0.29400000  0.83560000  0.98460000  1.0 -0.0038538018
C  C147  1  0.69060000  0.14900000  0.98460000  1.0 -0.0038538018
C  C148  1  0.83560000  0.85100000  0.54160000  1.0 -0.0038538018
C  C149  1  0.14900000  0.16440000  0.45840000  1.0 -0.0038538018
C  C150  1  0.85100000  0.30940000  0.01540000  1.0 -0.0038538018
C  C151  1  0.16440000  0.70600000  0.01540000  1.0 -0.0038538018
C  C152  1  0.70600000  0.69060000  0.54160000  1.0 -0.0038538018
C  C153  1  0.69060000  0.70600000  0.54160000  1.0 -0.0038538018
C  C154  1  0.70600000  0.16440000  0.01540000  1.0 -0.0038538018
C  C155  1  0.30940000  0.85100000  0.01540000  1.0 -0.0038538018
C  C156  1  0.16440000  0.14900000  0.45840000  1.0 -0.0038538018
C  C157  1  0.85100000  0.83560000  0.54160000  1.0 -0.0038538018
C  C158  1  0.14900000  0.69060000  0.98460000  1.0 -0.0038538018
C  C159  1  0.83560000  0.29400000  0.98460000  1.0 -0.0038538018
C  C160  1  0.29400000  0.30940000  0.45840000  1.0 -0.0038538018
C  C161  1  0.38240000  0.34030000  0.55670000  1.0 0.0194791401
C  C162  1  0.34030000  0.78360000  0.95790000  1.0 0.0194791401
C  C163  1  0.61760000  0.17430000  0.95790000  1.0 0.0194791401
C  C164  1  0.78360000  0.82570000  0.44330000  1.0 0.0194791401
C  C165  1  0.17430000  0.21640000  0.55670000  1.0 0.0194791401
C  C166  1  0.82570000  0.38240000  0.04210000  1.0 0.0194791401
C  C167  1  0.21640000  0.65970000  0.04210000  1.0 0.0194791401
C  C168  1  0.65970000  0.61760000  0.44330000  1.0 0.0194791401
C  C169  1  0.61760000  0.65970000  0.44330000  1.0 0.0194791401
C  C170  1  0.65970000  0.21640000  0.04210000  1.0 0.0194791401
C  C171  1  0.38240000  0.82570000  0.04210000  1.0 0.0194791401
C  C172  1  0.21640000  0.17430000  0.55670000  1.0 0.0194791401
C  C173  1  0.82570000  0.78360000  0.44330000  1.0 0.0194791401
C  C174  1  0.17430000  0.61760000  0.95790000  1.0 0.0194791401
C  C175  1  0.78360000  0.34030000  0.95790000  1.0 0.0194791401
C  C176  1  0.34030000  0.38240000  0.55670000  1.0 0.0194791401
C  C177  1  0.38100000  0.39700000  0.63840000  1.0 -0.0140481355
C  C178  1  0.39700000  0.75860000  0.01600000  1.0 -0.0140481355
C  C179  1  0.61900000  0.25740000  0.01600000  1.0 -0.0140481355
C  C180  1  0.75860000  0.74260000  0.36160000  1.0 -0.0140481355
C  C181  1  0.25740000  0.24140000  0.63840000  1.0 -0.0140481355
C  C182  1  0.74260000  0.38100000  0.98400000  1.0 -0.0140481355
C  C183  1  0.24140000  0.60300000  0.98400000  1.0 -0.0140481355
C  C184  1  0.60300000  0.61900000  0.36160000  1.0 -0.0140481355
C  C185  1  0.61900000  0.60300000  0.36160000  1.0 -0.0140481355
C  C186  1  0.60300000  0.24140000  0.98400000  1.0 -0.0140481355
C  C187  1  0.38100000  0.74260000  0.98400000  1.0 -0.0140481355
C  C188  1  0.24140000  0.25740000  0.63840000  1.0 -0.0140481355
C  C189  1  0.74260000  0.75860000  0.36160000  1.0 -0.0140481355
C  C190  1  0.25740000  0.61900000  0.01600000  1.0 -0.0140481355
C  C191  1  0.75860000  0.39700000  0.01600000  1.0 -0.0140481355
C  C192  1  0.39700000  0.38100000  0.63840000  1.0 -0.0140481355
C  C193  1  0.30550000  0.40850000  0.62160000  1.0 -0.2023128718
C  C194  1  0.40850000  0.78690000  0.10300000  1.0 -0.2023128718
C  C195  1  0.69450000  0.31610000  0.10300000  1.0 -0.2023128718
C  C196  1  0.78690000  0.68390000  0.37840000  1.0 -0.2023128718
C  C197  1  0.31610000  0.21310000  0.62160000  1.0 -0.2023128718
C  C198  1  0.68390000  0.30550000  0.89700000  1.0 -0.2023128718
C  C199  1  0.21310000  0.59150000  0.89700000  1.0 -0.2023128718
C  C200  1  0.59150000  0.69450000  0.37840000  1.0 -0.2023128718
C  C201  1  0.69450000  0.59150000  0.37840000  1.0 -0.2023128718
C  C202  1  0.59150000  0.21310000  0.89700000  1.0 -0.2023128718
C  C203  1  0.30550000  0.68390000  0.89700000  1.0 -0.2023128718
C  C204  1  0.21310000  0.31610000  0.62160000  1.0 -0.2023128718
C  C205  1  0.68390000  0.78690000  0.37840000  1.0 -0.2023128718
C  C206  1  0.31610000  0.69450000  0.10300000  1.0 -0.2023128718
C  C207  1  0.78690000  0.40850000  0.10300000  1.0 -0.2023128718
C  C208  1  0.40850000  0.30550000  0.62160000  1.0 -0.2023128718
C  C209  1  0.46380000  0.44270000  0.74070000  1.0 0.2588813668
C  C210  1  0.44270000  0.70200000  0.97890000  1.0 0.2588813668
C  C211  1  0.53620000  0.27690000  0.97890000  1.0 0.2588813668
C  C212  1  0.70200000  0.72310000  0.25930000  1.0 0.2588813668
C  C213  1  0.27690000  0.29800000  0.74070000  1.0 0.2588813668
C  C214  1  0.72310000  0.46380000  0.02110000  1.0 0.2588813668
C  C215  1  0.29800000  0.55730000  0.02110000  1.0 0.2588813668
C  C216  1  0.55730000  0.53620000  0.25930000  1.0 0.2588813668
C  C217  1  0.53620000  0.55730000  0.25930000  1.0 0.2588813668
C  C218  1  0.55730000  0.29800000  0.02110000  1.0 0.2588813668
C  C219  1  0.46380000  0.72310000  0.02110000  1.0 0.2588813668
C  C220  1  0.29800000  0.27690000  0.74070000  1.0 0.2588813668
C  C221  1  0.72310000  0.70200000  0.25930000  1.0 0.2588813668
C  C222  1  0.27690000  0.53620000  0.97890000  1.0 0.2588813668
C  C223  1  0.70200000  0.44270000  0.97890000  1.0 0.2588813668
C  C224  1  0.44270000  0.46380000  0.74070000  1.0 0.2588813668
C  C225  1  0.23310000  0.31430000  0.37200000  1.0 0.3036878062
C  C226  1  0.31430000  0.94230000  0.08120000  1.0 0.3036878062
C  C227  1  0.76690000  0.13890000  0.08120000  1.0 0.3036878062
C  C228  1  0.94230000  0.86110000  0.62800000  1.0 0.3036878062
C  C229  1  0.13890000  0.05770000  0.37200000  1.0 0.3036878062
C  C230  1  0.86110000  0.23310000  0.91880000  1.0 0.3036878062
C  C231  1  0.05770000  0.68570000  0.91880000  1.0 0.3036878062
C  C232  1  0.68570000  0.76690000  0.62800000  1.0 0.3036878062
C  C233  1  0.76690000  0.68570000  0.62800000  1.0 0.3036878062
C  C234  1  0.68570000  0.05770000  0.91880000  1.0 0.3036878062
C  C235  1  0.23310000  0.86110000  0.91880000  1.0 0.3036878062
C  C236  1  0.05770000  0.13890000  0.37200000  1.0 0.3036878062
C  C237  1  0.86110000  0.94230000  0.62800000  1.0 0.3036878062
C  C238  1  0.13890000  0.76690000  0.08120000  1.0 0.3036878062
C  C239  1  0.94230000  0.31430000  0.08120000  1.0 0.3036878062
C  C240  1  0.31430000  0.23310000  0.37200000  1.0 0.3036878062
O  O1  1  0.01710000  0.40480000  0.61230000  1.0 -0.0997345932
O  O2  1  0.40480000  0.79250000  0.38770000  1.0 -0.0997345932
O  O3  1  0.98290000  0.59520000  0.38770000  1.0 -0.0997345932
O  O4  1  0.79250000  0.40480000  0.38770000  1.0 -0.0997345932
O  O5  1  0.59520000  0.20750000  0.61230000  1.0 -0.0997345932
O  O6  1  0.40480000  0.01710000  0.61230000  1.0 -0.0997345932
O  O7  1  0.20750000  0.59520000  0.61230000  1.0 -0.0997345932
O  O8  1  0.59520000  0.98290000  0.38770000  1.0 -0.0997345932
O  O9  1  0.01017000  0.49857000  0.89420000  1.0 -0.5060793319
O  O10  1  0.49857000  0.60437000  0.48840000  1.0 -0.5060793319
O  O11  1  0.98983000  0.88403000  0.48840000  1.0 -0.5060793319
O  O12  1  0.60437000  0.11597000  0.10580000  1.0 -0.5060793319
O  O13  1  0.88403000  0.39563000  0.89420000  1.0 -0.5060793319
O  O14  1  0.11597000  0.01017000  0.51160000  1.0 -0.5060793319
O  O15  1  0.39563000  0.50143000  0.51160000  1.0 -0.5060793319
O  O16  1  0.50143000  0.98983000  0.10580000  1.0 -0.5060793319
O  O17  1  0.98983000  0.50143000  0.10580000  1.0 -0.5060793319
O  O18  1  0.50143000  0.39563000  0.51160000  1.0 -0.5060793319
O  O19  1  0.01017000  0.11597000  0.51160000  1.0 -0.5060793319
O  O20  1  0.39563000  0.88403000  0.89420000  1.0 -0.5060793319
O  O21  1  0.11597000  0.60437000  0.10580000  1.0 -0.5060793319
O  O22  1  0.88403000  0.98983000  0.48840000  1.0 -0.5060793319
O  O23  1  0.60437000  0.49857000  0.48840000  1.0 -0.5060793319
O  O24  1  0.49857000  0.01017000  0.89420000  1.0 -0.5060793319
O  O25  1  0.01921000  0.38621000  0.89460000  1.0 -0.5157347628
O  O26  1  0.38621000  0.49161000  0.36700000  1.0 -0.5157347628
O  O27  1  0.98079000  0.87539000  0.36700000  1.0 -0.5157347628
O  O28  1  0.49161000  0.12461000  0.10540000  1.0 -0.5157347628
O  O29  1  0.87539000  0.50839000  0.89460000  1.0 -0.5157347628
O  O30  1  0.12461000  0.01921000  0.63300000  1.0 -0.5157347628
O  O31  1  0.50839000  0.61379000  0.63300000  1.0 -0.5157347628
O  O32  1  0.61379000  0.98079000  0.10540000  1.0 -0.5157347628
O  O33  1  0.98079000  0.61379000  0.10540000  1.0 -0.5157347628
O  O34  1  0.61379000  0.50839000  0.63300000  1.0 -0.5157347628
O  O35  1  0.01921000  0.12461000  0.63300000  1.0 -0.5157347628
O  O36  1  0.50839000  0.87539000  0.89460000  1.0 -0.5157347628
O  O37  1  0.12461000  0.49161000  0.10540000  1.0 -0.5157347628
O  O38  1  0.87539000  0.98079000  0.36700000  1.0 -0.5157347628
O  O39  1  0.49161000  0.38621000  0.36700000  1.0 -0.5157347628
O  O40  1  0.38621000  0.01921000  0.89460000  1.0 -0.5157347628
O  O41  1  0.99820000  0.68830000  0.03150000  1.0 0.0636109871
O  O42  1  0.68830000  0.65680000  0.69010000  1.0 0.0636109871
O  O43  1  0.00180000  0.03330000  0.69010000  1.0 0.0733734476
O  O44  1  0.65680000  0.96670000  0.96850000  1.0 0.0636109871
O  O45  1  0.03330000  0.34320000  0.03150000  1.0 0.0636109871
O  O46  1  0.96670000  0.99820000  0.30990000  1.0 0.0636109871
O  O47  1  0.34320000  0.31170000  0.30990000  1.0 0.0636109871
O  O48  1  0.31170000  0.00180000  0.96850000  1.0 0.0733734476
O  O49  1  0.00180000  0.31170000  0.96850000  1.0 0.0636109871
O  O50  1  0.31170000  0.34320000  0.30990000  1.0 0.0636109871
O  O51  1  0.99820000  0.96670000  0.30990000  1.0 0.0636109871
O  O52  1  0.34320000  0.03330000  0.03150000  1.0 0.0636109871
O  O53  1  0.96670000  0.65680000  0.96850000  1.0 0.0636109871
O  O54  1  0.03330000  0.00180000  0.69010000  1.0 0.0636109871
O  O55  1  0.65680000  0.68830000  0.69010000  1.0 0.0636109871
O  O56  1  0.68830000  0.99820000  0.03150000  1.0 0.0636109871
O  O57  1  0.14870000  0.36690000  0.49120000  1.0 0.0075433282
O  O58  1  0.36690000  0.87570000  0.21820000  1.0 0.0075433282
O  O59  1  0.85130000  0.34250000  0.21820000  1.0 0.0075433282
O  O60  1  0.87570000  0.65750000  0.50880000  1.0 0.0075433282
O  O61  1  0.34250000  0.12430000  0.49120000  1.0 0.0075433282
O  O62  1  0.65750000  0.14870000  0.78180000  1.0 0.0075433282
O  O63  1  0.12430000  0.63310000  0.78180000  1.0 0.0075433282
O  O64  1  0.63310000  0.85130000  0.50880000  1.0 0.0075433282
O  O65  1  0.85130000  0.63310000  0.50880000  1.0 0.0075433282
O  O66  1  0.63310000  0.12430000  0.78180000  1.0 0.0075433282
O  O67  1  0.14870000  0.65750000  0.78180000  1.0 0.0075433282
O  O68  1  0.12430000  0.34250000  0.49120000  1.0 0.0075433282
O  O69  1  0.65750000  0.87570000  0.50880000  1.0 0.0075433282
O  O70  1  0.34250000  0.85130000  0.21820000  1.0 0.0075433282
O  O71  1  0.87570000  0.36690000  0.21820000  1.0 0.0075433282
O  O72  1  0.36690000  0.14870000  0.49120000  1.0 0.0075433282
O  O73  1  0.46100000  0.43030000  0.79070000  1.0 -0.1784679154
O  O74  1  0.43030000  0.63960000  0.96930000  1.0 -0.1784679154
O  O75  1  0.53900000  0.32970000  0.96930000  1.0 -0.1784679154
O  O76  1  0.63960000  0.67030000  0.20930000  1.0 -0.1784679154
O  O77  1  0.32970000  0.36040000  0.79070000  1.0 -0.1784679154
O  O78  1  0.67030000  0.46100000  0.03070000  1.0 -0.1784679154
O  O79  1  0.36040000  0.56970000  0.03070000  1.0 -0.1784679154
O  O80  1  0.56970000  0.53900000  0.20930000  1.0 -0.1784679154
O  O81  1  0.53900000  0.56970000  0.20930000  1.0 -0.1784679154
O  O82  1  0.56970000  0.36040000  0.03070000  1.0 -0.1784679154
O  O83  1  0.46100000  0.67030000  0.03070000  1.0 -0.1784679154
O  O84  1  0.36040000  0.32970000  0.79070000  1.0 -0.1784679154
O  O85  1  0.67030000  0.63960000  0.20930000  1.0 -0.1784679154
O  O86  1  0.32970000  0.53900000  0.96930000  1.0 -0.1784679154
O  O87  1  0.63960000  0.43030000  0.96930000  1.0 -0.1784679154
O  O88  1  0.43030000  0.46100000  0.79070000  1.0 -0.1784679154
O  O89  1  0.51280000  0.48080000  0.75000000  1.0 -0.1930097146
O  O90  1  0.48080000  0.73080000  0.96800000  1.0 -0.1930097146
O  O91  1  0.48720000  0.23720000  0.96800000  1.0 -0.1930097146
O  O92  1  0.73080000  0.76280000  0.25000000  1.0 -0.1930097146
O  O93  1  0.23720000  0.26920000  0.75000000  1.0 -0.1930097146
O  O94  1  0.76280000  0.51280000  0.03200000  1.0 -0.1930097146
O  O95  1  0.26920000  0.51920000  0.03200000  1.0 -0.1930097146
O  O96  1  0.51920000  0.48720000  0.25000000  1.0 -0.1930097146
O  O97  1  0.48720000  0.51920000  0.25000000  1.0 -0.1930097146
O  O98  1  0.51920000  0.26920000  0.03200000  1.0 -0.1930097146
O  O99  1  0.51280000  0.76280000  0.03200000  1.0 -0.1930097146
O  O100  1  0.26920000  0.23720000  0.75000000  1.0 -0.1930097146
O  O101  1  0.76280000  0.73080000  0.25000000  1.0 -0.1930097146
O  O102  1  0.23720000  0.48720000  0.96800000  1.0 -0.1930097146
O  O103  1  0.73080000  0.48080000  0.96800000  1.0 -0.1930097146
O  O104  1  0.48080000  0.51280000  0.75000000  1.0 -0.1930097146
O  O105  1  0.19870000  0.37380000  0.38990000  1.0 -0.4252915236
O  O106  1  0.37380000  0.98390000  0.17510000  1.0 -0.4240456814
O  O107  1  0.80130000  0.19120000  0.17510000  1.0 -0.4240456814
O  O108  1  0.98390000  0.80880000  0.61010000  1.0 -0.4240456814
O  O109  1  0.19120000  0.01610000  0.38990000  1.0 -0.4252915236
O  O110  1  0.80880000  0.19870000  0.82490000  1.0 -0.4252915236
O  O111  1  0.01610000  0.62620000  0.82490000  1.0 -0.4252915236
O  O112  1  0.62620000  0.80130000  0.61010000  1.0 -0.4252915236
O  O113  1  0.80130000  0.62620000  0.61010000  1.0 -0.4252915236
O  O114  1  0.62620000  0.01610000  0.82490000  1.0 -0.4252915236
O  O115  1  0.19870000  0.80880000  0.82490000  1.0 -0.4252915236
O  O116  1  0.01610000  0.19120000  0.38990000  1.0 -0.4252915236
O  O117  1  0.80880000  0.98390000  0.61010000  1.0 -0.4240456814
O  O118  1  0.19120000  0.80130000  0.17510000  1.0 -0.4252915236
O  O119  1  0.98390000  0.37380000  0.17510000  1.0 -0.4240456814
O  O120  1  0.37380000  0.19870000  0.38990000  1.0 -0.4252915236
O  O121  1  0.22250000  0.25820000  0.28970000  1.0 -0.0755447419
O  O122  1  0.25820000  0.96850000  0.03570000  1.0 -0.0755447419
O  O123  1  0.77750000  0.06720000  0.03570000  1.0 -0.0755447419
O  O124  1  0.96850000  0.93280000  0.71030000  1.0 -0.0755447419
O  O125  1  0.06720000  0.03150000  0.28970000  1.0 -0.0755447419
O  O126  1  0.93280000  0.22250000  0.96430000  1.0 -0.0755447419
O  O127  1  0.03150000  0.74180000  0.96430000  1.0 -0.0755447419
O  O128  1  0.74180000  0.77750000  0.71030000  1.0 -0.0755447419
O  O129  1  0.77750000  0.74180000  0.71030000  1.0 -0.0755447419
O  O130  1  0.74180000  0.03150000  0.96430000  1.0 -0.0755447419
O  O131  1  0.22250000  0.93280000  0.96430000  1.0 -0.0755447419
O  O132  1  0.03150000  0.06720000  0.28970000  1.0 -0.0755447419
O  O133  1  0.93280000  0.96850000  0.71030000  1.0 -0.0755447419
O  O134  1  0.06720000  0.77750000  0.03570000  1.0 -0.0755447419
O  O135  1  0.96850000  0.25820000  0.03570000  1.0 -0.0755447419
O  O136  1  0.25820000  0.22250000  0.28970000  1.0 -0.0755447419
