# DDEC6 charges by PACMAN v1.1 (https://github.com/mtap-research/PACMAN-charge/)
data_BAFVEN_ion_pacman
_symmetry_space_group_name_H-M   'P 1'
_cell_length_a   16.90950000
_cell_length_b   16.90950000
_cell_length_c   16.90950000
_cell_angle_alpha   88.36650000
_cell_angle_beta   88.36650000
_cell_angle_gamma   88.36650000
_symmetry_Int_Tables_number   1
_chemical_formula_structural   Mn4H252C126(N9O11)3
_chemical_formula_sum   'Mn8 H504 C252 N54 O66'
_cell_volume   4829.16869292
_cell_formula_units_Z   2
loop_
 _symmetry_equiv_pos_site_id
 _symmetry_equiv_pos_as_xyz
  1  'x, y, z'
loop_
 _atom_site_type_symbol
 _atom_site_label
 _atom_site_symmetry_multiplicity
 _atom_site_fract_x
 _atom_site_fract_y
 _atom_site_fract_z
 _atom_site_occupancy
 _atom_site_charge
Mn  Mn1  1  0.65543000  0.64820000  0.14771000  1.0 0.7679433692
Mn  Mn2  1  0.64820000  0.14771000  0.65543000  1.0 0.7679433692
Mn  Mn3  1  0.14771000  0.65543000  0.64820000  1.0 0.7679433692
Mn  Mn4  1  0.15543000  0.64771000  0.14820000  1.0 0.7679433692
Mn  Mn5  1  0.14820000  0.15543000  0.64771000  1.0 0.7679433692
Mn  Mn6  1  0.64771000  0.14820000  0.15543000  1.0 0.7679433692
Mn  Mn7  1  0.64572000  0.64572000  0.64572000  1.0 0.8378473589
Mn  Mn8  1  0.14572000  0.14572000  0.14572000  1.0 0.8378473589
H  H1  1  0.85476000  0.70116000  0.24718000  1.0 0.0536497639
H  H2  1  0.83773000  0.64302000  0.32235000  1.0 0.1003883912
H  H3  1  0.96338000  0.59740000  0.32421000  1.0 0.0711731882
H  H4  1  0.98266000  0.67634000  0.27363000  1.0 0.0797399133
H  H5  1  0.85270000  0.50034000  0.29991000  1.0 0.0618293318
H  H6  1  0.82980000  0.46573000  0.21648000  1.0 0.0915179671
H  H7  1  0.95515000  0.46632000  0.16996000  1.0 0.0915179671
H  H8  1  0.97699000  0.46787000  0.26165000  1.0 0.1003883912
H  H9  1  0.84450000  0.56577000  0.09733000  1.0 0.0711731882
H  H10  1  0.83313000  0.65810000  0.11563000  1.0 0.0797399133
H  H11  1  0.96216000  0.67251000  0.13086000  1.0 0.1189075454
H  H12  1  0.97297000  0.59069000  0.08566000  1.0 0.1189075454
H  H13  1  0.63517000  0.82675000  0.33262000  1.0 0.1003883912
H  H14  1  0.54127000  0.82699000  0.34662000  1.0 0.1088083037
H  H15  1  0.56653000  0.82903000  0.47622000  1.0 0.1189075454
H  H16  1  0.65758000  0.80089000  0.46173000  1.0 0.1003883912
H  H17  1  0.46651000  0.70196000  0.31979000  1.0 0.1003883912
H  H18  1  0.51576000  0.62080000  0.33639000  1.0 0.1088083037
H  H19  1  0.48126000  0.64252000  0.46440000  1.0 0.1003883912
H  H20  1  0.46631000  0.73564000  0.44826000  1.0 0.1088083037
H  H21  1  0.70726000  0.70034000  0.34236000  1.0 0.1003883912
H  H22  1  0.66471000  0.61947000  0.32403000  1.0 0.1088083037
H  H23  1  0.69309000  0.66445000  0.46663000  1.0 0.1088083037
H  H24  1  0.63005000  0.59918000  0.44773000  1.0 0.1088083037
H  H25  1  0.66309000  0.47461000  0.95950000  1.0 0.1088083037
H  H26  1  0.60024000  0.54573000  0.94585000  1.0 0.1088083037
H  H27  1  0.61563000  0.52454000  0.81770000  1.0 0.0915179671
H  H28  1  0.69339000  0.46926000  0.83119000  1.0 0.1003883912
H  H29  1  0.64437000  0.68756000  0.96287000  1.0 0.0797399133
H  H30  1  0.73756000  0.70003000  0.95026000  1.0 0.0618293318
H  H31  1  0.71282000  0.70926000  0.82147000  1.0 0.0711731882
H  H32  1  0.62770000  0.67036000  0.83413000  1.0 0.0797399133
H  H33  1  0.83102000  0.59449000  0.96697000  1.0 0.1003883912
H  H34  1  0.80495000  0.50540000  0.95431000  1.0 0.0797399133
H  H35  1  0.82636000  0.52905000  0.82582000  1.0 0.0915179671
H  H36  1  0.83138000  0.62253000  0.83790000  1.0 0.0711731882
H  H37  1  0.83910000  0.84112000  0.13711000  1.0 0.1088083037
H  H38  1  0.83773000  0.83150000  0.04279000  1.0 0.0536497639
H  H39  1  0.81781000  0.96069000  0.02331000  1.0 0.0711731882
H  H40  1  0.83328000  0.97123000  0.11529000  1.0 0.0711731882
H  H41  1  0.71011000  0.82671000  0.97705000  1.0 0.1088083037
H  H42  1  0.62861000  0.82310000  0.02829000  1.0 0.0797399133
H  H43  1  0.61856000  0.95403000  0.02372000  1.0 0.0797399133
H  H44  1  0.69920000  0.95759000  0.97210000  1.0 0.0797399133
H  H45  1  0.62842000  0.84432000  0.16759000  1.0 0.0797399133
H  H46  1  0.70695000  0.82531000  0.21681000  1.0 0.0618293318
H  H47  1  0.74812000  0.95171000  0.20456000  1.0 0.0711731882
H  H48  1  0.65500000  0.97076000  0.19726000  1.0 0.0797399133
H  H49  1  0.85078000  0.65329000  0.31096000  1.0 0.1003883912
H  H50  1  0.85328000  0.56049000  0.33086000  1.0 0.0797399133
H  H51  1  0.98357000  0.56283000  0.32764000  1.0 0.0915179671
H  H52  1  0.98106000  0.65448000  0.29865000  1.0 0.0797399133
H  H53  1  0.83295000  0.46566000  0.23307000  1.0 0.1003883912
H  H54  1  0.83899000  0.49210000  0.14121000  1.0 0.0618293318
H  H55  1  0.96900000  0.47341000  0.14782000  1.0 0.1003883912
H  H56  1  0.96352000  0.46219000  0.24222000  1.0 0.1003883912
H  H57  1  0.83563000  0.62681000  0.09928000  1.0 0.0711731882
H  H58  1  0.84640000  0.69595000  0.16078000  1.0 0.0711731882
H  H59  1  0.97599000  0.68208000  0.14152000  1.0 0.1189075454
H  H60  1  0.96524000  0.60615000  0.08862000  1.0 0.1189075454
H  H61  1  0.76438000  0.47152000  0.97134000  1.0 0.0797399133
H  H62  1  0.67144000  0.46946000  0.95322000  1.0 0.1088083037
H  H63  1  0.71180000  0.46668000  0.82596000  1.0 0.1003883912
H  H64  1  0.79748000  0.49764000  0.84480000  1.0 0.0711731882
H  H65  1  0.59105000  0.55755000  0.96540000  1.0 0.0915179671
H  H66  1  0.60716000  0.65071000  0.95471000  1.0 0.0711731882
H  H67  1  0.60466000  0.63243000  0.82505000  1.0 0.0711731882
H  H68  1  0.60984000  0.53838000  0.83692000  1.0 0.1088083037
H  H69  1  0.77308000  0.68587000  0.97569000  1.0 0.0711731882
H  H70  1  0.82800000  0.60995000  0.95208000  1.0 0.1088083037
H  H71  1  0.80828000  0.66313000  0.82862000  1.0 0.0711731882
H  H72  1  0.72393000  0.70112000  0.85323000  1.0 0.0915179671
H  H73  1  0.75975000  0.86114000  0.20525000  1.0 0.0618293318
H  H74  1  0.83361000  0.83401000  0.14997000  1.0 0.1003883912
H  H75  1  0.83660000  0.95387000  0.08238000  1.0 0.0711731882
H  H76  1  0.80638000  0.98280000  0.16842000  1.0 0.0711731882
H  H77  1  0.79675000  0.85413000  0.00065000  1.0 0.0618293318
H  H78  1  0.71010000  0.82969000  0.97732000  1.0 0.1088083037
H  H79  1  0.66161000  0.95444000  0.98421000  1.0 0.0797399133
H  H80  1  0.75329000  0.97744000  0.97282000  1.0 0.0711731882
H  H81  1  0.61404000  0.85789000  0.06052000  1.0 0.0711731882
H  H82  1  0.61416000  0.82162000  0.14953000  1.0 0.0711731882
H  H83  1  0.66709000  0.93733000  0.19858000  1.0 0.0797399133
H  H84  1  0.60113000  0.97083000  0.13826000  1.0 0.0711731882
H  H85  1  0.70116000  0.24718000  0.85476000  1.0 0.0536497639
H  H86  1  0.64302000  0.32235000  0.83773000  1.0 0.1003883912
H  H87  1  0.59740000  0.32421000  0.96338000  1.0 0.0711731882
H  H88  1  0.67634000  0.27363000  0.98266000  1.0 0.0797399133
H  H89  1  0.50034000  0.29991000  0.85270000  1.0 0.0618293318
H  H90  1  0.46573000  0.21648000  0.82980000  1.0 0.0915179671
H  H91  1  0.46632000  0.16996000  0.95515000  1.0 0.0915179671
H  H92  1  0.46787000  0.26165000  0.97699000  1.0 0.1003883912
H  H93  1  0.56577000  0.09733000  0.84450000  1.0 0.0711731882
H  H94  1  0.65810000  0.11563000  0.83313000  1.0 0.0711731882
H  H95  1  0.67251000  0.13086000  0.96216000  1.0 0.1189075454
H  H96  1  0.59069000  0.08566000  0.97297000  1.0 0.1189075454
H  H97  1  0.82675000  0.33262000  0.63517000  1.0 0.1003883912
H  H98  1  0.82699000  0.34662000  0.54127000  1.0 0.1088083037
H  H99  1  0.82903000  0.47622000  0.56653000  1.0 0.1189075454
H  H100  1  0.80089000  0.46173000  0.65758000  1.0 0.1003883912
H  H101  1  0.70196000  0.31979000  0.46651000  1.0 0.1003883912
H  H102  1  0.62080000  0.33639000  0.51576000  1.0 0.1088083037
H  H103  1  0.64252000  0.46440000  0.48126000  1.0 0.1003883912
H  H104  1  0.73564000  0.44826000  0.46631000  1.0 0.1088083037
H  H105  1  0.70034000  0.34236000  0.70726000  1.0 0.1003883912
H  H106  1  0.61947000  0.32403000  0.66471000  1.0 0.1088083037
H  H107  1  0.66445000  0.46663000  0.69309000  1.0 0.1088083037
H  H108  1  0.59918000  0.44773000  0.63005000  1.0 0.1088083037
H  H109  1  0.47461000  0.95950000  0.66309000  1.0 0.1088083037
H  H110  1  0.54573000  0.94585000  0.60024000  1.0 0.1088083037
H  H111  1  0.52454000  0.81770000  0.61563000  1.0 0.1003883912
H  H112  1  0.46926000  0.83119000  0.69339000  1.0 0.1003883912
H  H113  1  0.68756000  0.96287000  0.64437000  1.0 0.0797399133
H  H114  1  0.70003000  0.95026000  0.73756000  1.0 0.0618293318
H  H115  1  0.70926000  0.82147000  0.71282000  1.0 0.0711731882
H  H116  1  0.67036000  0.83413000  0.62770000  1.0 0.0797399133
H  H117  1  0.59449000  0.96697000  0.83102000  1.0 0.1003883912
H  H118  1  0.50540000  0.95431000  0.80495000  1.0 0.0797399133
H  H119  1  0.52905000  0.82582000  0.82636000  1.0 0.0915179671
H  H120  1  0.62253000  0.83790000  0.83138000  1.0 0.0711731882
H  H121  1  0.84112000  0.13711000  0.83910000  1.0 0.1088083037
H  H122  1  0.83150000  0.04279000  0.83773000  1.0 0.0536497639
H  H123  1  0.96069000  0.02331000  0.81781000  1.0 0.0711731882
H  H124  1  0.97123000  0.11529000  0.83328000  1.0 0.0711731882
H  H125  1  0.82671000  0.97705000  0.71011000  1.0 0.1088083037
H  H126  1  0.82310000  0.02829000  0.62861000  1.0 0.0797399133
H  H127  1  0.95403000  0.02372000  0.61856000  1.0 0.0797399133
H  H128  1  0.95759000  0.97210000  0.69920000  1.0 0.0797399133
H  H129  1  0.84432000  0.16759000  0.62842000  1.0 0.0797399133
H  H130  1  0.82531000  0.21681000  0.70695000  1.0 0.0618293318
H  H131  1  0.95171000  0.20456000  0.74812000  1.0 0.0711731882
H  H132  1  0.97076000  0.19726000  0.65500000  1.0 0.0797399133
H  H133  1  0.65329000  0.31096000  0.85078000  1.0 0.1003883912
H  H134  1  0.56049000  0.33086000  0.85328000  1.0 0.0797399133
H  H135  1  0.56283000  0.32764000  0.98357000  1.0 0.0915179671
H  H136  1  0.65448000  0.29865000  0.98106000  1.0 0.0797399133
H  H137  1  0.46566000  0.23307000  0.83295000  1.0 0.1003883912
H  H138  1  0.49210000  0.14121000  0.83899000  1.0 0.0618293318
H  H139  1  0.47341000  0.14782000  0.96900000  1.0 0.1003883912
H  H140  1  0.46219000  0.24222000  0.96352000  1.0 0.1003883912
H  H141  1  0.62681000  0.09928000  0.83563000  1.0 0.0711731882
H  H142  1  0.69595000  0.16078000  0.84640000  1.0 0.0711731882
H  H143  1  0.68208000  0.14152000  0.97599000  1.0 0.1189075454
H  H144  1  0.60615000  0.08862000  0.96524000  1.0 0.1189075454
H  H145  1  0.47152000  0.97134000  0.76438000  1.0 0.0797399133
H  H146  1  0.46946000  0.95322000  0.67144000  1.0 0.1088083037
H  H147  1  0.46668000  0.82596000  0.71180000  1.0 0.1003883912
H  H148  1  0.49764000  0.84480000  0.79748000  1.0 0.0711731882
H  H149  1  0.55755000  0.96540000  0.59105000  1.0 0.0915179671
H  H150  1  0.65071000  0.95471000  0.60716000  1.0 0.0711731882
H  H151  1  0.63243000  0.82505000  0.60466000  1.0 0.0711731882
H  H152  1  0.53838000  0.83692000  0.60984000  1.0 0.1088083037
H  H153  1  0.68587000  0.97569000  0.77308000  1.0 0.0711731882
H  H154  1  0.60995000  0.95208000  0.82800000  1.0 0.1088083037
H  H155  1  0.66313000  0.82862000  0.80828000  1.0 0.0711731882
H  H156  1  0.70112000  0.85323000  0.72393000  1.0 0.0915179671
H  H157  1  0.86114000  0.20525000  0.75975000  1.0 0.0618293318
H  H158  1  0.83401000  0.14997000  0.83361000  1.0 0.1003883912
H  H159  1  0.95387000  0.08238000  0.83660000  1.0 0.0711731882
H  H160  1  0.98280000  0.16842000  0.80638000  1.0 0.0711731882
H  H161  1  0.85413000  0.00065000  0.79675000  1.0 0.0618293318
H  H162  1  0.82969000  0.97732000  0.71010000  1.0 0.1088083037
H  H163  1  0.95444000  0.98421000  0.66161000  1.0 0.0797399133
H  H164  1  0.97744000  0.97282000  0.75329000  1.0 0.0711731882
H  H165  1  0.85789000  0.06052000  0.61404000  1.0 0.0711731882
H  H166  1  0.82162000  0.14953000  0.61416000  1.0 0.0711731882
H  H167  1  0.93733000  0.19858000  0.66709000  1.0 0.0797399133
H  H168  1  0.97083000  0.13826000  0.60113000  1.0 0.0711731882
H  H169  1  0.24718000  0.85476000  0.70116000  1.0 0.0536497639
H  H170  1  0.32235000  0.83773000  0.64302000  1.0 0.1003883912
H  H171  1  0.32421000  0.96338000  0.59740000  1.0 0.0711731882
H  H172  1  0.27363000  0.98266000  0.67634000  1.0 0.0797399133
H  H173  1  0.29991000  0.85270000  0.50034000  1.0 0.0618293318
H  H174  1  0.21648000  0.82980000  0.46573000  1.0 0.0915179671
H  H175  1  0.16996000  0.95515000  0.46632000  1.0 0.0915179671
H  H176  1  0.26165000  0.97699000  0.46787000  1.0 0.1003883912
H  H177  1  0.09733000  0.84450000  0.56577000  1.0 0.0711731882
H  H178  1  0.11563000  0.83313000  0.65810000  1.0 0.0797399133
H  H179  1  0.13086000  0.96216000  0.67251000  1.0 0.1189075454
H  H180  1  0.08566000  0.97297000  0.59069000  1.0 0.1189075454
H  H181  1  0.33262000  0.63517000  0.82675000  1.0 0.1003883912
H  H182  1  0.34662000  0.54127000  0.82699000  1.0 0.1088083037
H  H183  1  0.47622000  0.56653000  0.82903000  1.0 0.1189075454
H  H184  1  0.46173000  0.65758000  0.80089000  1.0 0.1003883912
H  H185  1  0.31979000  0.46651000  0.70196000  1.0 0.1003883912
H  H186  1  0.33639000  0.51576000  0.62080000  1.0 0.1088083037
H  H187  1  0.46440000  0.48126000  0.64252000  1.0 0.1003883912
H  H188  1  0.44826000  0.46631000  0.73564000  1.0 0.1088083037
H  H189  1  0.34236000  0.70726000  0.70034000  1.0 0.1003883912
H  H190  1  0.32403000  0.66471000  0.61947000  1.0 0.1088083037
H  H191  1  0.46663000  0.69309000  0.66445000  1.0 0.1088083037
H  H192  1  0.44773000  0.63005000  0.59918000  1.0 0.1088083037
H  H193  1  0.95950000  0.66309000  0.47461000  1.0 0.1088083037
H  H194  1  0.94585000  0.60024000  0.54573000  1.0 0.1088083037
H  H195  1  0.81770000  0.61563000  0.52454000  1.0 0.1003883912
H  H196  1  0.83119000  0.69339000  0.46926000  1.0 0.1003883912
H  H197  1  0.96287000  0.64437000  0.68756000  1.0 0.0797399133
H  H198  1  0.95026000  0.73756000  0.70003000  1.0 0.0618293318
H  H199  1  0.82147000  0.71282000  0.70926000  1.0 0.0711731882
H  H200  1  0.83413000  0.62770000  0.67036000  1.0 0.0797399133
H  H201  1  0.96697000  0.83102000  0.59449000  1.0 0.1003883912
H  H202  1  0.95431000  0.80495000  0.50540000  1.0 0.0797399133
H  H203  1  0.82582000  0.82636000  0.52905000  1.0 0.0915179671
H  H204  1  0.83790000  0.83138000  0.62253000  1.0 0.0711731882
H  H205  1  0.13711000  0.83910000  0.84112000  1.0 0.1088083037
H  H206  1  0.04279000  0.83773000  0.83150000  1.0 0.0536497639
H  H207  1  0.02331000  0.81781000  0.96069000  1.0 0.0711731882
H  H208  1  0.11529000  0.83328000  0.97123000  1.0 0.0618293318
H  H209  1  0.97705000  0.71011000  0.82671000  1.0 0.1088083037
H  H210  1  0.02829000  0.62861000  0.82310000  1.0 0.0797399133
H  H211  1  0.02372000  0.61856000  0.95403000  1.0 0.0797399133
H  H212  1  0.97210000  0.69920000  0.95759000  1.0 0.0797399133
H  H213  1  0.16759000  0.62842000  0.84432000  1.0 0.0797399133
H  H214  1  0.21681000  0.70695000  0.82531000  1.0 0.0618293318
H  H215  1  0.20456000  0.74812000  0.95171000  1.0 0.0711731882
H  H216  1  0.19726000  0.65500000  0.97076000  1.0 0.0797399133
H  H217  1  0.31096000  0.85078000  0.65329000  1.0 0.1003883912
H  H218  1  0.33086000  0.85328000  0.56049000  1.0 0.0797399133
H  H219  1  0.32764000  0.98357000  0.56283000  1.0 0.0915179671
H  H220  1  0.29865000  0.98106000  0.65448000  1.0 0.0797399133
H  H221  1  0.23307000  0.83295000  0.46566000  1.0 0.1003883912
H  H222  1  0.14121000  0.83899000  0.49210000  1.0 0.0618293318
H  H223  1  0.14782000  0.96900000  0.47341000  1.0 0.1003883912
H  H224  1  0.24222000  0.96352000  0.46219000  1.0 0.1003883912
H  H225  1  0.09928000  0.83563000  0.62681000  1.0 0.0711731882
H  H226  1  0.16078000  0.84640000  0.69595000  1.0 0.0711731882
H  H227  1  0.14152000  0.97599000  0.68208000  1.0 0.1189075454
H  H228  1  0.08862000  0.96524000  0.60615000  1.0 0.1189075454
H  H229  1  0.97134000  0.76438000  0.47152000  1.0 0.0797399133
H  H230  1  0.95322000  0.67144000  0.46946000  1.0 0.1088083037
H  H231  1  0.82596000  0.71180000  0.46668000  1.0 0.1003883912
H  H232  1  0.84480000  0.79748000  0.49764000  1.0 0.0711731882
H  H233  1  0.96540000  0.59105000  0.55755000  1.0 0.0915179671
H  H234  1  0.95471000  0.60716000  0.65071000  1.0 0.0711731882
H  H235  1  0.82505000  0.60466000  0.63243000  1.0 0.0711731882
H  H236  1  0.83692000  0.60984000  0.53838000  1.0 0.1088083037
H  H237  1  0.97569000  0.77308000  0.68587000  1.0 0.0711731882
H  H238  1  0.95208000  0.82800000  0.60995000  1.0 0.1088083037
H  H239  1  0.82862000  0.80828000  0.66313000  1.0 0.0711731882
H  H240  1  0.85323000  0.72393000  0.70112000  1.0 0.0915179671
H  H241  1  0.20525000  0.75975000  0.86114000  1.0 0.0618293318
H  H242  1  0.14997000  0.83361000  0.83401000  1.0 0.1003883912
H  H243  1  0.08238000  0.83660000  0.95387000  1.0 0.0711731882
H  H244  1  0.16842000  0.80638000  0.98280000  1.0 0.0711731882
H  H245  1  0.00065000  0.79675000  0.85413000  1.0 0.0618293318
H  H246  1  0.97732000  0.71010000  0.82969000  1.0 0.1088083037
H  H247  1  0.98421000  0.66161000  0.95444000  1.0 0.0797399133
H  H248  1  0.97282000  0.75329000  0.97744000  1.0 0.0711731882
H  H249  1  0.06052000  0.61404000  0.85789000  1.0 0.0711731882
H  H250  1  0.14953000  0.61416000  0.82162000  1.0 0.0711731882
H  H251  1  0.19858000  0.66709000  0.93733000  1.0 0.0797399133
H  H252  1  0.13826000  0.60113000  0.97083000  1.0 0.0711731882
H  H253  1  0.35476000  0.74718000  0.20116000  1.0 0.0536497639
H  H254  1  0.33773000  0.82235000  0.14302000  1.0 0.1003883912
H  H255  1  0.46338000  0.82421000  0.09740000  1.0 0.0711731882
H  H256  1  0.48266000  0.77363000  0.17634000  1.0 0.0797399133
H  H257  1  0.35270000  0.79991000  0.00034000  1.0 0.0618293318
H  H258  1  0.32980000  0.71648000  0.96573000  1.0 0.0915179671
H  H259  1  0.45515000  0.66996000  0.96632000  1.0 0.0915179671
H  H260  1  0.47699000  0.76165000  0.96787000  1.0 0.1003883912
H  H261  1  0.34450000  0.59733000  0.06577000  1.0 0.0711731882
H  H262  1  0.33313000  0.61563000  0.15810000  1.0 0.0797399133
H  H263  1  0.46216000  0.63086000  0.17251000  1.0 0.1189075454
H  H264  1  0.47297000  0.58566000  0.09069000  1.0 0.1189075454
H  H265  1  0.13517000  0.83262000  0.32675000  1.0 0.1003883912
H  H266  1  0.04127000  0.84662000  0.32699000  1.0 0.1088083037
H  H267  1  0.06653000  0.97622000  0.32903000  1.0 0.1189075454
H  H268  1  0.15758000  0.96173000  0.30089000  1.0 0.1003883912
H  H269  1  0.96651000  0.81979000  0.20196000  1.0 0.1003883912
H  H270  1  0.01576000  0.83639000  0.12080000  1.0 0.1088083037
H  H271  1  0.98126000  0.96440000  0.14252000  1.0 0.1003883912
H  H272  1  0.96631000  0.94826000  0.23564000  1.0 0.1088083037
H  H273  1  0.20726000  0.84236000  0.20034000  1.0 0.1003883912
H  H274  1  0.16471000  0.82403000  0.11947000  1.0 0.1088083037
H  H275  1  0.19309000  0.96663000  0.16445000  1.0 0.1088083037
H  H276  1  0.13005000  0.94773000  0.09918000  1.0 0.1088083037
H  H277  1  0.16309000  0.45950000  0.97461000  1.0 0.1088083037
H  H278  1  0.10024000  0.44585000  0.04573000  1.0 0.1088083037
H  H279  1  0.11563000  0.31770000  0.02454000  1.0 0.0915179671
H  H280  1  0.19339000  0.33119000  0.96926000  1.0 0.1003883912
H  H281  1  0.14437000  0.46287000  0.18756000  1.0 0.0797399133
H  H282  1  0.23756000  0.45026000  0.20003000  1.0 0.0618293318
H  H283  1  0.21282000  0.32147000  0.20926000  1.0 0.0711731882
H  H284  1  0.12770000  0.33413000  0.17036000  1.0 0.0797399133
H  H285  1  0.33102000  0.46697000  0.09449000  1.0 0.1003883912
H  H286  1  0.30495000  0.45431000  0.00540000  1.0 0.0797399133
H  H287  1  0.32636000  0.32582000  0.02905000  1.0 0.0915179671
H  H288  1  0.33138000  0.33790000  0.12253000  1.0 0.0711731882
H  H289  1  0.33910000  0.63711000  0.34112000  1.0 0.1088083037
H  H290  1  0.33773000  0.54279000  0.33150000  1.0 0.0536497639
H  H291  1  0.31781000  0.52331000  0.46069000  1.0 0.0711731882
H  H292  1  0.33328000  0.61529000  0.47123000  1.0 0.0618293318
H  H293  1  0.21011000  0.47705000  0.32671000  1.0 0.1088083037
H  H294  1  0.12861000  0.52829000  0.32310000  1.0 0.0797399133
H  H295  1  0.11856000  0.52372000  0.45403000  1.0 0.0797399133
H  H296  1  0.19920000  0.47210000  0.45759000  1.0 0.0797399133
H  H297  1  0.12842000  0.66759000  0.34432000  1.0 0.0797399133
H  H298  1  0.20695000  0.71681000  0.32531000  1.0 0.0618293318
H  H299  1  0.24812000  0.70456000  0.45171000  1.0 0.0711731882
H  H300  1  0.15500000  0.69726000  0.47076000  1.0 0.0797399133
H  H301  1  0.35078000  0.81096000  0.15329000  1.0 0.1003883912
H  H302  1  0.35328000  0.83086000  0.06049000  1.0 0.0797399133
H  H303  1  0.48357000  0.82764000  0.06283000  1.0 0.0915179671
H  H304  1  0.48106000  0.79865000  0.15448000  1.0 0.0797399133
H  H305  1  0.33295000  0.73307000  0.96566000  1.0 0.1003883912
H  H306  1  0.33899000  0.64121000  0.99210000  1.0 0.0618293318
H  H307  1  0.46900000  0.64782000  0.97341000  1.0 0.1003883912
H  H308  1  0.46352000  0.74222000  0.96219000  1.0 0.1003883912
H  H309  1  0.33563000  0.59928000  0.12681000  1.0 0.0711731882
H  H310  1  0.34640000  0.66078000  0.19595000  1.0 0.0711731882
H  H311  1  0.47599000  0.64152000  0.18208000  1.0 0.1189075454
H  H312  1  0.46524000  0.58862000  0.10615000  1.0 0.1189075454
H  H313  1  0.26438000  0.47134000  0.97152000  1.0 0.0797399133
H  H314  1  0.17144000  0.45322000  0.96946000  1.0 0.1088083037
H  H315  1  0.21180000  0.32596000  0.96668000  1.0 0.1003883912
H  H316  1  0.29748000  0.34480000  0.99764000  1.0 0.0711731882
H  H317  1  0.09105000  0.46540000  0.05755000  1.0 0.0915179671
H  H318  1  0.10716000  0.45471000  0.15071000  1.0 0.0711731882
H  H319  1  0.10466000  0.32505000  0.13243000  1.0 0.0711731882
H  H320  1  0.10984000  0.33692000  0.03838000  1.0 0.1088083037
H  H321  1  0.27308000  0.47569000  0.18587000  1.0 0.0711731882
H  H322  1  0.32800000  0.45208000  0.10995000  1.0 0.1088083037
H  H323  1  0.30828000  0.32862000  0.16313000  1.0 0.0711731882
H  H324  1  0.22393000  0.35323000  0.20112000  1.0 0.0915179671
H  H325  1  0.25975000  0.70525000  0.36114000  1.0 0.0618293318
H  H326  1  0.33361000  0.64997000  0.33401000  1.0 0.1003883912
H  H327  1  0.33660000  0.58238000  0.45387000  1.0 0.0711731882
H  H328  1  0.30638000  0.66842000  0.48280000  1.0 0.0711731882
H  H329  1  0.29675000  0.50065000  0.35413000  1.0 0.0618293318
H  H330  1  0.21010000  0.47732000  0.32969000  1.0 0.1088083037
H  H331  1  0.16161000  0.48421000  0.45444000  1.0 0.0797399133
H  H332  1  0.25329000  0.47282000  0.47744000  1.0 0.0711731882
H  H333  1  0.11404000  0.56052000  0.35789000  1.0 0.0711731882
H  H334  1  0.11416000  0.64953000  0.32162000  1.0 0.0711731882
H  H335  1  0.16709000  0.69858000  0.43733000  1.0 0.0797399133
H  H336  1  0.10113000  0.63826000  0.47083000  1.0 0.0711731882
H  H337  1  0.20116000  0.35476000  0.74718000  1.0 0.0536497639
H  H338  1  0.14302000  0.33773000  0.82235000  1.0 0.1003883912
H  H339  1  0.09740000  0.46338000  0.82421000  1.0 0.0711731882
H  H340  1  0.17634000  0.48266000  0.77363000  1.0 0.0797399133
H  H341  1  0.00034000  0.35270000  0.79991000  1.0 0.0618293318
H  H342  1  0.96573000  0.32980000  0.71648000  1.0 0.0915179671
H  H343  1  0.96632000  0.45515000  0.66996000  1.0 0.0915179671
H  H344  1  0.96787000  0.47699000  0.76165000  1.0 0.1003883912
H  H345  1  0.06577000  0.34450000  0.59733000  1.0 0.0711731882
H  H346  1  0.15810000  0.33313000  0.61563000  1.0 0.0797399133
H  H347  1  0.17251000  0.46216000  0.63086000  1.0 0.1189075454
H  H348  1  0.09069000  0.47297000  0.58566000  1.0 0.1189075454
H  H349  1  0.32675000  0.13517000  0.83262000  1.0 0.1003883912
H  H350  1  0.32699000  0.04127000  0.84662000  1.0 0.1088083037
H  H351  1  0.32903000  0.06653000  0.97622000  1.0 0.1189075454
H  H352  1  0.30089000  0.15758000  0.96173000  1.0 0.1003883912
H  H353  1  0.20196000  0.96651000  0.81979000  1.0 0.1003883912
H  H354  1  0.12080000  0.01576000  0.83639000  1.0 0.1088083037
H  H355  1  0.14252000  0.98126000  0.96440000  1.0 0.1003883912
H  H356  1  0.23564000  0.96631000  0.94826000  1.0 0.1088083037
H  H357  1  0.20034000  0.20726000  0.84236000  1.0 0.1003883912
H  H358  1  0.11947000  0.16471000  0.82403000  1.0 0.1088083037
H  H359  1  0.16445000  0.19309000  0.96663000  1.0 0.1088083037
H  H360  1  0.09918000  0.13005000  0.94773000  1.0 0.1088083037
H  H361  1  0.97461000  0.16309000  0.45950000  1.0 0.1088083037
H  H362  1  0.04573000  0.10024000  0.44585000  1.0 0.1088083037
H  H363  1  0.02454000  0.11563000  0.31770000  1.0 0.0915179671
H  H364  1  0.96926000  0.19339000  0.33119000  1.0 0.1003883912
H  H365  1  0.18756000  0.14437000  0.46287000  1.0 0.0797399133
H  H366  1  0.20003000  0.23756000  0.45026000  1.0 0.0618293318
H  H367  1  0.20926000  0.21282000  0.32147000  1.0 0.0711731882
H  H368  1  0.17036000  0.12770000  0.33413000  1.0 0.0797399133
H  H369  1  0.09449000  0.33102000  0.46697000  1.0 0.1003883912
H  H370  1  0.00540000  0.30495000  0.45431000  1.0 0.0797399133
H  H371  1  0.02905000  0.32636000  0.32582000  1.0 0.0915179671
H  H372  1  0.12253000  0.33138000  0.33790000  1.0 0.0711731882
H  H373  1  0.34112000  0.33910000  0.63711000  1.0 0.1088083037
H  H374  1  0.33150000  0.33773000  0.54279000  1.0 0.0536497639
H  H375  1  0.46069000  0.31781000  0.52331000  1.0 0.0711731882
H  H376  1  0.47123000  0.33328000  0.61529000  1.0 0.0618293318
H  H377  1  0.32671000  0.21011000  0.47705000  1.0 0.1088083037
H  H378  1  0.32310000  0.12861000  0.52829000  1.0 0.0797399133
H  H379  1  0.45403000  0.11856000  0.52372000  1.0 0.0797399133
H  H380  1  0.45759000  0.19920000  0.47210000  1.0 0.0797399133
H  H381  1  0.34432000  0.12842000  0.66759000  1.0 0.0797399133
H  H382  1  0.32531000  0.20695000  0.71681000  1.0 0.0618293318
H  H383  1  0.45171000  0.24812000  0.70456000  1.0 0.0711731882
H  H384  1  0.47076000  0.15500000  0.69726000  1.0 0.0797399133
H  H385  1  0.15329000  0.35078000  0.81096000  1.0 0.1003883912
H  H386  1  0.06049000  0.35328000  0.83086000  1.0 0.0797399133
H  H387  1  0.06283000  0.48357000  0.82764000  1.0 0.0915179671
H  H388  1  0.15448000  0.48106000  0.79865000  1.0 0.0797399133
H  H389  1  0.96566000  0.33295000  0.73307000  1.0 0.1003883912
H  H390  1  0.99210000  0.33899000  0.64121000  1.0 0.0618293318
H  H391  1  0.97341000  0.46900000  0.64782000  1.0 0.1003883912
H  H392  1  0.96219000  0.46352000  0.74222000  1.0 0.1003883912
H  H393  1  0.12681000  0.33563000  0.59928000  1.0 0.0711731882
H  H394  1  0.19595000  0.34640000  0.66078000  1.0 0.0711731882
H  H395  1  0.18208000  0.47599000  0.64152000  1.0 0.1189075454
H  H396  1  0.10615000  0.46524000  0.58862000  1.0 0.1189075454
H  H397  1  0.97152000  0.26438000  0.47134000  1.0 0.0797399133
H  H398  1  0.96946000  0.17144000  0.45322000  1.0 0.1088083037
H  H399  1  0.96668000  0.21180000  0.32596000  1.0 0.1003883912
H  H400  1  0.99764000  0.29748000  0.34480000  1.0 0.0711731882
H  H401  1  0.05755000  0.09105000  0.46540000  1.0 0.0915179671
H  H402  1  0.15071000  0.10716000  0.45471000  1.0 0.0711731882
H  H403  1  0.13243000  0.10466000  0.32505000  1.0 0.0711731882
H  H404  1  0.03838000  0.10984000  0.33692000  1.0 0.1003883912
H  H405  1  0.18587000  0.27308000  0.47569000  1.0 0.0711731882
H  H406  1  0.10995000  0.32800000  0.45208000  1.0 0.1088083037
H  H407  1  0.16313000  0.30828000  0.32862000  1.0 0.0711731882
H  H408  1  0.20112000  0.22393000  0.35323000  1.0 0.0915179671
H  H409  1  0.36114000  0.25975000  0.70525000  1.0 0.0618293318
H  H410  1  0.33401000  0.33361000  0.64997000  1.0 0.1003883912
H  H411  1  0.45387000  0.33660000  0.58238000  1.0 0.0711731882
H  H412  1  0.48280000  0.30638000  0.66842000  1.0 0.0711731882
H  H413  1  0.35413000  0.29675000  0.50065000  1.0 0.0618293318
H  H414  1  0.32969000  0.21010000  0.47732000  1.0 0.1088083037
H  H415  1  0.45444000  0.16161000  0.48421000  1.0 0.0797399133
H  H416  1  0.47744000  0.25329000  0.47282000  1.0 0.0711731882
H  H417  1  0.35789000  0.11404000  0.56052000  1.0 0.0711731882
H  H418  1  0.32162000  0.11416000  0.64953000  1.0 0.0711731882
H  H419  1  0.43733000  0.16709000  0.69858000  1.0 0.0797399133
H  H420  1  0.47083000  0.10113000  0.63826000  1.0 0.0711731882
H  H421  1  0.74718000  0.20116000  0.35476000  1.0 0.0536497639
H  H422  1  0.82235000  0.14302000  0.33773000  1.0 0.1003883912
H  H423  1  0.82421000  0.09740000  0.46338000  1.0 0.0711731882
H  H424  1  0.77363000  0.17634000  0.48266000  1.0 0.0797399133
H  H425  1  0.79991000  0.00034000  0.35270000  1.0 0.0618293318
H  H426  1  0.71648000  0.96573000  0.32980000  1.0 0.0915179671
H  H427  1  0.66996000  0.96632000  0.45515000  1.0 0.0915179671
H  H428  1  0.76165000  0.96787000  0.47699000  1.0 0.1003883912
H  H429  1  0.59733000  0.06577000  0.34450000  1.0 0.0711731882
H  H430  1  0.61563000  0.15810000  0.33313000  1.0 0.0797399133
H  H431  1  0.63086000  0.17251000  0.46216000  1.0 0.1189075454
H  H432  1  0.58566000  0.09069000  0.47297000  1.0 0.1189075454
H  H433  1  0.83262000  0.32675000  0.13517000  1.0 0.1003883912
H  H434  1  0.84662000  0.32699000  0.04127000  1.0 0.1088083037
H  H435  1  0.97622000  0.32903000  0.06653000  1.0 0.1189075454
H  H436  1  0.96173000  0.30089000  0.15758000  1.0 0.1003883912
H  H437  1  0.81979000  0.20196000  0.96651000  1.0 0.1003883912
H  H438  1  0.83639000  0.12080000  0.01576000  1.0 0.1088083037
H  H439  1  0.96440000  0.14252000  0.98126000  1.0 0.1003883912
H  H440  1  0.94826000  0.23564000  0.96631000  1.0 0.1088083037
H  H441  1  0.84236000  0.20034000  0.20726000  1.0 0.1003883912
H  H442  1  0.82403000  0.11947000  0.16471000  1.0 0.1088083037
H  H443  1  0.96663000  0.16445000  0.19309000  1.0 0.1088083037
H  H444  1  0.94773000  0.09918000  0.13005000  1.0 0.1088083037
H  H445  1  0.45950000  0.97461000  0.16309000  1.0 0.1088083037
H  H446  1  0.44585000  0.04573000  0.10024000  1.0 0.1088083037
H  H447  1  0.31770000  0.02454000  0.11563000  1.0 0.0915179671
H  H448  1  0.33119000  0.96926000  0.19339000  1.0 0.1003883912
H  H449  1  0.46287000  0.18756000  0.14437000  1.0 0.0797399133
H  H450  1  0.45026000  0.20003000  0.23756000  1.0 0.0618293318
H  H451  1  0.32147000  0.20926000  0.21282000  1.0 0.0711731882
H  H452  1  0.33413000  0.17036000  0.12770000  1.0 0.0797399133
H  H453  1  0.46697000  0.09449000  0.33102000  1.0 0.1003883912
H  H454  1  0.45431000  0.00540000  0.30495000  1.0 0.0797399133
H  H455  1  0.32582000  0.02905000  0.32636000  1.0 0.0915179671
H  H456  1  0.33790000  0.12253000  0.33138000  1.0 0.0711731882
H  H457  1  0.63711000  0.34112000  0.33910000  1.0 0.1088083037
H  H458  1  0.54279000  0.33150000  0.33773000  1.0 0.0536497639
H  H459  1  0.52331000  0.46069000  0.31781000  1.0 0.0711731882
H  H460  1  0.61529000  0.47123000  0.33328000  1.0 0.0711731882
H  H461  1  0.47705000  0.32671000  0.21011000  1.0 0.1088083037
H  H462  1  0.52829000  0.32310000  0.12861000  1.0 0.0797399133
H  H463  1  0.52372000  0.45403000  0.11856000  1.0 0.0797399133
H  H464  1  0.47210000  0.45759000  0.19920000  1.0 0.0797399133
H  H465  1  0.66759000  0.34432000  0.12842000  1.0 0.0797399133
H  H466  1  0.71681000  0.32531000  0.20695000  1.0 0.0618293318
H  H467  1  0.70456000  0.45171000  0.24812000  1.0 0.0711731882
H  H468  1  0.69726000  0.47076000  0.15500000  1.0 0.0797399133
H  H469  1  0.81096000  0.15329000  0.35078000  1.0 0.1003883912
H  H470  1  0.83086000  0.06049000  0.35328000  1.0 0.0797399133
H  H471  1  0.82764000  0.06283000  0.48357000  1.0 0.0915179671
H  H472  1  0.79865000  0.15448000  0.48106000  1.0 0.0797399133
H  H473  1  0.73307000  0.96566000  0.33295000  1.0 0.1003883912
H  H474  1  0.64121000  0.99210000  0.33899000  1.0 0.0618293318
H  H475  1  0.64782000  0.97341000  0.46900000  1.0 0.1003883912
H  H476  1  0.74222000  0.96219000  0.46352000  1.0 0.1003883912
H  H477  1  0.59928000  0.12681000  0.33563000  1.0 0.0711731882
H  H478  1  0.66078000  0.19595000  0.34640000  1.0 0.0711731882
H  H479  1  0.64152000  0.18208000  0.47599000  1.0 0.1189075454
H  H480  1  0.58862000  0.10615000  0.46524000  1.0 0.1189075454
H  H481  1  0.47134000  0.97152000  0.26438000  1.0 0.0797399133
H  H482  1  0.45322000  0.96946000  0.17144000  1.0 0.1088083037
H  H483  1  0.32596000  0.96668000  0.21180000  1.0 0.1003883912
H  H484  1  0.34480000  0.99764000  0.29748000  1.0 0.0711731882
H  H485  1  0.46540000  0.05755000  0.09105000  1.0 0.0915179671
H  H486  1  0.45471000  0.15071000  0.10716000  1.0 0.0711731882
H  H487  1  0.32505000  0.13243000  0.10466000  1.0 0.0711731882
H  H488  1  0.33692000  0.03838000  0.10984000  1.0 0.1003883912
H  H489  1  0.47569000  0.18587000  0.27308000  1.0 0.0711731882
H  H490  1  0.45208000  0.10995000  0.32800000  1.0 0.1088083037
H  H491  1  0.32862000  0.16313000  0.30828000  1.0 0.0711731882
H  H492  1  0.35323000  0.20112000  0.22393000  1.0 0.0915179671
H  H493  1  0.70525000  0.36114000  0.25975000  1.0 0.0618293318
H  H494  1  0.64997000  0.33401000  0.33361000  1.0 0.1003883912
H  H495  1  0.58238000  0.45387000  0.33660000  1.0 0.0711731882
H  H496  1  0.66842000  0.48280000  0.30638000  1.0 0.0711731882
H  H497  1  0.50065000  0.35413000  0.29675000  1.0 0.0618293318
H  H498  1  0.47732000  0.32969000  0.21010000  1.0 0.1088083037
H  H499  1  0.48421000  0.45444000  0.16161000  1.0 0.0797399133
H  H500  1  0.47282000  0.47744000  0.25329000  1.0 0.0711731882
H  H501  1  0.56052000  0.35789000  0.11404000  1.0 0.0711731882
H  H502  1  0.64953000  0.32162000  0.11416000  1.0 0.0711731882
H  H503  1  0.69858000  0.43733000  0.16709000  1.0 0.0797399133
H  H504  1  0.63826000  0.47083000  0.10113000  1.0 0.0711731882
C  C1  1  0.86350000  0.64690000  0.26920000  1.0 -0.10128934
C  C2  1  0.95300000  0.62660000  0.27380000  1.0 -0.0705046503
C  C3  1  0.86020000  0.50680000  0.24190000  1.0 -0.0422690769
C  C4  1  0.94880000  0.49700000  0.21890000  1.0 -0.1827499202
C  C5  1  0.85860000  0.60760000  0.13370000  1.0 -0.0214438519
C  C6  1  0.94910000  0.61570000  0.13320000  1.0 -0.2645930629
C  C7  1  0.59100000  0.79680000  0.35730000  1.0 -0.1932551246
C  C8  1  0.60210000  0.79090000  0.44840000  1.0 -0.1675882023
C  C9  1  0.51260000  0.67810000  0.34740000  1.0 -0.2353573671
C  C10  1  0.50330000  0.69040000  0.43800000  1.0 -0.1296436225
C  C11  1  0.65820000  0.67040000  0.35140000  1.0 -0.2488125991
C  C12  1  0.64380000  0.65520000  0.43830000  1.0 -0.1675882023
C  C13  1  0.65540000  0.52770000  0.93410000  1.0 -0.0705046503
C  C14  1  0.66720000  0.52050000  0.84400000  1.0 -0.1170404684
C  C15  1  0.69350000  0.66570000  0.93770000  1.0 -0.0422690769
C  C16  1  0.68430000  0.66460000  0.84720000  1.0 -0.1170404684
C  C17  1  0.79250000  0.56160000  0.94070000  1.0 -0.10128934
C  C18  1  0.79950000  0.57530000  0.85040000  1.0 -0.0852827883
C  C19  1  0.80910000  0.85460000  0.08890000  1.0 -0.0605907877
C  C20  1  0.79950000  0.94520000  0.07750000  1.0 -0.0805561847
C  C21  1  0.68190000  0.84610000  0.02510000  1.0 -0.0805561847
C  C22  1  0.67520000  0.93750000  0.02260000  1.0 -0.0805561847
C  C23  1  0.68590000  0.85330000  0.16930000  1.0 -0.0491887933
C  C24  1  0.70120000  0.94300000  0.17260000  1.0 -0.0805561847
C  C25  1  0.87000000  0.60170000  0.29140000  1.0 -0.0605907877
C  C26  1  0.96160000  0.60100000  0.28840000  1.0 -0.10686056
C  C27  1  0.85690000  0.50410000  0.19450000  1.0 -0.0605907877
C  C28  1  0.94750000  0.49730000  0.19740000  1.0 -0.1827499202
C  C29  1  0.86050000  0.64020000  0.14930000  1.0 -0.0214438519
C  C30  1  0.95130000  0.62980000  0.14030000  1.0 -0.2693439057
C  C31  1  0.72070000  0.49870000  0.94370000  1.0 -0.0805561847
C  C32  1  0.73940000  0.50760000  0.85400000  1.0 -0.0705046503
C  C33  1  0.62760000  0.59660000  0.94160000  1.0 -0.1390039216
C  C34  1  0.63490000  0.58790000  0.85090000  1.0 -0.0605907877
C  C35  1  0.77550000  0.63650000  0.94550000  1.0 -0.1296436225
C  C36  1  0.75770000  0.65270000  0.85770000  1.0 -0.0805561847
C  C37  1  0.78190000  0.86290000  0.15040000  1.0 -0.0605907877
C  C38  1  0.79380000  0.94980000  0.12330000  1.0 -0.0422690769
C  C39  1  0.73990000  0.85990000  0.01540000  1.0 -0.0605907877
C  C40  1  0.71490000  0.94790000  0.00670000  1.0 -0.0705046503
C  C41  1  0.64310000  0.85560000  0.11050000  1.0 -0.1390039216
C  C42  1  0.65120000  0.93960000  0.14260000  1.0 -0.0705046503
C  C43  1  0.64690000  0.26920000  0.86350000  1.0 -0.10128934
C  C44  1  0.62660000  0.27380000  0.95300000  1.0 -0.0705046503
C  C45  1  0.50680000  0.24190000  0.86020000  1.0 -0.0422690769
C  C46  1  0.49700000  0.21890000  0.94880000  1.0 -0.1827499202
C  C47  1  0.60760000  0.13370000  0.85860000  1.0 -0.0214438519
C  C48  1  0.61570000  0.13320000  0.94910000  1.0 -0.2645930629
C  C49  1  0.79680000  0.35730000  0.59100000  1.0 -0.1932551246
C  C50  1  0.79090000  0.44840000  0.60210000  1.0 -0.1675882023
C  C51  1  0.67810000  0.34740000  0.51260000  1.0 -0.2345416179
C  C52  1  0.69040000  0.43800000  0.50330000  1.0 -0.1296436225
C  C53  1  0.67040000  0.35140000  0.65820000  1.0 -0.2488125991
C  C54  1  0.65520000  0.43830000  0.64380000  1.0 -0.1675882023
C  C55  1  0.52770000  0.93410000  0.65540000  1.0 -0.0705046503
C  C56  1  0.52050000  0.84400000  0.66720000  1.0 -0.1170404684
C  C57  1  0.66570000  0.93770000  0.69350000  1.0 -0.0422690769
C  C58  1  0.66460000  0.84720000  0.68430000  1.0 -0.1170404684
C  C59  1  0.56160000  0.94070000  0.79250000  1.0 -0.10128934
C  C60  1  0.57530000  0.85040000  0.79950000  1.0 -0.0852827883
C  C61  1  0.85460000  0.08890000  0.80910000  1.0 -0.0605907877
C  C62  1  0.94520000  0.07750000  0.79950000  1.0 -0.0805561847
C  C63  1  0.84610000  0.02510000  0.68190000  1.0 -0.0805561847
C  C64  1  0.93750000  0.02260000  0.67520000  1.0 -0.0805561847
C  C65  1  0.85330000  0.16930000  0.68590000  1.0 -0.0491887933
C  C66  1  0.94300000  0.17260000  0.70120000  1.0 -0.0805561847
C  C67  1  0.60170000  0.29140000  0.87000000  1.0 -0.0605907877
C  C68  1  0.60100000  0.28840000  0.96160000  1.0 -0.10686056
C  C69  1  0.50410000  0.19450000  0.85690000  1.0 -0.0605907877
C  C70  1  0.49730000  0.19740000  0.94750000  1.0 -0.1827499202
C  C71  1  0.64020000  0.14930000  0.86050000  1.0 -0.0214438519
C  C72  1  0.62980000  0.14030000  0.95130000  1.0 -0.2693439057
C  C73  1  0.49870000  0.94370000  0.72070000  1.0 -0.0805561847
C  C74  1  0.50760000  0.85400000  0.73940000  1.0 -0.0705046503
C  C75  1  0.59660000  0.94160000  0.62760000  1.0 -0.1390039216
C  C76  1  0.58790000  0.85090000  0.63490000  1.0 -0.0605907877
C  C77  1  0.63650000  0.94550000  0.77550000  1.0 -0.1296436225
C  C78  1  0.65270000  0.85770000  0.75770000  1.0 -0.0805561847
C  C79  1  0.86290000  0.15040000  0.78190000  1.0 -0.0605907877
C  C80  1  0.94980000  0.12330000  0.79380000  1.0 -0.0422690769
C  C81  1  0.85990000  0.01540000  0.73990000  1.0 -0.0605907877
C  C82  1  0.94790000  0.00670000  0.71490000  1.0 -0.0705046503
C  C83  1  0.85560000  0.11050000  0.64310000  1.0 -0.1390039216
C  C84  1  0.93960000  0.14260000  0.65120000  1.0 -0.0705046503
C  C85  1  0.26920000  0.86350000  0.64690000  1.0 -0.10128934
C  C86  1  0.27380000  0.95300000  0.62660000  1.0 -0.0705046503
C  C87  1  0.24190000  0.86020000  0.50680000  1.0 -0.0422690769
C  C88  1  0.21890000  0.94880000  0.49700000  1.0 -0.1827499202
C  C89  1  0.13370000  0.85860000  0.60760000  1.0 -0.0214438519
C  C90  1  0.13320000  0.94910000  0.61570000  1.0 -0.2645930629
C  C91  1  0.35730000  0.59100000  0.79680000  1.0 -0.1932551246
C  C92  1  0.44840000  0.60210000  0.79090000  1.0 -0.1675882023
C  C93  1  0.34740000  0.51260000  0.67810000  1.0 -0.2353573671
C  C94  1  0.43800000  0.50330000  0.69040000  1.0 -0.1296436225
C  C95  1  0.35140000  0.65820000  0.67040000  1.0 -0.2488125991
C  C96  1  0.43830000  0.64380000  0.65520000  1.0 -0.1675882023
C  C97  1  0.93410000  0.65540000  0.52770000  1.0 -0.0705046503
C  C98  1  0.84400000  0.66720000  0.52050000  1.0 -0.1170404684
C  C99  1  0.93770000  0.69350000  0.66570000  1.0 -0.0422690769
C  C100  1  0.84720000  0.68430000  0.66460000  1.0 -0.1170404684
C  C101  1  0.94070000  0.79250000  0.56160000  1.0 -0.10128934
C  C102  1  0.85040000  0.79950000  0.57530000  1.0 -0.0852827883
C  C103  1  0.08890000  0.80910000  0.85460000  1.0 -0.0605907877
C  C104  1  0.07750000  0.79950000  0.94520000  1.0 -0.0805561847
C  C105  1  0.02510000  0.68190000  0.84610000  1.0 -0.0805561847
C  C106  1  0.02260000  0.67520000  0.93750000  1.0 -0.0805561847
C  C107  1  0.16930000  0.68590000  0.85330000  1.0 -0.0491887933
C  C108  1  0.17260000  0.70120000  0.94300000  1.0 -0.0805561847
C  C109  1  0.29140000  0.87000000  0.60170000  1.0 -0.0605907877
C  C110  1  0.28840000  0.96160000  0.60100000  1.0 -0.10686056
C  C111  1  0.19450000  0.85690000  0.50410000  1.0 -0.0605907877
C  C112  1  0.19740000  0.94750000  0.49730000  1.0 -0.1827499202
C  C113  1  0.14930000  0.86050000  0.64020000  1.0 -0.0214438519
C  C114  1  0.14030000  0.95130000  0.62980000  1.0 -0.2693439057
C  C115  1  0.94370000  0.72070000  0.49870000  1.0 -0.0805561847
C  C116  1  0.85400000  0.73940000  0.50760000  1.0 -0.0705046503
C  C117  1  0.94160000  0.62760000  0.59660000  1.0 -0.1390039216
C  C118  1  0.85090000  0.63490000  0.58790000  1.0 -0.0605907877
C  C119  1  0.94550000  0.77550000  0.63650000  1.0 -0.1296436225
C  C120  1  0.85770000  0.75770000  0.65270000  1.0 -0.0805561847
C  C121  1  0.15040000  0.78190000  0.86290000  1.0 -0.0605907877
C  C122  1  0.12330000  0.79380000  0.94980000  1.0 -0.0422690769
C  C123  1  0.01540000  0.73990000  0.85990000  1.0 -0.0605907877
C  C124  1  0.00670000  0.71490000  0.94790000  1.0 -0.0705046503
C  C125  1  0.11050000  0.64310000  0.85560000  1.0 -0.1296436225
C  C126  1  0.14260000  0.65120000  0.93960000  1.0 -0.0705046503
C  C127  1  0.36350000  0.76920000  0.14690000  1.0 -0.10128934
C  C128  1  0.45300000  0.77380000  0.12660000  1.0 -0.0705046503
C  C129  1  0.36020000  0.74190000  0.00680000  1.0 -0.0422690769
C  C130  1  0.44880000  0.71890000  0.99700000  1.0 -0.1827499202
C  C131  1  0.35860000  0.63370000  0.10760000  1.0 -0.0214438519
C  C132  1  0.44910000  0.63320000  0.11570000  1.0 -0.2645930629
C  C133  1  0.09100000  0.85730000  0.29680000  1.0 -0.1932551246
C  C134  1  0.10210000  0.94840000  0.29090000  1.0 -0.1675882023
C  C135  1  0.01260000  0.84740000  0.17810000  1.0 -0.2353573671
C  C136  1  0.00330000  0.93800000  0.19040000  1.0 -0.1296436225
C  C137  1  0.15820000  0.85140000  0.17040000  1.0 -0.2488125991
C  C138  1  0.14380000  0.93830000  0.15520000  1.0 -0.1675882023
C  C139  1  0.15540000  0.43410000  0.02770000  1.0 -0.0705046503
C  C140  1  0.16720000  0.34400000  0.02050000  1.0 -0.1170404684
C  C141  1  0.19350000  0.43770000  0.16570000  1.0 -0.0422690769
C  C142  1  0.18430000  0.34720000  0.16460000  1.0 -0.1170404684
C  C143  1  0.29250000  0.44070000  0.06160000  1.0 -0.10128934
C  C144  1  0.29950000  0.35040000  0.07530000  1.0 -0.0852827883
C  C145  1  0.30910000  0.58890000  0.35460000  1.0 -0.0605907877
C  C146  1  0.29950000  0.57750000  0.44520000  1.0 -0.0805561847
C  C147  1  0.18190000  0.52510000  0.34610000  1.0 -0.0805561847
C  C148  1  0.17520000  0.52260000  0.43750000  1.0 -0.0805561847
C  C149  1  0.18590000  0.66930000  0.35330000  1.0 -0.0491887933
C  C150  1  0.20120000  0.67260000  0.44300000  1.0 -0.0805561847
C  C151  1  0.37000000  0.79140000  0.10170000  1.0 -0.0605907877
C  C152  1  0.46160000  0.78840000  0.10100000  1.0 -0.10686056
C  C153  1  0.35690000  0.69450000  0.00410000  1.0 -0.0605907877
C  C154  1  0.44750000  0.69740000  0.99730000  1.0 -0.1827499202
C  C155  1  0.36050000  0.64930000  0.14020000  1.0 -0.0214438519
C  C156  1  0.45130000  0.64030000  0.12980000  1.0 -0.2693439057
C  C157  1  0.22070000  0.44370000  0.99870000  1.0 -0.0805561847
C  C158  1  0.23940000  0.35400000  0.00760000  1.0 -0.0705046503
C  C159  1  0.12760000  0.44160000  0.09660000  1.0 -0.1390039216
C  C160  1  0.13490000  0.35090000  0.08790000  1.0 -0.0605907877
C  C161  1  0.27550000  0.44550000  0.13650000  1.0 -0.1296436225
C  C162  1  0.25770000  0.35770000  0.15270000  1.0 -0.0805561847
C  C163  1  0.28190000  0.65040000  0.36290000  1.0 -0.0605907877
C  C164  1  0.29380000  0.62330000  0.44980000  1.0 -0.0422690769
C  C165  1  0.23990000  0.51540000  0.35990000  1.0 -0.0605907877
C  C166  1  0.21490000  0.50670000  0.44790000  1.0 -0.0705046503
C  C167  1  0.14310000  0.61050000  0.35560000  1.0 -0.1390039216
C  C168  1  0.15120000  0.64260000  0.43960000  1.0 -0.0705046503
C  C169  1  0.14690000  0.36350000  0.76920000  1.0 -0.10128934
C  C170  1  0.12660000  0.45300000  0.77380000  1.0 -0.0705046503
C  C171  1  0.00680000  0.36020000  0.74190000  1.0 -0.0422690769
C  C172  1  0.99700000  0.44880000  0.71890000  1.0 -0.1827499202
C  C173  1  0.10760000  0.35860000  0.63370000  1.0 -0.0214438519
C  C174  1  0.11570000  0.44910000  0.63320000  1.0 -0.2645930629
C  C175  1  0.29680000  0.09100000  0.85730000  1.0 -0.1932551246
C  C176  1  0.29090000  0.10210000  0.94840000  1.0 -0.1675882023
C  C177  1  0.17810000  0.01260000  0.84740000  1.0 -0.2353573671
C  C178  1  0.19040000  0.00330000  0.93800000  1.0 -0.1296436225
C  C179  1  0.17040000  0.15820000  0.85140000  1.0 -0.2488125991
C  C180  1  0.15520000  0.14380000  0.93830000  1.0 -0.1675882023
C  C181  1  0.02770000  0.15540000  0.43410000  1.0 -0.0705046503
C  C182  1  0.02050000  0.16720000  0.34400000  1.0 -0.1170404684
C  C183  1  0.16570000  0.19350000  0.43770000  1.0 -0.0422690769
C  C184  1  0.16460000  0.18430000  0.34720000  1.0 -0.1170404684
C  C185  1  0.06160000  0.29250000  0.44070000  1.0 -0.10128934
C  C186  1  0.07530000  0.29950000  0.35040000  1.0 -0.0852827883
C  C187  1  0.35460000  0.30910000  0.58890000  1.0 -0.0605907877
C  C188  1  0.44520000  0.29950000  0.57750000  1.0 -0.0805561847
C  C189  1  0.34610000  0.18190000  0.52510000  1.0 -0.0805561847
C  C190  1  0.43750000  0.17520000  0.52260000  1.0 -0.0805561847
C  C191  1  0.35330000  0.18590000  0.66930000  1.0 -0.0491887933
C  C192  1  0.44300000  0.20120000  0.67260000  1.0 -0.0805561847
C  C193  1  0.10170000  0.37000000  0.79140000  1.0 -0.0605907877
C  C194  1  0.10100000  0.46160000  0.78840000  1.0 -0.10686056
C  C195  1  0.00410000  0.35690000  0.69450000  1.0 -0.0605907877
C  C196  1  0.99730000  0.44750000  0.69740000  1.0 -0.1827499202
C  C197  1  0.14020000  0.36050000  0.64930000  1.0 -0.0214438519
C  C198  1  0.12980000  0.45130000  0.64030000  1.0 -0.2693439057
C  C199  1  0.99870000  0.22070000  0.44370000  1.0 -0.0805561847
C  C200  1  0.00760000  0.23940000  0.35400000  1.0 -0.0705046503
C  C201  1  0.09660000  0.12760000  0.44160000  1.0 -0.1390039216
C  C202  1  0.08790000  0.13490000  0.35090000  1.0 -0.0605907877
C  C203  1  0.13650000  0.27550000  0.44550000  1.0 -0.1296436225
C  C204  1  0.15270000  0.25770000  0.35770000  1.0 -0.0805561847
C  C205  1  0.36290000  0.28190000  0.65040000  1.0 -0.0605907877
C  C206  1  0.44980000  0.29380000  0.62330000  1.0 -0.0422690769
C  C207  1  0.35990000  0.23990000  0.51540000  1.0 -0.0605907877
C  C208  1  0.44790000  0.21490000  0.50670000  1.0 -0.0705046503
C  C209  1  0.35560000  0.14310000  0.61050000  1.0 -0.1390039216
C  C210  1  0.43960000  0.15120000  0.64260000  1.0 -0.0705046503
C  C211  1  0.76920000  0.14690000  0.36350000  1.0 -0.10128934
C  C212  1  0.77380000  0.12660000  0.45300000  1.0 -0.0705046503
C  C213  1  0.74190000  0.00680000  0.36020000  1.0 -0.0422690769
C  C214  1  0.71890000  0.99700000  0.44880000  1.0 -0.1827499202
C  C215  1  0.63370000  0.10760000  0.35860000  1.0 -0.0214438519
C  C216  1  0.63320000  0.11570000  0.44910000  1.0 -0.2645930629
C  C217  1  0.85730000  0.29680000  0.09100000  1.0 -0.1932551246
C  C218  1  0.94840000  0.29090000  0.10210000  1.0 -0.1675882023
C  C219  1  0.84740000  0.17810000  0.01260000  1.0 -0.2345416179
C  C220  1  0.93800000  0.19040000  0.00330000  1.0 -0.1296436225
C  C221  1  0.85140000  0.17040000  0.15820000  1.0 -0.2488125991
C  C222  1  0.93830000  0.15520000  0.14380000  1.0 -0.1675882023
C  C223  1  0.43410000  0.02770000  0.15540000  1.0 -0.0705046503
C  C224  1  0.34400000  0.02050000  0.16720000  1.0 -0.1170404684
C  C225  1  0.43770000  0.16570000  0.19350000  1.0 -0.0422690769
C  C226  1  0.34720000  0.16460000  0.18430000  1.0 -0.1170404684
C  C227  1  0.44070000  0.06160000  0.29250000  1.0 -0.10128934
C  C228  1  0.35040000  0.07530000  0.29950000  1.0 -0.0852827883
C  C229  1  0.58890000  0.35460000  0.30910000  1.0 -0.0605907877
C  C230  1  0.57750000  0.44520000  0.29950000  1.0 -0.0805561847
C  C231  1  0.52510000  0.34610000  0.18190000  1.0 -0.0805561847
C  C232  1  0.52260000  0.43750000  0.17520000  1.0 -0.0805561847
C  C233  1  0.66930000  0.35330000  0.18590000  1.0 -0.0491887933
C  C234  1  0.67260000  0.44300000  0.20120000  1.0 -0.0805561847
C  C235  1  0.79140000  0.10170000  0.37000000  1.0 -0.0605907877
C  C236  1  0.78840000  0.10100000  0.46160000  1.0 -0.10686056
C  C237  1  0.69450000  0.00410000  0.35690000  1.0 -0.0605907877
C  C238  1  0.69740000  0.99730000  0.44750000  1.0 -0.1827499202
C  C239  1  0.64930000  0.14020000  0.36050000  1.0 -0.0214438519
C  C240  1  0.64030000  0.12980000  0.45130000  1.0 -0.2693439057
C  C241  1  0.44370000  0.99870000  0.22070000  1.0 -0.0805561847
C  C242  1  0.35400000  0.00760000  0.23940000  1.0 -0.0705046503
C  C243  1  0.44160000  0.09660000  0.12760000  1.0 -0.1390039216
C  C244  1  0.35090000  0.08790000  0.13490000  1.0 -0.0605907877
C  C245  1  0.44550000  0.13650000  0.27550000  1.0 -0.1296436225
C  C246  1  0.35770000  0.15270000  0.25770000  1.0 -0.0805561847
C  C247  1  0.65040000  0.36290000  0.28190000  1.0 -0.0605907877
C  C248  1  0.62330000  0.44980000  0.29380000  1.0 -0.0422690769
C  C249  1  0.51540000  0.35990000  0.23990000  1.0 -0.0605907877
C  C250  1  0.50670000  0.44790000  0.21490000  1.0 -0.0705046503
C  C251  1  0.61050000  0.35560000  0.14310000  1.0 -0.1390039216
C  C252  1  0.64260000  0.43960000  0.15120000  1.0 -0.0705046503
N  N1  1  0.83080000  0.58700000  0.21540000  1.0 0.0797399133
N  N2  1  0.98270000  0.57740000  0.20570000  1.0 0.1971213762
N  N3  1  0.58820000  0.71750000  0.31880000  1.0 0.2239652642
N  N4  1  0.58070000  0.70590000  0.46990000  1.0 0.2728879371
N  N5  1  0.71000000  0.58300000  0.97000000  1.0 0.1003883912
N  N6  1  0.71800000  0.58750000  0.81800000  1.0 0.1783607025
N  N7  1  0.72670000  0.82360000  0.09670000  1.0 0.0711731882
N  N8  1  0.71500000  0.97400000  0.09000000  1.0 0.0711731882
N  N9  1  0.58700000  0.21540000  0.83080000  1.0 0.0797399133
N  N10  1  0.57740000  0.20570000  0.98270000  1.0 0.1971213762
N  N11  1  0.71750000  0.31880000  0.58820000  1.0 0.2239652642
N  N12  1  0.70590000  0.46990000  0.58070000  1.0 0.2728879371
N  N13  1  0.58300000  0.97000000  0.71000000  1.0 0.1003883912
N  N14  1  0.58750000  0.81800000  0.71800000  1.0 0.1783607025
N  N15  1  0.82360000  0.09670000  0.72670000  1.0 0.0711731882
N  N16  1  0.97400000  0.09000000  0.71500000  1.0 0.0711731882
N  N17  1  0.21540000  0.83080000  0.58700000  1.0 0.0797399133
N  N18  1  0.20570000  0.98270000  0.57740000  1.0 0.1971213762
N  N19  1  0.31880000  0.58820000  0.71750000  1.0 0.2239652642
N  N20  1  0.46990000  0.58070000  0.70590000  1.0 0.2728879371
N  N21  1  0.97000000  0.71000000  0.58300000  1.0 0.1003883912
N  N22  1  0.81800000  0.71800000  0.58750000  1.0 0.1783607025
N  N23  1  0.09670000  0.72670000  0.82360000  1.0 0.0618293318
N  N24  1  0.09000000  0.71500000  0.97400000  1.0 0.0711731882
N  N25  1  0.33080000  0.71540000  0.08700000  1.0 0.0797399133
N  N26  1  0.48270000  0.70570000  0.07740000  1.0 0.1971213762
N  N27  1  0.08820000  0.81880000  0.21750000  1.0 0.2239652642
N  N28  1  0.08070000  0.96990000  0.20590000  1.0 0.2728879371
N  N29  1  0.21000000  0.47000000  0.08300000  1.0 0.1003883912
N  N30  1  0.21800000  0.31800000  0.08750000  1.0 0.1783607025
N  N31  1  0.22670000  0.59670000  0.32360000  1.0 0.0618293318
N  N32  1  0.21500000  0.59000000  0.47400000  1.0 0.0711731882
N  N33  1  0.08700000  0.33080000  0.71540000  1.0 0.0797399133
N  N34  1  0.07740000  0.48270000  0.70570000  1.0 0.1971213762
N  N35  1  0.21750000  0.08820000  0.81880000  1.0 0.2239652642
N  N36  1  0.20590000  0.08070000  0.96990000  1.0 0.2728879371
N  N37  1  0.08300000  0.21000000  0.47000000  1.0 0.1003883912
N  N38  1  0.08750000  0.21800000  0.31800000  1.0 0.1783607025
N  N39  1  0.32360000  0.22670000  0.59670000  1.0 0.0711731882
N  N40  1  0.47400000  0.21500000  0.59000000  1.0 0.0711731882
N  N41  1  0.71540000  0.08700000  0.33080000  1.0 0.0797399133
N  N42  1  0.70570000  0.07740000  0.48270000  1.0 0.1971213762
N  N43  1  0.81880000  0.21750000  0.08820000  1.0 0.2239652642
N  N44  1  0.96990000  0.20590000  0.08070000  1.0 0.2728879371
N  N45  1  0.47000000  0.08300000  0.21000000  1.0 0.1003883912
N  N46  1  0.31800000  0.08750000  0.21800000  1.0 0.1783607025
N  N47  1  0.59670000  0.32360000  0.22670000  1.0 0.0711731882
N  N48  1  0.59000000  0.47400000  0.21500000  1.0 0.0711731882
N  N49  1  0.45150000  0.95800000  0.47710000  1.0 0.1436130274
N  N50  1  0.95800000  0.47710000  0.45150000  1.0 0.1436130274
N  N51  1  0.47710000  0.45150000  0.95800000  1.0 0.1436130274
N  N52  1  0.95150000  0.97710000  0.45800000  1.0 0.1436130274
N  N53  1  0.45800000  0.95150000  0.97710000  1.0 0.1436130274
N  N54  1  0.97710000  0.45800000  0.95150000  1.0 0.1436130274
O  O1  1  0.74990000  0.59170000  0.21840000  1.0 -0.5023159714
O  O2  1  0.06580000  0.56840000  0.20090000  1.0 -0.4695058347
O  O3  1  0.59320000  0.72200000  0.23880000  1.0 -0.4532149366
O  O4  1  0.57210000  0.70090000  0.55280000  1.0 -0.5187912465
O  O5  1  0.70730000  0.57260000  0.05300000  1.0 -0.4901197335
O  O6  1  0.71940000  0.58970000  0.73730000  1.0 -0.5187912465
O  O7  1  0.73120000  0.74290000  0.10150000  1.0 -0.4901197335
O  O8  1  0.71280000  0.05790000  0.08270000  1.0 -0.4901197335
O  O9  1  0.59170000  0.21840000  0.74990000  1.0 -0.5023159714
O  O10  1  0.56840000  0.20090000  0.06580000  1.0 -0.4695058347
O  O11  1  0.72200000  0.23880000  0.59320000  1.0 -0.4532149366
O  O12  1  0.70090000  0.55280000  0.57210000  1.0 -0.5187912465
O  O13  1  0.57260000  0.05300000  0.70730000  1.0 -0.4901197335
O  O14  1  0.58970000  0.73730000  0.71940000  1.0 -0.5187912465
O  O15  1  0.74290000  0.10150000  0.73120000  1.0 -0.4901197335
O  O16  1  0.05790000  0.08270000  0.71280000  1.0 -0.4901197335
O  O17  1  0.21840000  0.74990000  0.59170000  1.0 -0.5023159714
O  O18  1  0.20090000  0.06580000  0.56840000  1.0 -0.4695058347
O  O19  1  0.23880000  0.59320000  0.72200000  1.0 -0.4532149366
O  O20  1  0.55280000  0.57210000  0.70090000  1.0 -0.5187912465
O  O21  1  0.05300000  0.70730000  0.57260000  1.0 -0.4901197335
O  O22  1  0.73730000  0.71940000  0.58970000  1.0 -0.5187912465
O  O23  1  0.10150000  0.73120000  0.74290000  1.0 -0.4901197335
O  O24  1  0.08270000  0.71280000  0.05790000  1.0 -0.4901197335
O  O25  1  0.24990000  0.71840000  0.09170000  1.0 -0.5023159714
O  O26  1  0.56580000  0.70090000  0.06840000  1.0 -0.4695058347
O  O27  1  0.09320000  0.73880000  0.22200000  1.0 -0.4532149366
O  O28  1  0.07210000  0.05280000  0.20090000  1.0 -0.5187912465
O  O29  1  0.20730000  0.55300000  0.07260000  1.0 -0.4901197335
O  O30  1  0.21940000  0.23730000  0.08970000  1.0 -0.5187912465
O  O31  1  0.23120000  0.60150000  0.24290000  1.0 -0.4901197335
O  O32  1  0.21280000  0.58270000  0.55790000  1.0 -0.4901197335
O  O33  1  0.09170000  0.24990000  0.71840000  1.0 -0.5023159714
O  O34  1  0.06840000  0.56580000  0.70090000  1.0 -0.4695058347
O  O35  1  0.22200000  0.09320000  0.73880000  1.0 -0.4532149366
O  O36  1  0.20090000  0.07210000  0.05280000  1.0 -0.5187912465
O  O37  1  0.07260000  0.20730000  0.55300000  1.0 -0.4901197335
O  O38  1  0.08970000  0.21940000  0.23730000  1.0 -0.5187912465
O  O39  1  0.24290000  0.23120000  0.60150000  1.0 -0.4901197335
O  O40  1  0.55790000  0.21280000  0.58270000  1.0 -0.4901197335
O  O41  1  0.71840000  0.09170000  0.24990000  1.0 -0.5023159714
O  O42  1  0.70090000  0.06840000  0.56580000  1.0 -0.4695058347
O  O43  1  0.73880000  0.22200000  0.09320000  1.0 -0.4532149366
O  O44  1  0.05280000  0.20090000  0.07210000  1.0 -0.5187912465
O  O45  1  0.55300000  0.07260000  0.20730000  1.0 -0.4901197335
O  O46  1  0.23730000  0.08970000  0.21940000  1.0 -0.5187912465
O  O47  1  0.60150000  0.24290000  0.23120000  1.0 -0.4901197335
O  O48  1  0.58270000  0.55790000  0.21280000  1.0 -0.4901197335
O  O49  1  0.51860000  0.95950000  0.44180000  1.0 -0.4567844054
O  O50  1  0.40160000  0.01210000  0.46330000  1.0 -0.4178565474
O  O51  1  0.42910000  0.89340000  0.50830000  1.0 -0.4365156523
O  O52  1  0.95950000  0.44180000  0.51860000  1.0 -0.4567844054
O  O53  1  0.01210000  0.46330000  0.40160000  1.0 -0.4178565474
O  O54  1  0.89340000  0.50830000  0.42910000  1.0 -0.4365156523
O  O55  1  0.44180000  0.51860000  0.95950000  1.0 -0.4567844054
O  O56  1  0.46330000  0.40160000  0.01210000  1.0 -0.4178565474
O  O57  1  0.50830000  0.42910000  0.89340000  1.0 -0.4365156523
O  O58  1  0.01860000  0.94180000  0.45950000  1.0 -0.4567844054
O  O59  1  0.90160000  0.96330000  0.51210000  1.0 -0.4178565474
O  O60  1  0.92910000  0.00830000  0.39340000  1.0 -0.4365156523
O  O61  1  0.45950000  0.01860000  0.94180000  1.0 -0.4567844054
O  O62  1  0.51210000  0.90160000  0.96330000  1.0 -0.4178565474
O  O63  1  0.39340000  0.92910000  0.00830000  1.0 -0.4365156523
O  O64  1  0.94180000  0.45950000  0.01860000  1.0 -0.4567844054
O  O65  1  0.96330000  0.51210000  0.90160000  1.0 -0.4178565474
O  O66  1  0.00830000  0.39340000  0.92910000  1.0 -0.4365156523
