# DDEC6 charges by PACMAN v1.1 (https://github.com/mtap-research/PACMAN-charge/)
data_BAJGOM_ASR_pacman
_symmetry_space_group_name_H-M   'P 1'
_cell_length_a   21.37860000
_cell_length_b   21.37860000
_cell_length_c   21.37860000
_cell_angle_alpha   54.13440000
_cell_angle_beta   54.13440000
_cell_angle_gamma   54.13440000
_symmetry_Int_Tables_number   1
_chemical_formula_structural   NaZrH7C15O8
_chemical_formula_sum   'Na12 Zr12 H84 C180 O96'
_cell_volume   5963.00112113
_cell_formula_units_Z   12
loop_
 _symmetry_equiv_pos_site_id
 _symmetry_equiv_pos_as_xyz
  1  'x, y, z'
loop_
 _atom_site_type_symbol
 _atom_site_label
 _atom_site_symmetry_multiplicity
 _atom_site_fract_x
 _atom_site_fract_y
 _atom_site_fract_z
 _atom_site_occupancy
 _atom_site_charge
Na  Na1  1  0.87357000  0.87357000  0.87357000  1.0 0.4508321969
Na  Na2  1  0.94227000  0.94227000  0.94227000  1.0 0.8975618569
Na  Na3  1  0.88657000  0.88657000  0.88657000  1.0 0.3201386122
Na  Na4  1  0.62643000  0.62643000  0.62643000  1.0 0.4446457414
Na  Na5  1  0.55773000  0.55773000  0.55773000  1.0 0.8975618569
Na  Na6  1  0.61343000  0.61343000  0.61343000  1.0 0.3201386122
Na  Na7  1  0.12643000  0.12643000  0.12643000  1.0 0.4508321969
Na  Na8  1  0.05773000  0.05773000  0.05773000  1.0 0.8975618569
Na  Na9  1  0.11343000  0.11343000  0.11343000  1.0 0.3149130432
Na  Na10  1  0.37357000  0.37357000  0.37357000  1.0 0.4508321969
Na  Na11  1  0.44227000  0.44227000  0.44227000  1.0 0.8975618569
Na  Na12  1  0.38657000  0.38657000  0.38657000  1.0 0.3201386122
Zr  Zr1  1  0.77088000  0.71549000  0.05090000  1.0 2.164581238
Zr  Zr2  1  0.05090000  0.77088000  0.71549000  1.0 2.164581238
Zr  Zr3  1  0.71549000  0.05090000  0.77088000  1.0 2.164581238
Zr  Zr4  1  0.78451000  0.72912000  0.44910000  1.0 2.164581238
Zr  Zr5  1  0.72912000  0.44910000  0.78451000  1.0 2.164581238
Zr  Zr6  1  0.44910000  0.78451000  0.72912000  1.0 2.164581238
Zr  Zr7  1  0.22912000  0.28451000  0.94910000  1.0 2.164581238
Zr  Zr8  1  0.94910000  0.22912000  0.28451000  1.0 2.164581238
Zr  Zr9  1  0.28451000  0.94910000  0.22912000  1.0 2.164581238
Zr  Zr10  1  0.21549000  0.27088000  0.55090000  1.0 2.164581238
Zr  Zr11  1  0.27088000  0.55090000  0.21549000  1.0 2.164581238
Zr  Zr12  1  0.55090000  0.21549000  0.27088000  1.0 2.164581238
H  H1  1  0.83412000  0.82404000  0.18019000  1.0 0.1526972628
H  H2  1  0.92749000  0.44550000  0.14182000  1.0 0.1526972628
H  H3  1  0.50291000  0.72849000  0.13254000  1.0 0.1092919665
H  H4  1  0.39532000  0.75116000  0.11197000  1.0 0.1229064068
H  H5  1  0.43062000  0.70689000  0.01276000  1.0 0.0967541847
H  H6  1  0.57038000  0.65244000  0.93282000  1.0 0.1092919665
H  H7  1  0.67388000  0.63857000  0.95282000  1.0 0.1304626962
H  H8  1  0.18019000  0.83412000  0.82404000  1.0 0.1526972628
H  H9  1  0.14182000  0.92749000  0.44550000  1.0 0.1526972628
H  H10  1  0.13254000  0.50291000  0.72849000  1.0 0.1092919665
H  H11  1  0.11197000  0.39532000  0.75116000  1.0 0.1229064068
H  H12  1  0.01276000  0.43062000  0.70689000  1.0 0.0967541847
H  H13  1  0.93282000  0.57038000  0.65244000  1.0 0.1092919665
H  H14  1  0.95282000  0.67388000  0.63857000  1.0 0.1304626962
H  H15  1  0.82404000  0.18019000  0.83412000  1.0 0.1526972628
H  H16  1  0.44550000  0.14182000  0.92749000  1.0 0.1526972628
H  H17  1  0.72849000  0.13254000  0.50291000  1.0 0.1092919665
H  H18  1  0.75116000  0.11197000  0.39532000  1.0 0.1229064068
H  H19  1  0.70689000  0.01276000  0.43062000  1.0 0.0967541847
H  H20  1  0.65244000  0.93282000  0.57038000  1.0 0.1092919665
H  H21  1  0.63857000  0.95282000  0.67388000  1.0 0.1304626962
H  H22  1  0.67596000  0.66588000  0.31981000  1.0 0.1526972628
H  H23  1  0.05450000  0.57251000  0.35818000  1.0 0.1526972628
H  H24  1  0.77151000  0.99709000  0.36746000  1.0 0.1092919665
H  H25  1  0.74884000  0.10468000  0.38803000  1.0 0.1229064068
H  H26  1  0.79311000  0.06938000  0.48724000  1.0 0.0967541847
H  H27  1  0.84756000  0.92962000  0.56718000  1.0 0.1092919665
H  H28  1  0.86143000  0.82612000  0.54718000  1.0 0.1304626962
H  H29  1  0.66588000  0.31981000  0.67596000  1.0 0.1526972628
H  H30  1  0.57251000  0.35818000  0.05450000  1.0 0.1526972628
H  H31  1  0.99709000  0.36746000  0.77151000  1.0 0.1092919665
H  H32  1  0.10468000  0.38803000  0.74884000  1.0 0.1229064068
H  H33  1  0.06938000  0.48724000  0.79311000  1.0 0.0967541847
H  H34  1  0.92962000  0.56718000  0.84756000  1.0 0.1092919665
H  H35  1  0.82612000  0.54718000  0.86143000  1.0 0.1304626962
H  H36  1  0.31981000  0.67596000  0.66588000  1.0 0.1526972628
H  H37  1  0.35818000  0.05450000  0.57251000  1.0 0.1526972628
H  H38  1  0.36746000  0.77151000  0.99709000  1.0 0.1092919665
H  H39  1  0.38803000  0.74884000  0.10468000  1.0 0.1229064068
H  H40  1  0.48724000  0.79311000  0.06938000  1.0 0.0967541847
H  H41  1  0.56718000  0.84756000  0.92962000  1.0 0.1092919665
H  H42  1  0.54718000  0.86143000  0.82612000  1.0 0.1304626962
H  H43  1  0.16588000  0.17596000  0.81981000  1.0 0.1526972628
H  H44  1  0.07251000  0.55450000  0.85818000  1.0 0.1526972628
H  H45  1  0.49709000  0.27151000  0.86746000  1.0 0.1092919665
H  H46  1  0.60468000  0.24884000  0.88803000  1.0 0.1229064068
H  H47  1  0.56938000  0.29311000  0.98724000  1.0 0.0967541847
H  H48  1  0.42962000  0.34756000  0.06718000  1.0 0.1092919665
H  H49  1  0.32612000  0.36143000  0.04718000  1.0 0.1304626962
H  H50  1  0.81981000  0.16588000  0.17596000  1.0 0.1526972628
H  H51  1  0.85818000  0.07251000  0.55450000  1.0 0.1526972628
H  H52  1  0.86746000  0.49709000  0.27151000  1.0 0.1092919665
H  H53  1  0.88803000  0.60468000  0.24884000  1.0 0.1229064068
H  H54  1  0.98724000  0.56938000  0.29311000  1.0 0.0967541847
H  H55  1  0.06718000  0.42962000  0.34756000  1.0 0.1092919665
H  H56  1  0.04718000  0.32612000  0.36143000  1.0 0.1304626962
H  H57  1  0.17596000  0.81981000  0.16588000  1.0 0.1526972628
H  H58  1  0.55450000  0.85818000  0.07251000  1.0 0.1526972628
H  H59  1  0.27151000  0.86746000  0.49709000  1.0 0.1092919665
H  H60  1  0.24884000  0.88803000  0.60468000  1.0 0.1229064068
H  H61  1  0.29311000  0.98724000  0.56938000  1.0 0.0967541847
H  H62  1  0.34756000  0.06718000  0.42962000  1.0 0.1092919665
H  H63  1  0.36143000  0.04718000  0.32612000  1.0 0.1304626962
H  H64  1  0.32404000  0.33412000  0.68019000  1.0 0.1526972628
H  H65  1  0.94550000  0.42749000  0.64182000  1.0 0.1526972628
H  H66  1  0.22849000  0.00291000  0.63254000  1.0 0.1092919665
H  H67  1  0.25116000  0.89532000  0.61197000  1.0 0.1229064068
H  H68  1  0.20689000  0.93062000  0.51276000  1.0 0.0967541847
H  H69  1  0.15244000  0.07038000  0.43282000  1.0 0.1092919665
H  H70  1  0.13857000  0.17388000  0.45282000  1.0 0.1304626962
H  H71  1  0.33412000  0.68019000  0.32404000  1.0 0.1526972628
H  H72  1  0.42749000  0.64182000  0.94550000  1.0 0.1526972628
H  H73  1  0.00291000  0.63254000  0.22849000  1.0 0.1092919665
H  H74  1  0.89532000  0.61197000  0.25116000  1.0 0.1229064068
H  H75  1  0.93062000  0.51276000  0.20689000  1.0 0.0967541847
H  H76  1  0.07038000  0.43282000  0.15244000  1.0 0.1092919665
H  H77  1  0.17388000  0.45282000  0.13857000  1.0 0.1304626962
H  H78  1  0.68019000  0.32404000  0.33412000  1.0 0.1526972628
H  H79  1  0.64182000  0.94550000  0.42749000  1.0 0.1526972628
H  H80  1  0.63254000  0.22849000  0.00291000  1.0 0.1092919665
H  H81  1  0.61197000  0.25116000  0.89532000  1.0 0.1229064068
H  H82  1  0.51276000  0.20689000  0.93062000  1.0 0.0967541847
H  H83  1  0.43282000  0.15244000  0.07038000  1.0 0.1092919665
H  H84  1  0.45282000  0.13857000  0.17388000  1.0 0.1304626962
C  C1  1  0.73997000  0.72927000  0.20567000  1.0 0.2844542576
C  C2  1  0.78854000  0.77604000  0.16334000  1.0 -0.1322123532
C  C3  1  0.82486000  0.81386000  0.07006000  1.0 0.6462128846
C  C4  1  0.80216000  0.79116000  0.20906000  1.0 -0.2081247754
C  C5  1  0.92471000  0.55291000  0.03991000  1.0 0.3252300166
C  C6  1  0.95707000  0.46787000  0.08407000  1.0 -0.1935678347
C  C7  1  0.03056000  0.41606000  0.04586000  1.0 -0.1386533161
C  C8  1  0.05901000  0.32621000  0.09751000  1.0 0.6689187177
C  C9  1  0.67599000  0.67299000  0.05269000  1.0 0.5568461456
C  C10  1  0.60140000  0.68960000  0.04020000  1.0 -0.0066673401
C  C11  1  0.51700000  0.71640000  0.08850000  1.0 -0.1148238338
C  C12  1  0.45155000  0.72753000  0.07960000  1.0 -0.0882536594
C  C13  1  0.47282000  0.70214000  0.02061000  1.0 0.0150789576
C  C14  1  0.55584000  0.66979000  0.97312000  1.0 -0.1386533161
C  C15  1  0.61759000  0.66284000  0.98461000  1.0 -0.1220453156
C  C16  1  0.20567000  0.73997000  0.72927000  1.0 0.2844542576
C  C17  1  0.16334000  0.78854000  0.77604000  1.0 -0.1322123532
C  C18  1  0.07006000  0.82486000  0.81386000  1.0 0.6462128846
C  C19  1  0.20906000  0.80216000  0.79116000  1.0 -0.2081247754
C  C20  1  0.03991000  0.92471000  0.55291000  1.0 0.3252300166
C  C21  1  0.08407000  0.95707000  0.46787000  1.0 -0.1935678347
C  C22  1  0.04586000  0.03056000  0.41606000  1.0 -0.1386533161
C  C23  1  0.09751000  0.05901000  0.32621000  1.0 0.6689187177
C  C24  1  0.05269000  0.67599000  0.67299000  1.0 0.5568461456
C  C25  1  0.04020000  0.60140000  0.68960000  1.0 -0.0066673401
C  C26  1  0.08850000  0.51700000  0.71640000  1.0 -0.1148238338
C  C27  1  0.07960000  0.45155000  0.72753000  1.0 -0.0882536594
C  C28  1  0.02061000  0.47282000  0.70214000  1.0 0.0150789576
C  C29  1  0.97312000  0.55584000  0.66979000  1.0 -0.1386533161
C  C30  1  0.98461000  0.61759000  0.66284000  1.0 -0.1220453156
C  C31  1  0.72927000  0.20567000  0.73997000  1.0 0.2844542576
C  C32  1  0.77604000  0.16334000  0.78854000  1.0 -0.1322123532
C  C33  1  0.81386000  0.07006000  0.82486000  1.0 0.6462128846
C  C34  1  0.79116000  0.20906000  0.80216000  1.0 -0.2081247754
C  C35  1  0.55291000  0.03991000  0.92471000  1.0 0.3252300166
C  C36  1  0.46787000  0.08407000  0.95707000  1.0 -0.1935678347
C  C37  1  0.41606000  0.04586000  0.03056000  1.0 -0.1386533161
C  C38  1  0.32621000  0.09751000  0.05901000  1.0 0.6689187177
C  C39  1  0.67299000  0.05269000  0.67599000  1.0 0.5568461456
C  C40  1  0.68960000  0.04020000  0.60140000  1.0 -0.0066673401
C  C41  1  0.71640000  0.08850000  0.51700000  1.0 -0.1148238338
C  C42  1  0.72753000  0.07960000  0.45155000  1.0 -0.0882536594
C  C43  1  0.70214000  0.02061000  0.47282000  1.0 0.0150789576
C  C44  1  0.66979000  0.97312000  0.55584000  1.0 -0.1386533161
C  C45  1  0.66284000  0.98461000  0.61759000  1.0 -0.1220453156
C  C46  1  0.77073000  0.76003000  0.29433000  1.0 0.2844542576
C  C47  1  0.72396000  0.71146000  0.33666000  1.0 -0.1322123532
C  C48  1  0.68614000  0.67514000  0.42994000  1.0 0.6462128846
C  C49  1  0.70884000  0.69784000  0.29094000  1.0 -0.2081247754
C  C50  1  0.94709000  0.57529000  0.46009000  1.0 0.3252300166
C  C51  1  0.03213000  0.54293000  0.41593000  1.0 -0.1935678347
C  C52  1  0.08394000  0.46944000  0.45414000  1.0 -0.1386533161
C  C53  1  0.17379000  0.44099000  0.40249000  1.0 0.6689187177
C  C54  1  0.82701000  0.82401000  0.44731000  1.0 0.5568461456
C  C55  1  0.81040000  0.89860000  0.45980000  1.0 -0.0066673401
C  C56  1  0.78360000  0.98300000  0.41150000  1.0 -0.1148238338
C  C57  1  0.77247000  0.04845000  0.42040000  1.0 -0.0882536594
C  C58  1  0.79786000  0.02718000  0.47939000  1.0 0.0150789576
C  C59  1  0.83021000  0.94416000  0.52688000  1.0 -0.1386533161
C  C60  1  0.83716000  0.88241000  0.51539000  1.0 -0.1220453156
C  C61  1  0.76003000  0.29433000  0.77073000  1.0 0.2844542576
C  C62  1  0.71146000  0.33666000  0.72396000  1.0 -0.1322123532
C  C63  1  0.67514000  0.42994000  0.68614000  1.0 0.6462128846
C  C64  1  0.69784000  0.29094000  0.70884000  1.0 -0.2081247754
C  C65  1  0.57529000  0.46009000  0.94709000  1.0 0.3252300166
C  C66  1  0.54293000  0.41593000  0.03213000  1.0 -0.1935678347
C  C67  1  0.46944000  0.45414000  0.08394000  1.0 -0.1386533161
C  C68  1  0.44099000  0.40249000  0.17379000  1.0 0.6689187177
C  C69  1  0.82401000  0.44731000  0.82701000  1.0 0.5568461456
C  C70  1  0.89860000  0.45980000  0.81040000  1.0 -0.0066673401
C  C71  1  0.98300000  0.41150000  0.78360000  1.0 -0.1148238338
C  C72  1  0.04845000  0.42040000  0.77247000  1.0 -0.0882536594
C  C73  1  0.02718000  0.47939000  0.79786000  1.0 0.0150789576
C  C74  1  0.94416000  0.52688000  0.83021000  1.0 -0.1386533161
C  C75  1  0.88241000  0.51539000  0.83716000  1.0 -0.1220453156
C  C76  1  0.29433000  0.77073000  0.76003000  1.0 0.2844542576
C  C77  1  0.33666000  0.72396000  0.71146000  1.0 -0.1322123532
C  C78  1  0.42994000  0.68614000  0.67514000  1.0 0.6462128846
C  C79  1  0.29094000  0.70884000  0.69784000  1.0 -0.2081247754
C  C80  1  0.46009000  0.94709000  0.57529000  1.0 0.3252300166
C  C81  1  0.41593000  0.03213000  0.54293000  1.0 -0.1935678347
C  C82  1  0.45414000  0.08394000  0.46944000  1.0 -0.1386533161
C  C83  1  0.40249000  0.17379000  0.44099000  1.0 0.6689187177
C  C84  1  0.44731000  0.82701000  0.82401000  1.0 0.5568461456
C  C85  1  0.45980000  0.81040000  0.89860000  1.0 -0.0066673401
C  C86  1  0.41150000  0.78360000  0.98300000  1.0 -0.1148238338
C  C87  1  0.42040000  0.77247000  0.04845000  1.0 -0.0882536594
C  C88  1  0.47939000  0.79786000  0.02718000  1.0 0.0150789576
C  C89  1  0.52688000  0.83021000  0.94416000  1.0 -0.1386533161
C  C90  1  0.51539000  0.83716000  0.88241000  1.0 -0.1220453156
C  C91  1  0.26003000  0.27073000  0.79433000  1.0 0.2844542576
C  C92  1  0.21146000  0.22396000  0.83666000  1.0 -0.1322123532
C  C93  1  0.17514000  0.18614000  0.92994000  1.0 0.6462128846
C  C94  1  0.19784000  0.20884000  0.79094000  1.0 -0.2081247754
C  C95  1  0.07529000  0.44709000  0.96009000  1.0 0.3252300166
C  C96  1  0.04293000  0.53213000  0.91593000  1.0 -0.1935678347
C  C97  1  0.96944000  0.58394000  0.95414000  1.0 -0.1386533161
C  C98  1  0.94099000  0.67379000  0.90249000  1.0 0.6689187177
C  C99  1  0.32401000  0.32701000  0.94731000  1.0 0.5568461456
C  C100  1  0.39860000  0.31040000  0.95980000  1.0 -0.0066673401
C  C101  1  0.48300000  0.28360000  0.91150000  1.0 -0.1148238338
C  C102  1  0.54845000  0.27247000  0.92040000  1.0 -0.0882536594
C  C103  1  0.52718000  0.29786000  0.97939000  1.0 0.0150789576
C  C104  1  0.44416000  0.33021000  0.02688000  1.0 -0.1386533161
C  C105  1  0.38241000  0.33716000  0.01539000  1.0 -0.1220453156
C  C106  1  0.79433000  0.26003000  0.27073000  1.0 0.2844542576
C  C107  1  0.83666000  0.21146000  0.22396000  1.0 -0.1322123532
C  C108  1  0.92994000  0.17514000  0.18614000  1.0 0.6462128846
C  C109  1  0.79094000  0.19784000  0.20884000  1.0 -0.2081247754
C  C110  1  0.96009000  0.07529000  0.44709000  1.0 0.3252300166
C  C111  1  0.91593000  0.04293000  0.53213000  1.0 -0.1935678347
C  C112  1  0.95414000  0.96944000  0.58394000  1.0 -0.1386533161
C  C113  1  0.90249000  0.94099000  0.67379000  1.0 0.6689187177
C  C114  1  0.94731000  0.32401000  0.32701000  1.0 0.5568461456
C  C115  1  0.95980000  0.39860000  0.31040000  1.0 -0.0066673401
C  C116  1  0.91150000  0.48300000  0.28360000  1.0 -0.1148238338
C  C117  1  0.92040000  0.54845000  0.27247000  1.0 -0.0882536594
C  C118  1  0.97939000  0.52718000  0.29786000  1.0 0.0150789576
C  C119  1  0.02688000  0.44416000  0.33021000  1.0 -0.1386533161
C  C120  1  0.01539000  0.38241000  0.33716000  1.0 -0.1220453156
C  C121  1  0.27073000  0.79433000  0.26003000  1.0 0.2844542576
C  C122  1  0.22396000  0.83666000  0.21146000  1.0 -0.1322123532
C  C123  1  0.18614000  0.92994000  0.17514000  1.0 0.6462128846
C  C124  1  0.20884000  0.79094000  0.19784000  1.0 -0.2081247754
C  C125  1  0.44709000  0.96009000  0.07529000  1.0 0.3252300166
C  C126  1  0.53213000  0.91593000  0.04293000  1.0 -0.1935678347
C  C127  1  0.58394000  0.95414000  0.96944000  1.0 -0.1386533161
C  C128  1  0.67379000  0.90249000  0.94099000  1.0 0.6689187177
C  C129  1  0.32701000  0.94731000  0.32401000  1.0 0.5568461456
C  C130  1  0.31040000  0.95980000  0.39860000  1.0 -0.0066673401
C  C131  1  0.28360000  0.91150000  0.48300000  1.0 -0.1148238338
C  C132  1  0.27247000  0.92040000  0.54845000  1.0 -0.0882536594
C  C133  1  0.29786000  0.97939000  0.52718000  1.0 0.0150789576
C  C134  1  0.33021000  0.02688000  0.44416000  1.0 -0.1386533161
C  C135  1  0.33716000  0.01539000  0.38241000  1.0 -0.1220453156
C  C136  1  0.22927000  0.23997000  0.70567000  1.0 0.2844542576
C  C137  1  0.27604000  0.28854000  0.66334000  1.0 -0.1322123532
C  C138  1  0.31386000  0.32486000  0.57006000  1.0 0.6462128846
C  C139  1  0.29116000  0.30216000  0.70906000  1.0 -0.2081247754
C  C140  1  0.05291000  0.42471000  0.53991000  1.0 0.3252300166
C  C141  1  0.96787000  0.45707000  0.58407000  1.0 -0.1935678347
C  C142  1  0.91606000  0.53056000  0.54586000  1.0 -0.1386533161
C  C143  1  0.82621000  0.55901000  0.59751000  1.0 0.6689187177
C  C144  1  0.17299000  0.17599000  0.55269000  1.0 0.5568461456
C  C145  1  0.18960000  0.10140000  0.54020000  1.0 -0.0066673401
C  C146  1  0.21640000  0.01700000  0.58850000  1.0 -0.1148238338
C  C147  1  0.22753000  0.95155000  0.57960000  1.0 -0.0882536594
C  C148  1  0.20214000  0.97282000  0.52061000  1.0 0.0150789576
C  C149  1  0.16979000  0.05584000  0.47312000  1.0 -0.1386533161
C  C150  1  0.16284000  0.11759000  0.48461000  1.0 -0.1220453156
C  C151  1  0.23997000  0.70567000  0.22927000  1.0 0.2844542576
C  C152  1  0.28854000  0.66334000  0.27604000  1.0 -0.1322123532
C  C153  1  0.32486000  0.57006000  0.31386000  1.0 0.6462128846
C  C154  1  0.30216000  0.70906000  0.29116000  1.0 -0.2081247754
C  C155  1  0.42471000  0.53991000  0.05291000  1.0 0.3201386122
C  C156  1  0.45707000  0.58407000  0.96787000  1.0 -0.1935678347
C  C157  1  0.53056000  0.54586000  0.91606000  1.0 -0.1386533161
C  C158  1  0.55901000  0.59751000  0.82621000  1.0 0.6689187177
C  C159  1  0.17599000  0.55269000  0.17299000  1.0 0.5568461456
C  C160  1  0.10140000  0.54020000  0.18960000  1.0 -0.0066673401
C  C161  1  0.01700000  0.58850000  0.21640000  1.0 -0.1148238338
C  C162  1  0.95155000  0.57960000  0.22753000  1.0 -0.0882536594
C  C163  1  0.97282000  0.52061000  0.20214000  1.0 0.0150789576
C  C164  1  0.05584000  0.47312000  0.16979000  1.0 -0.1386533161
C  C165  1  0.11759000  0.48461000  0.16284000  1.0 -0.1220453156
C  C166  1  0.70567000  0.22927000  0.23997000  1.0 0.2844542576
C  C167  1  0.66334000  0.27604000  0.28854000  1.0 -0.1322123532
C  C168  1  0.57006000  0.31386000  0.32486000  1.0 0.6462128846
C  C169  1  0.70906000  0.29116000  0.30216000  1.0 -0.2081247754
C  C170  1  0.53991000  0.05291000  0.42471000  1.0 0.3252300166
C  C171  1  0.58407000  0.96787000  0.45707000  1.0 -0.1935678347
C  C172  1  0.54586000  0.91606000  0.53056000  1.0 -0.1386533161
C  C173  1  0.59751000  0.82621000  0.55901000  1.0 0.6689187177
C  C174  1  0.55269000  0.17299000  0.17599000  1.0 0.5568461456
C  C175  1  0.54020000  0.18960000  0.10140000  1.0 -0.0066673401
C  C176  1  0.58850000  0.21640000  0.01700000  1.0 -0.1220453156
C  C177  1  0.57960000  0.22753000  0.95155000  1.0 -0.0882536594
C  C178  1  0.52061000  0.20214000  0.97282000  1.0 0.0150789576
C  C179  1  0.47312000  0.16979000  0.05584000  1.0 -0.1386533161
C  C180  1  0.48461000  0.16284000  0.11759000  1.0 -0.1220453156
O  O1  1  0.72231000  0.71351000  0.16601000  1.0 -0.6202987693
O  O2  1  0.82114000  0.79154000  0.02824000  1.0 -0.6768518449
O  O3  1  0.85670000  0.86440000  0.03640000  1.0 -0.5906196074
O  O4  1  0.85528000  0.60106000  0.08108000  1.0 -0.6286533387
O  O5  1  0.12631000  0.27542000  0.06969000  1.0 -0.5906196074
O  O6  1  0.01078000  0.30379000  0.17110000  1.0 -0.5989819926
O  O7  1  0.74866000  0.67006000  0.99486000  1.0 -0.6202987693
O  O8  1  0.66210000  0.68100000  0.11680000  1.0 -0.6202987693
O  O9  1  0.16601000  0.72231000  0.71351000  1.0 -0.6202987693
O  O10  1  0.02824000  0.82114000  0.79154000  1.0 -0.6768518449
O  O11  1  0.03640000  0.85670000  0.86440000  1.0 -0.5906196074
O  O12  1  0.08108000  0.85528000  0.60106000  1.0 -0.6286533387
O  O13  1  0.06969000  0.12631000  0.27542000  1.0 -0.5906196074
O  O14  1  0.17110000  0.01078000  0.30379000  1.0 -0.5989819926
O  O15  1  0.99486000  0.74866000  0.67006000  1.0 -0.6202987693
O  O16  1  0.11680000  0.66210000  0.68100000  1.0 -0.6202987693
O  O17  1  0.71351000  0.16601000  0.72231000  1.0 -0.6202987693
O  O18  1  0.79154000  0.02824000  0.82114000  1.0 -0.6768518449
O  O19  1  0.86440000  0.03640000  0.85670000  1.0 -0.5906196074
O  O20  1  0.60106000  0.08108000  0.85528000  1.0 -0.6286533387
O  O21  1  0.27542000  0.06969000  0.12631000  1.0 -0.5906196074
O  O22  1  0.30379000  0.17110000  0.01078000  1.0 -0.5989819926
O  O23  1  0.67006000  0.99486000  0.74866000  1.0 -0.6202987693
O  O24  1  0.68100000  0.11680000  0.66210000  1.0 -0.6202987693
O  O25  1  0.78649000  0.77769000  0.33399000  1.0 -0.6202987693
O  O26  1  0.70846000  0.67886000  0.47176000  1.0 -0.6768518449
O  O27  1  0.63560000  0.64330000  0.46360000  1.0 -0.5906196074
O  O28  1  0.89894000  0.64472000  0.41892000  1.0 -0.6286533387
O  O29  1  0.22458000  0.37369000  0.43031000  1.0 -0.5906196074
O  O30  1  0.19621000  0.48922000  0.32890000  1.0 -0.5989819926
O  O31  1  0.82994000  0.75134000  0.50514000  1.0 -0.6202987693
O  O32  1  0.81900000  0.83790000  0.38320000  1.0 -0.6202987693
O  O33  1  0.77769000  0.33399000  0.78649000  1.0 -0.6202987693
O  O34  1  0.67886000  0.47176000  0.70846000  1.0 -0.6768518449
O  O35  1  0.64330000  0.46360000  0.63560000  1.0 -0.5906196074
O  O36  1  0.64472000  0.41892000  0.89894000  1.0 -0.6286533387
O  O37  1  0.37369000  0.43031000  0.22458000  1.0 -0.5906196074
O  O38  1  0.48922000  0.32890000  0.19621000  1.0 -0.5989819926
O  O39  1  0.75134000  0.50514000  0.82994000  1.0 -0.6202987693
O  O40  1  0.83790000  0.38320000  0.81900000  1.0 -0.6202987693
O  O41  1  0.33399000  0.78649000  0.77769000  1.0 -0.6202987693
O  O42  1  0.47176000  0.70846000  0.67886000  1.0 -0.6768518449
O  O43  1  0.46360000  0.63560000  0.64330000  1.0 -0.5906196074
O  O44  1  0.41892000  0.89894000  0.64472000  1.0 -0.6286533387
O  O45  1  0.43031000  0.22458000  0.37369000  1.0 -0.5906196074
O  O46  1  0.32890000  0.19621000  0.48922000  1.0 -0.5989819926
O  O47  1  0.50514000  0.82994000  0.75134000  1.0 -0.6202987693
O  O48  1  0.38320000  0.81900000  0.83790000  1.0 -0.6202987693
O  O49  1  0.27769000  0.28649000  0.83399000  1.0 -0.6202987693
O  O50  1  0.17886000  0.20846000  0.97176000  1.0 -0.6768518449
O  O51  1  0.14330000  0.13560000  0.96360000  1.0 -0.5906196074
O  O52  1  0.14472000  0.39894000  0.91892000  1.0 -0.6286533387
O  O53  1  0.87369000  0.72458000  0.93031000  1.0 -0.5906196074
O  O54  1  0.98922000  0.69621000  0.82890000  1.0 -0.5989819926
O  O55  1  0.25134000  0.32994000  0.00514000  1.0 -0.6202987693
O  O56  1  0.33790000  0.31900000  0.88320000  1.0 -0.6202987693
O  O57  1  0.83399000  0.27769000  0.28649000  1.0 -0.6202987693
O  O58  1  0.97176000  0.17886000  0.20846000  1.0 -0.6768518449
O  O59  1  0.96360000  0.14330000  0.13560000  1.0 -0.5906196074
O  O60  1  0.91892000  0.14472000  0.39894000  1.0 -0.6286533387
O  O61  1  0.93031000  0.87369000  0.72458000  1.0 -0.5906196074
O  O62  1  0.82890000  0.98922000  0.69621000  1.0 -0.5989819926
O  O63  1  0.00514000  0.25134000  0.32994000  1.0 -0.6202987693
O  O64  1  0.88320000  0.33790000  0.31900000  1.0 -0.6202987693
O  O65  1  0.28649000  0.83399000  0.27769000  1.0 -0.6202987693
O  O66  1  0.20846000  0.97176000  0.17886000  1.0 -0.6768518449
O  O67  1  0.13560000  0.96360000  0.14330000  1.0 -0.5906196074
O  O68  1  0.39894000  0.91892000  0.14472000  1.0 -0.6286533387
O  O69  1  0.72458000  0.93031000  0.87369000  1.0 -0.5906196074
O  O70  1  0.69621000  0.82890000  0.98922000  1.0 -0.5989819926
O  O71  1  0.32994000  0.00514000  0.25134000  1.0 -0.6202987693
O  O72  1  0.31900000  0.88320000  0.33790000  1.0 -0.6202987693
O  O73  1  0.21351000  0.22231000  0.66601000  1.0 -0.6202987693
O  O74  1  0.29154000  0.32114000  0.52824000  1.0 -0.6768518449
O  O75  1  0.36440000  0.35670000  0.53640000  1.0 -0.5906196074
O  O76  1  0.10106000  0.35528000  0.58108000  1.0 -0.6286533387
O  O77  1  0.77542000  0.62631000  0.56969000  1.0 -0.5906196074
O  O78  1  0.80379000  0.51078000  0.67110000  1.0 -0.5989819926
O  O79  1  0.17006000  0.24866000  0.49486000  1.0 -0.6202987693
O  O80  1  0.18100000  0.16210000  0.61680000  1.0 -0.6202987693
O  O81  1  0.22231000  0.66601000  0.21351000  1.0 -0.6202987693
O  O82  1  0.32114000  0.52824000  0.29154000  1.0 -0.6768518449
O  O83  1  0.35670000  0.53640000  0.36440000  1.0 -0.5906196074
O  O84  1  0.35528000  0.58108000  0.10106000  1.0 -0.6286533387
O  O85  1  0.62631000  0.56969000  0.77542000  1.0 -0.5906196074
O  O86  1  0.51078000  0.67110000  0.80379000  1.0 -0.5989819926
O  O87  1  0.24866000  0.49486000  0.17006000  1.0 -0.6202987693
O  O88  1  0.16210000  0.61680000  0.18100000  1.0 -0.6202987693
O  O89  1  0.66601000  0.21351000  0.22231000  1.0 -0.6202987693
O  O90  1  0.52824000  0.29154000  0.32114000  1.0 -0.6768518449
O  O91  1  0.53640000  0.36440000  0.35670000  1.0 -0.5906196074
O  O92  1  0.58108000  0.10106000  0.35528000  1.0 -0.6286533387
O  O93  1  0.56969000  0.77542000  0.62631000  1.0 -0.5906196074
O  O94  1  0.67110000  0.80379000  0.51078000  1.0 -0.5989819926
O  O95  1  0.49486000  0.17006000  0.24866000  1.0 -0.6202987693
O  O96  1  0.61680000  0.18100000  0.16210000  1.0 -0.6202987693
