# DDEC6 charges by PACMAN v1.1 (https://github.com/mtap-research/PACMAN-charge/)
data_BAJHAZ_ASR_pacman
_symmetry_space_group_name_H-M   'P 1'
_cell_length_a   21.49280000
_cell_length_b   21.49280000
_cell_length_c   21.49280000
_cell_angle_alpha   54.52390000
_cell_angle_beta   54.52390000
_cell_angle_gamma   54.52390000
_symmetry_Int_Tables_number   1
_chemical_formula_structural   Rb5Zr3H21(C16O9)3
_chemical_formula_sum   'Rb20 Zr12 H84 C192 O108'
_cell_volume   6124.24217601
_cell_formula_units_Z   4
loop_
 _symmetry_equiv_pos_site_id
 _symmetry_equiv_pos_as_xyz
  1  'x, y, z'
loop_
 _atom_site_type_symbol
 _atom_site_label
 _atom_site_symmetry_multiplicity
 _atom_site_fract_x
 _atom_site_fract_y
 _atom_site_fract_z
 _atom_site_occupancy
 _atom_site_charge
Rb  Rb1  1  0.43270000  0.35980000  0.36590000  1.0 0.0968308283
Rb  Rb2  1  0.36590000  0.43270000  0.35980000  1.0 0.1094231527
Rb  Rb3  1  0.35980000  0.36590000  0.43270000  1.0 0.1094231527
Rb  Rb4  1  0.14020000  0.06730000  0.13410000  1.0 0.1094231527
Rb  Rb5  1  0.06730000  0.13410000  0.14020000  1.0 0.1094231527
Rb  Rb6  1  0.13410000  0.14020000  0.06730000  1.0 0.1094231527
Rb  Rb7  1  0.56730000  0.64020000  0.63410000  1.0 0.1094231527
Rb  Rb8  1  0.63410000  0.56730000  0.64020000  1.0 0.0968308283
Rb  Rb9  1  0.64020000  0.63410000  0.56730000  1.0 0.1094231527
Rb  Rb10  1  0.85980000  0.93270000  0.86590000  1.0 0.1094231527
Rb  Rb11  1  0.93270000  0.86590000  0.85980000  1.0 0.1094231527
Rb  Rb12  1  0.86590000  0.85980000  0.93270000  1.0 0.1094231527
Rb  Rb13  1  0.38061000  0.38061000  0.38061000  1.0 0.1408280916
Rb  Rb14  1  0.30166000  0.30166000  0.30166000  1.0 0.9167284576
Rb  Rb15  1  0.11939000  0.11939000  0.11939000  1.0 0.1408280916
Rb  Rb16  1  0.19834000  0.19834000  0.19834000  1.0 0.9167284576
Rb  Rb17  1  0.61939000  0.61939000  0.61939000  1.0 0.1463238803
Rb  Rb18  1  0.69834000  0.69834000  0.69834000  1.0 0.9167284576
Rb  Rb19  1  0.88061000  0.88061000  0.88061000  1.0 0.1463238803
Rb  Rb20  1  0.80166000  0.80166000  0.80166000  1.0 0.9167284576
Zr  Zr1  1  0.21454000  0.27087000  0.55113000  1.0 2.1078070211
Zr  Zr2  1  0.55113000  0.21454000  0.27087000  1.0 2.1078070211
Zr  Zr3  1  0.27087000  0.55113000  0.21454000  1.0 2.1078070211
Zr  Zr4  1  0.22913000  0.28546000  0.94887000  1.0 2.1078070211
Zr  Zr5  1  0.28546000  0.94887000  0.22913000  1.0 2.1078070211
Zr  Zr6  1  0.94887000  0.22913000  0.28546000  1.0 2.1078070211
Zr  Zr7  1  0.78546000  0.72913000  0.44887000  1.0 2.1078070211
Zr  Zr8  1  0.44887000  0.78546000  0.72913000  1.0 2.1078070211
Zr  Zr9  1  0.72913000  0.44887000  0.78546000  1.0 2.1078070211
Zr  Zr10  1  0.77087000  0.71454000  0.05113000  1.0 2.1078070211
Zr  Zr11  1  0.71454000  0.05113000  0.77087000  1.0 2.1078070211
Zr  Zr12  1  0.05113000  0.77087000  0.71454000  1.0 2.1078070211
H  H1  1  0.16306000  0.18042000  0.82037000  1.0 0.1277126317
H  H2  1  0.94438000  0.42140000  0.63617000  1.0 0.1408280916
H  H3  1  0.23133000  0.00743000  0.62516000  1.0 0.1094231527
H  H4  1  0.23893000  0.90330000  0.61082000  1.0 0.090184762
H  H5  1  0.18270000  0.94247000  0.51729000  1.0 0.090184762
H  H6  1  0.13121000  0.08575000  0.43753000  1.0 0.0968308283
H  H7  1  0.12691000  0.18686000  0.45457000  1.0 0.1094231527
H  H8  1  0.82037000  0.16306000  0.18042000  1.0 0.1277126317
H  H9  1  0.63617000  0.94438000  0.42140000  1.0 0.1408280916
H  H10  1  0.62516000  0.23133000  0.00743000  1.0 0.1094231527
H  H11  1  0.61082000  0.23893000  0.90330000  1.0 0.090184762
H  H12  1  0.51729000  0.18270000  0.94247000  1.0 0.090184762
H  H13  1  0.43753000  0.13121000  0.08575000  1.0 0.0968308283
H  H14  1  0.45457000  0.12691000  0.18686000  1.0 0.1094231527
H  H15  1  0.18042000  0.82037000  0.16306000  1.0 0.1277126317
H  H16  1  0.42140000  0.63617000  0.94438000  1.0 0.1408280916
H  H17  1  0.00743000  0.62516000  0.23133000  1.0 0.1094231527
H  H18  1  0.90330000  0.61082000  0.23893000  1.0 0.090184762
H  H19  1  0.94247000  0.51729000  0.18270000  1.0 0.090184762
H  H20  1  0.08575000  0.43753000  0.13121000  1.0 0.0968308283
H  H21  1  0.18686000  0.45457000  0.12691000  1.0 0.1094231527
H  H22  1  0.31958000  0.33694000  0.67963000  1.0 0.1277126317
H  H23  1  0.07860000  0.55562000  0.86383000  1.0 0.1408280916
H  H24  1  0.49257000  0.26867000  0.87484000  1.0 0.1094231527
H  H25  1  0.59670000  0.26107000  0.88918000  1.0 0.090184762
H  H26  1  0.55753000  0.31730000  0.98271000  1.0 0.090184762
H  H27  1  0.41425000  0.36879000  0.06247000  1.0 0.0968308283
H  H28  1  0.31314000  0.37309000  0.04543000  1.0 0.1094231527
H  H29  1  0.33694000  0.67963000  0.31958000  1.0 0.1277126317
H  H30  1  0.55562000  0.86383000  0.07860000  1.0 0.1408280916
H  H31  1  0.26867000  0.87484000  0.49257000  1.0 0.1094231527
H  H32  1  0.26107000  0.88918000  0.59670000  1.0 0.090184762
H  H33  1  0.31730000  0.98271000  0.55753000  1.0 0.090184762
H  H34  1  0.36879000  0.06247000  0.41425000  1.0 0.0968308283
H  H35  1  0.37309000  0.04543000  0.31314000  1.0 0.1094231527
H  H36  1  0.67963000  0.31958000  0.33694000  1.0 0.1277126317
H  H37  1  0.86383000  0.07860000  0.55562000  1.0 0.1408280916
H  H38  1  0.87484000  0.49257000  0.26867000  1.0 0.1094231527
H  H39  1  0.88918000  0.59670000  0.26107000  1.0 0.090184762
H  H40  1  0.98271000  0.55753000  0.31730000  1.0 0.090184762
H  H41  1  0.06247000  0.41425000  0.36879000  1.0 0.0968308283
H  H42  1  0.04543000  0.31314000  0.37309000  1.0 0.1094231527
H  H43  1  0.83694000  0.81958000  0.17963000  1.0 0.1277126317
H  H44  1  0.05562000  0.57860000  0.36383000  1.0 0.1408280916
H  H45  1  0.76867000  0.99257000  0.37484000  1.0 0.1094231527
H  H46  1  0.76107000  0.09670000  0.38918000  1.0 0.090184762
H  H47  1  0.81730000  0.05753000  0.48271000  1.0 0.090184762
H  H48  1  0.86879000  0.91425000  0.56247000  1.0 0.0968308283
H  H49  1  0.87309000  0.81314000  0.54543000  1.0 0.1094231527
H  H50  1  0.17963000  0.83694000  0.81958000  1.0 0.1277126317
H  H51  1  0.36383000  0.05562000  0.57860000  1.0 0.1408280916
H  H52  1  0.37484000  0.76867000  0.99257000  1.0 0.1094231527
H  H53  1  0.38918000  0.76107000  0.09670000  1.0 0.090184762
H  H54  1  0.48271000  0.81730000  0.05753000  1.0 0.090184762
H  H55  1  0.56247000  0.86879000  0.91425000  1.0 0.0968308283
H  H56  1  0.54543000  0.87309000  0.81314000  1.0 0.1094231527
H  H57  1  0.81958000  0.17963000  0.83694000  1.0 0.1277126317
H  H58  1  0.57860000  0.36383000  0.05562000  1.0 0.1408280916
H  H59  1  0.99257000  0.37484000  0.76867000  1.0 0.1094231527
H  H60  1  0.09670000  0.38918000  0.76107000  1.0 0.090184762
H  H61  1  0.05753000  0.48271000  0.81730000  1.0 0.090184762
H  H62  1  0.91425000  0.56247000  0.86879000  1.0 0.0968308283
H  H63  1  0.81314000  0.54543000  0.87309000  1.0 0.1094231527
H  H64  1  0.68042000  0.66306000  0.32037000  1.0 0.1277126317
H  H65  1  0.92140000  0.44438000  0.13617000  1.0 0.1408280916
H  H66  1  0.50743000  0.73133000  0.12516000  1.0 0.1094231527
H  H67  1  0.40330000  0.73893000  0.11082000  1.0 0.090184762
H  H68  1  0.44247000  0.68270000  0.01729000  1.0 0.090184762
H  H69  1  0.58575000  0.63121000  0.93753000  1.0 0.0968308283
H  H70  1  0.68686000  0.62691000  0.95457000  1.0 0.1094231527
H  H71  1  0.66306000  0.32037000  0.68042000  1.0 0.1277126317
H  H72  1  0.44438000  0.13617000  0.92140000  1.0 0.1408280916
H  H73  1  0.73133000  0.12516000  0.50743000  1.0 0.1094231527
H  H74  1  0.73893000  0.11082000  0.40330000  1.0 0.090184762
H  H75  1  0.68270000  0.01729000  0.44247000  1.0 0.090184762
H  H76  1  0.63121000  0.93753000  0.58575000  1.0 0.0968308283
H  H77  1  0.62691000  0.95457000  0.68686000  1.0 0.1094231527
H  H78  1  0.32037000  0.68042000  0.66306000  1.0 0.1277126317
H  H79  1  0.13617000  0.92140000  0.44438000  1.0 0.1408280916
H  H80  1  0.12516000  0.50743000  0.73133000  1.0 0.1094231527
H  H81  1  0.11082000  0.40330000  0.73893000  1.0 0.090184762
H  H82  1  0.01729000  0.44247000  0.68270000  1.0 0.090184762
H  H83  1  0.93753000  0.58575000  0.63121000  1.0 0.0968308283
H  H84  1  0.95457000  0.68686000  0.62691000  1.0 0.1094231527
C  C1  1  0.30920000  0.31630000  0.57820000  1.0 0.2693531422
C  C2  1  0.26939000  0.29369000  0.66489000  1.0 -0.0904783585
C  C3  1  0.22305000  0.24375000  0.70555000  1.0 0.3073745229
C  C4  1  0.19383000  0.21423000  0.79063000  1.0 -0.227934089
C  C5  1  0.05201000  0.42211000  0.53821000  1.0 0.3168974278
C  C6  1  0.96749000  0.45369000  0.58059000  1.0 -0.2144956518
C  C7  1  0.91614000  0.52984000  0.54514000  1.0 -0.1479299085
C  C8  1  0.82673000  0.55703000  0.59563000  1.0 0.6464220641
C  C9  1  0.17856000  0.17316000  0.54946000  1.0 0.5642635681
C  C10  1  0.18050000  0.10540000  0.54040000  1.0 -0.0126159625
C  C11  1  0.21180000  0.02190000  0.58690000  1.0 -0.1192537439
C  C12  1  0.21570000  0.95930000  0.57960000  1.0 -0.1093526245
C  C13  1  0.18330000  0.98260000  0.52330000  1.0 -0.0477941699
C  C14  1  0.15140000  0.06950000  0.47610000  1.0 -0.1303540116
C  C15  1  0.14920000  0.13030000  0.48530000  1.0 -0.1479299085
C  C16  1  0.29110000  0.34840000  0.57410000  1.0 0.3023100007
C  C17  1  0.57820000  0.30920000  0.31630000  1.0 0.2693531422
C  C18  1  0.66489000  0.26939000  0.29369000  1.0 -0.0904783585
C  C19  1  0.70555000  0.22305000  0.24375000  1.0 0.3073745229
C  C20  1  0.79063000  0.19383000  0.21423000  1.0 -0.227934089
C  C21  1  0.53821000  0.05201000  0.42211000  1.0 0.3168974278
C  C22  1  0.58059000  0.96749000  0.45369000  1.0 -0.2144956518
C  C23  1  0.54514000  0.91614000  0.52984000  1.0 -0.1479299085
C  C24  1  0.59563000  0.82673000  0.55703000  1.0 0.6464220641
C  C25  1  0.54946000  0.17856000  0.17316000  1.0 0.5642635681
C  C26  1  0.54040000  0.18050000  0.10540000  1.0 -0.0126159625
C  C27  1  0.58690000  0.21180000  0.02190000  1.0 -0.1192537439
C  C28  1  0.57960000  0.21570000  0.95930000  1.0 -0.1093526245
C  C29  1  0.52330000  0.18330000  0.98260000  1.0 -0.0477941699
C  C30  1  0.47610000  0.15140000  0.06950000  1.0 -0.1303540116
C  C31  1  0.48530000  0.14920000  0.13030000  1.0 -0.1479299085
C  C32  1  0.57410000  0.29110000  0.34840000  1.0 0.3023100007
C  C33  1  0.31630000  0.57820000  0.30920000  1.0 0.2693531422
C  C34  1  0.29369000  0.66489000  0.26939000  1.0 -0.0904783585
C  C35  1  0.24375000  0.70555000  0.22305000  1.0 0.3073745229
C  C36  1  0.21423000  0.79063000  0.19383000  1.0 -0.227934089
C  C37  1  0.42211000  0.53821000  0.05201000  1.0 0.3168974278
C  C38  1  0.45369000  0.58059000  0.96749000  1.0 -0.2144956518
C  C39  1  0.52984000  0.54514000  0.91614000  1.0 -0.1479299085
C  C40  1  0.55703000  0.59563000  0.82673000  1.0 0.6464220641
C  C41  1  0.17316000  0.54946000  0.17856000  1.0 0.5642635681
C  C42  1  0.10540000  0.54040000  0.18050000  1.0 -0.0126159625
C  C43  1  0.02190000  0.58690000  0.21180000  1.0 -0.1192537439
C  C44  1  0.95930000  0.57960000  0.21570000  1.0 -0.1093526245
C  C45  1  0.98260000  0.52330000  0.18330000  1.0 -0.0477941699
C  C46  1  0.06950000  0.47610000  0.15140000  1.0 -0.1303540116
C  C47  1  0.13030000  0.48530000  0.14920000  1.0 -0.1479299085
C  C48  1  0.34840000  0.57410000  0.29110000  1.0 0.3023100007
C  C49  1  0.18370000  0.19080000  0.92180000  1.0 0.2693531422
C  C50  1  0.20631000  0.23061000  0.83511000  1.0 -0.0904783585
C  C51  1  0.25625000  0.27695000  0.79445000  1.0 0.3073745229
C  C52  1  0.28577000  0.30617000  0.70937000  1.0 -0.227934089
C  C53  1  0.07789000  0.44799000  0.96179000  1.0 0.3168974278
C  C54  1  0.04631000  0.53251000  0.91941000  1.0 -0.2144956518
C  C55  1  0.97016000  0.58386000  0.95486000  1.0 -0.1479299085
C  C56  1  0.94297000  0.67327000  0.90437000  1.0 0.6464220641
C  C57  1  0.32684000  0.32144000  0.95054000  1.0 0.5642635681
C  C58  1  0.39460000  0.31950000  0.95960000  1.0 -0.0126159625
C  C59  1  0.47810000  0.28820000  0.91310000  1.0 -0.1192537439
C  C60  1  0.54070000  0.28430000  0.92040000  1.0 -0.1093526245
C  C61  1  0.51740000  0.31670000  0.97670000  1.0 -0.0477941699
C  C62  1  0.43050000  0.34860000  0.02390000  1.0 -0.1303540116
C  C63  1  0.36970000  0.35080000  0.01470000  1.0 -0.1479299085
C  C64  1  0.15160000  0.20890000  0.92590000  1.0 0.3023100007
C  C65  1  0.19080000  0.92180000  0.18370000  1.0 0.2693531422
C  C66  1  0.23061000  0.83511000  0.20631000  1.0 -0.0904783585
C  C67  1  0.27695000  0.79445000  0.25625000  1.0 0.3073745229
C  C68  1  0.30617000  0.70937000  0.28577000  1.0 -0.227934089
C  C69  1  0.44799000  0.96179000  0.07789000  1.0 0.3168974278
C  C70  1  0.53251000  0.91941000  0.04631000  1.0 -0.2144956518
C  C71  1  0.58386000  0.95486000  0.97016000  1.0 -0.1479299085
C  C72  1  0.67327000  0.90437000  0.94297000  1.0 0.6464220641
C  C73  1  0.32144000  0.95054000  0.32684000  1.0 0.5642635681
C  C74  1  0.31950000  0.95960000  0.39460000  1.0 -0.0126159625
C  C75  1  0.28820000  0.91310000  0.47810000  1.0 -0.1192537439
C  C76  1  0.28430000  0.92040000  0.54070000  1.0 -0.1093526245
C  C77  1  0.31670000  0.97670000  0.51740000  1.0 -0.0477941699
C  C78  1  0.34860000  0.02390000  0.43050000  1.0 -0.1303540116
C  C79  1  0.35080000  0.01470000  0.36970000  1.0 -0.1479299085
C  C80  1  0.20890000  0.92590000  0.15160000  1.0 0.3023100007
C  C81  1  0.92180000  0.18370000  0.19080000  1.0 0.2693531422
C  C82  1  0.83511000  0.20631000  0.23061000  1.0 -0.0904783585
C  C83  1  0.79445000  0.25625000  0.27695000  1.0 0.3073745229
C  C84  1  0.70937000  0.28577000  0.30617000  1.0 -0.227934089
C  C85  1  0.96179000  0.07789000  0.44799000  1.0 0.3168974278
C  C86  1  0.91941000  0.04631000  0.53251000  1.0 -0.2144956518
C  C87  1  0.95486000  0.97016000  0.58386000  1.0 -0.1479299085
C  C88  1  0.90437000  0.94297000  0.67327000  1.0 0.6464220641
C  C89  1  0.95054000  0.32684000  0.32144000  1.0 0.5642635681
C  C90  1  0.95960000  0.39460000  0.31950000  1.0 -0.0126159625
C  C91  1  0.91310000  0.47810000  0.28820000  1.0 -0.1192537439
C  C92  1  0.92040000  0.54070000  0.28430000  1.0 -0.1093526245
C  C93  1  0.97670000  0.51740000  0.31670000  1.0 -0.0477941699
C  C94  1  0.02390000  0.43050000  0.34860000  1.0 -0.1303540116
C  C95  1  0.01470000  0.36970000  0.35080000  1.0 -0.1479299085
C  C96  1  0.92590000  0.15160000  0.20890000  1.0 0.3023100007
C  C97  1  0.69080000  0.68370000  0.42180000  1.0 0.2693531422
C  C98  1  0.73061000  0.70631000  0.33511000  1.0 -0.0904783585
C  C99  1  0.77695000  0.75625000  0.29445000  1.0 0.3073745229
C  C100  1  0.80617000  0.78577000  0.20937000  1.0 -0.227934089
C  C101  1  0.94799000  0.57789000  0.46179000  1.0 0.3168974278
C  C102  1  0.03251000  0.54631000  0.41941000  1.0 -0.2144956518
C  C103  1  0.08386000  0.47016000  0.45486000  1.0 -0.1479299085
C  C104  1  0.17327000  0.44297000  0.40437000  1.0 0.6464220641
C  C105  1  0.82144000  0.82684000  0.45054000  1.0 0.5642635681
C  C106  1  0.81950000  0.89460000  0.45960000  1.0 -0.0126159625
C  C107  1  0.78820000  0.97810000  0.41310000  1.0 -0.1192537439
C  C108  1  0.78430000  0.04070000  0.42040000  1.0 -0.1093526245
C  C109  1  0.81670000  0.01740000  0.47670000  1.0 -0.0477941699
C  C110  1  0.84860000  0.93050000  0.52390000  1.0 -0.1303540116
C  C111  1  0.85080000  0.86970000  0.51470000  1.0 -0.1479299085
C  C112  1  0.70890000  0.65160000  0.42590000  1.0 0.3023100007
C  C113  1  0.42180000  0.69080000  0.68370000  1.0 0.2693531422
C  C114  1  0.33511000  0.73061000  0.70631000  1.0 -0.0904783585
C  C115  1  0.29445000  0.77695000  0.75625000  1.0 0.3073745229
C  C116  1  0.20937000  0.80617000  0.78577000  1.0 -0.227934089
C  C117  1  0.46179000  0.94799000  0.57789000  1.0 0.3168974278
C  C118  1  0.41941000  0.03251000  0.54631000  1.0 -0.2144956518
C  C119  1  0.45486000  0.08386000  0.47016000  1.0 -0.1479299085
C  C120  1  0.40437000  0.17327000  0.44297000  1.0 0.6464220641
C  C121  1  0.45054000  0.82144000  0.82684000  1.0 0.5642635681
C  C122  1  0.45960000  0.81950000  0.89460000  1.0 -0.0126159625
C  C123  1  0.41310000  0.78820000  0.97810000  1.0 -0.1192537439
C  C124  1  0.42040000  0.78430000  0.04070000  1.0 -0.1093526245
C  C125  1  0.47670000  0.81670000  0.01740000  1.0 -0.0477941699
C  C126  1  0.52390000  0.84860000  0.93050000  1.0 -0.1303540116
C  C127  1  0.51470000  0.85080000  0.86970000  1.0 -0.1479299085
C  C128  1  0.42590000  0.70890000  0.65160000  1.0 0.3023100007
C  C129  1  0.68370000  0.42180000  0.69080000  1.0 0.2693531422
C  C130  1  0.70631000  0.33511000  0.73061000  1.0 -0.0904783585
C  C131  1  0.75625000  0.29445000  0.77695000  1.0 0.3073745229
C  C132  1  0.78577000  0.20937000  0.80617000  1.0 -0.227934089
C  C133  1  0.57789000  0.46179000  0.94799000  1.0 0.3168974278
C  C134  1  0.54631000  0.41941000  0.03251000  1.0 -0.2144956518
C  C135  1  0.47016000  0.45486000  0.08386000  1.0 -0.1479299085
C  C136  1  0.44297000  0.40437000  0.17327000  1.0 0.6464220641
C  C137  1  0.82684000  0.45054000  0.82144000  1.0 0.5642635681
C  C138  1  0.89460000  0.45960000  0.81950000  1.0 -0.0126159625
C  C139  1  0.97810000  0.41310000  0.78820000  1.0 -0.1192537439
C  C140  1  0.04070000  0.42040000  0.78430000  1.0 -0.1093526245
C  C141  1  0.01740000  0.47670000  0.81670000  1.0 -0.0477941699
C  C142  1  0.93050000  0.52390000  0.84860000  1.0 -0.1303540116
C  C143  1  0.86970000  0.51470000  0.85080000  1.0 -0.1479299085
C  C144  1  0.65160000  0.42590000  0.70890000  1.0 0.3023100007
C  C145  1  0.81630000  0.80920000  0.07820000  1.0 0.2693531422
C  C146  1  0.79369000  0.76939000  0.16489000  1.0 -0.0904783585
C  C147  1  0.74375000  0.72305000  0.20555000  1.0 0.3073745229
C  C148  1  0.71423000  0.69383000  0.29063000  1.0 -0.227934089
C  C149  1  0.92211000  0.55201000  0.03821000  1.0 0.3168974278
C  C150  1  0.95369000  0.46749000  0.08059000  1.0 -0.2144956518
C  C151  1  0.02984000  0.41614000  0.04514000  1.0 -0.1479299085
C  C152  1  0.05703000  0.32673000  0.09563000  1.0 0.6464220641
C  C153  1  0.67316000  0.67856000  0.04946000  1.0 0.5642635681
C  C154  1  0.60540000  0.68050000  0.04040000  1.0 -0.0126159625
C  C155  1  0.52190000  0.71180000  0.08690000  1.0 -0.1192537439
C  C156  1  0.45930000  0.71570000  0.07960000  1.0 -0.1093526245
C  C157  1  0.48260000  0.68330000  0.02330000  1.0 -0.0477941699
C  C158  1  0.56950000  0.65140000  0.97610000  1.0 -0.1303540116
C  C159  1  0.63030000  0.64920000  0.98530000  1.0 -0.1479299085
C  C160  1  0.84840000  0.79110000  0.07410000  1.0 0.3023100007
C  C161  1  0.80920000  0.07820000  0.81630000  1.0 0.2693531422
C  C162  1  0.76939000  0.16489000  0.79369000  1.0 -0.0904783585
C  C163  1  0.72305000  0.20555000  0.74375000  1.0 0.3073745229
C  C164  1  0.69383000  0.29063000  0.71423000  1.0 -0.227934089
C  C165  1  0.55201000  0.03821000  0.92211000  1.0 0.3168974278
C  C166  1  0.46749000  0.08059000  0.95369000  1.0 -0.2144956518
C  C167  1  0.41614000  0.04514000  0.02984000  1.0 -0.1479299085
C  C168  1  0.32673000  0.09563000  0.05703000  1.0 0.6464220641
C  C169  1  0.67856000  0.04946000  0.67316000  1.0 0.5642635681
C  C170  1  0.68050000  0.04040000  0.60540000  1.0 -0.0126159625
C  C171  1  0.71180000  0.08690000  0.52190000  1.0 -0.1192537439
C  C172  1  0.71570000  0.07960000  0.45930000  1.0 -0.1093526245
C  C173  1  0.68330000  0.02330000  0.48260000  1.0 -0.0477941699
C  C174  1  0.65140000  0.97610000  0.56950000  1.0 -0.1303540116
C  C175  1  0.64920000  0.98530000  0.63030000  1.0 -0.1479299085
C  C176  1  0.79110000  0.07410000  0.84840000  1.0 0.3023100007
C  C177  1  0.07820000  0.81630000  0.80920000  1.0 0.2693531422
C  C178  1  0.16489000  0.79369000  0.76939000  1.0 -0.0904783585
C  C179  1  0.20555000  0.74375000  0.72305000  1.0 0.3073745229
C  C180  1  0.29063000  0.71423000  0.69383000  1.0 -0.227934089
C  C181  1  0.03821000  0.92211000  0.55201000  1.0 0.3168974278
C  C182  1  0.08059000  0.95369000  0.46749000  1.0 -0.2144956518
C  C183  1  0.04514000  0.02984000  0.41614000  1.0 -0.1479299085
C  C184  1  0.09563000  0.05703000  0.32673000  1.0 0.6464220641
C  C185  1  0.04946000  0.67316000  0.67856000  1.0 0.5642635681
C  C186  1  0.04040000  0.60540000  0.68050000  1.0 -0.0126159625
C  C187  1  0.08690000  0.52190000  0.71180000  1.0 -0.1192537439
C  C188  1  0.07960000  0.45930000  0.71570000  1.0 -0.1093526245
C  C189  1  0.02330000  0.48260000  0.68330000  1.0 -0.0477941699
C  C190  1  0.97610000  0.56950000  0.65140000  1.0 -0.1303540116
C  C191  1  0.98530000  0.63030000  0.64920000  1.0 -0.1479299085
C  C192  1  0.07410000  0.84840000  0.79110000  1.0 0.3023100007
O  O1  1  0.27195000  0.33425000  0.53465000  1.0 -0.4462122413
O  O2  1  0.21148000  0.22488000  0.66558000  1.0 -0.6099883831
O  O3  1  0.09847000  0.34997000  0.57757000  1.0 -0.6423421469
O  O4  1  0.80072000  0.50602000  0.66512000  1.0 -0.6423421469
O  O5  1  0.77878000  0.62858000  0.57038000  1.0 -0.6675619823
O  O6  1  0.36530000  0.34260000  0.53990000  1.0 -0.1303540116
O  O7  1  0.18960000  0.15690000  0.61120000  1.0 -0.6099883831
O  O8  1  0.18253000  0.23983000  0.48953000  1.0 -0.6519505969
O  O9  1  0.33200000  0.38790000  0.53900000  1.0 -0.0904783585
O  O10  1  0.53465000  0.27195000  0.33425000  1.0 -0.4462122413
O  O11  1  0.66558000  0.21148000  0.22488000  1.0 -0.6099883831
O  O12  1  0.57757000  0.09847000  0.34997000  1.0 -0.6423421469
O  O13  1  0.66512000  0.80072000  0.50602000  1.0 -0.6423421469
O  O14  1  0.57038000  0.77878000  0.62858000  1.0 -0.6675619823
O  O15  1  0.53990000  0.36530000  0.34260000  1.0 -0.1303540116
O  O16  1  0.61120000  0.18960000  0.15690000  1.0 -0.6099883831
O  O17  1  0.48953000  0.18253000  0.23983000  1.0 -0.6519505969
O  O18  1  0.53900000  0.33200000  0.38790000  1.0 -0.0904783585
O  O19  1  0.33425000  0.53465000  0.27195000  1.0 -0.4462122413
O  O20  1  0.22488000  0.66558000  0.21148000  1.0 -0.6099883831
O  O21  1  0.34997000  0.57757000  0.09847000  1.0 -0.6423421469
O  O22  1  0.50602000  0.66512000  0.80072000  1.0 -0.6423421469
O  O23  1  0.62858000  0.57038000  0.77878000  1.0 -0.6675619823
O  O24  1  0.34260000  0.53990000  0.36530000  1.0 -0.1303540116
O  O25  1  0.15690000  0.61120000  0.18960000  1.0 -0.6099883831
O  O26  1  0.23983000  0.48953000  0.18253000  1.0 -0.6519505969
O  O27  1  0.38790000  0.53900000  0.33200000  1.0 -0.0904783585
O  O28  1  0.16575000  0.22805000  0.96535000  1.0 -0.4462122413
O  O29  1  0.27512000  0.28852000  0.83442000  1.0 -0.6099883831
O  O30  1  0.15003000  0.40153000  0.92243000  1.0 -0.6423421469
O  O31  1  0.99398000  0.69928000  0.83488000  1.0 -0.6423421469
O  O32  1  0.87142000  0.72122000  0.92962000  1.0 -0.6675619823
O  O33  1  0.15740000  0.13470000  0.96010000  1.0 -0.1303540116
O  O34  1  0.34310000  0.31040000  0.88880000  1.0 -0.6099883831
O  O35  1  0.26017000  0.31747000  0.01047000  1.0 -0.6519505969
O  O36  1  0.11210000  0.16800000  0.96100000  1.0 -0.0904783585
O  O37  1  0.22805000  0.96535000  0.16575000  1.0 -0.4462122413
O  O38  1  0.28852000  0.83442000  0.27512000  1.0 -0.6099883831
O  O39  1  0.40153000  0.92243000  0.15003000  1.0 -0.6423421469
O  O40  1  0.69928000  0.83488000  0.99398000  1.0 -0.6423421469
O  O41  1  0.72122000  0.92962000  0.87142000  1.0 -0.6675619823
O  O42  1  0.13470000  0.96010000  0.15740000  1.0 -0.1303540116
O  O43  1  0.31040000  0.88880000  0.34310000  1.0 -0.6099883831
O  O44  1  0.31747000  0.01047000  0.26017000  1.0 -0.6519505969
O  O45  1  0.16800000  0.96100000  0.11210000  1.0 -0.0904783585
O  O46  1  0.96535000  0.16575000  0.22805000  1.0 -0.4462122413
O  O47  1  0.83442000  0.27512000  0.28852000  1.0 -0.6099883831
O  O48  1  0.92243000  0.15003000  0.40153000  1.0 -0.6423421469
O  O49  1  0.83488000  0.99398000  0.69928000  1.0 -0.6423421469
O  O50  1  0.92962000  0.87142000  0.72122000  1.0 -0.6675619823
O  O51  1  0.96010000  0.15740000  0.13470000  1.0 -0.1303540116
O  O52  1  0.88880000  0.34310000  0.31040000  1.0 -0.6099883831
O  O53  1  0.01047000  0.26017000  0.31747000  1.0 -0.6519505969
O  O54  1  0.96100000  0.11210000  0.16800000  1.0 -0.0954907032
O  O55  1  0.72805000  0.66575000  0.46535000  1.0 -0.4462122413
O  O56  1  0.78852000  0.77512000  0.33442000  1.0 -0.6099883831
O  O57  1  0.90153000  0.65003000  0.42243000  1.0 -0.6423421469
O  O58  1  0.19928000  0.49398000  0.33488000  1.0 -0.6423421469
O  O59  1  0.22122000  0.37142000  0.42962000  1.0 -0.6675619823
O  O60  1  0.63470000  0.65740000  0.46010000  1.0 -0.1303540116
O  O61  1  0.81040000  0.84310000  0.38880000  1.0 -0.6099883831
O  O62  1  0.81747000  0.76017000  0.51047000  1.0 -0.6519505969
O  O63  1  0.66800000  0.61210000  0.46100000  1.0 -0.0904783585
O  O64  1  0.46535000  0.72805000  0.66575000  1.0 -0.4462122413
O  O65  1  0.33442000  0.78852000  0.77512000  1.0 -0.6099883831
O  O66  1  0.42243000  0.90153000  0.65003000  1.0 -0.6423421469
O  O67  1  0.33488000  0.19928000  0.49398000  1.0 -0.6423421469
O  O68  1  0.42962000  0.22122000  0.37142000  1.0 -0.6675619823
O  O69  1  0.46010000  0.63470000  0.65740000  1.0 -0.1303540116
O  O70  1  0.38880000  0.81040000  0.84310000  1.0 -0.6099883831
O  O71  1  0.51047000  0.81747000  0.76017000  1.0 -0.6519505969
O  O72  1  0.46100000  0.66800000  0.61210000  1.0 -0.0904783585
O  O73  1  0.66575000  0.46535000  0.72805000  1.0 -0.4462122413
O  O74  1  0.77512000  0.33442000  0.78852000  1.0 -0.6099883831
O  O75  1  0.65003000  0.42243000  0.90153000  1.0 -0.6423421469
O  O76  1  0.49398000  0.33488000  0.19928000  1.0 -0.6423421469
O  O77  1  0.37142000  0.42962000  0.22122000  1.0 -0.6675619823
O  O78  1  0.65740000  0.46010000  0.63470000  1.0 -0.1303540116
O  O79  1  0.84310000  0.38880000  0.81040000  1.0 -0.6099883831
O  O80  1  0.76017000  0.51047000  0.81747000  1.0 -0.6519505969
O  O81  1  0.61210000  0.46100000  0.66800000  1.0 -0.0904783585
O  O82  1  0.83425000  0.77195000  0.03465000  1.0 -0.4462122413
O  O83  1  0.72488000  0.71148000  0.16558000  1.0 -0.6099883831
O  O84  1  0.84997000  0.59847000  0.07757000  1.0 -0.6423421469
O  O85  1  0.00602000  0.30072000  0.16512000  1.0 -0.6423421469
O  O86  1  0.12858000  0.27878000  0.07038000  1.0 -0.6675619823
O  O87  1  0.84260000  0.86530000  0.03990000  1.0 -0.1303540116
O  O88  1  0.65690000  0.68960000  0.11120000  1.0 -0.6099883831
O  O89  1  0.73983000  0.68253000  0.98953000  1.0 -0.6519505969
O  O90  1  0.88790000  0.83200000  0.03900000  1.0 -0.0904783585
O  O91  1  0.77195000  0.03465000  0.83425000  1.0 -0.4462122413
O  O92  1  0.71148000  0.16558000  0.72488000  1.0 -0.6099883831
O  O93  1  0.59847000  0.07757000  0.84997000  1.0 -0.6423421469
O  O94  1  0.30072000  0.16512000  0.00602000  1.0 -0.6423421469
O  O95  1  0.27878000  0.07038000  0.12858000  1.0 -0.6675619823
O  O96  1  0.86530000  0.03990000  0.84260000  1.0 -0.1303540116
O  O97  1  0.68960000  0.11120000  0.65690000  1.0 -0.6099883831
O  O98  1  0.68253000  0.98953000  0.73983000  1.0 -0.6519505969
O  O99  1  0.83200000  0.03900000  0.88790000  1.0 -0.0904783585
O  O100  1  0.03465000  0.83425000  0.77195000  1.0 -0.4462122413
O  O101  1  0.16558000  0.72488000  0.71148000  1.0 -0.6099883831
O  O102  1  0.07757000  0.84997000  0.59847000  1.0 -0.6423421469
O  O103  1  0.16512000  0.00602000  0.30072000  1.0 -0.6423421469
O  O104  1  0.07038000  0.12858000  0.27878000  1.0 -0.6675619823
O  O105  1  0.03990000  0.84260000  0.86530000  1.0 -0.1303540116
O  O106  1  0.11120000  0.65690000  0.68960000  1.0 -0.6099883831
O  O107  1  0.98953000  0.73983000  0.68253000  1.0 -0.6519505969
O  O108  1  0.03900000  0.88790000  0.83200000  1.0 -0.0904783585
