# DDEC6 charges by PACMAN v1.1 (https://github.com/mtap-research/PACMAN-charge/)
data_BALPAH_ASR_pacman
_symmetry_space_group_name_H-M   'P 1'
_cell_length_a   24.84460000
_cell_length_b   24.84460000
_cell_length_c   47.24090000
_cell_angle_alpha   90.00000000
_cell_angle_beta   90.00000000
_cell_angle_gamma   90.00000000
_symmetry_Int_Tables_number   1
_chemical_formula_structural   La4Ag8H111Pd6C62S12Br(N3O7)4
_chemical_formula_sum   'La32 Ag64 H888 Pd48 C496 S96 Br8 N96 O224'
_cell_volume   29159.64153505
_cell_formula_units_Z   8
loop_
 _symmetry_equiv_pos_site_id
 _symmetry_equiv_pos_as_xyz
  1  'x, y, z'
loop_
 _atom_site_type_symbol
 _atom_site_label
 _atom_site_symmetry_multiplicity
 _atom_site_fract_x
 _atom_site_fract_y
 _atom_site_fract_z
 _atom_site_occupancy
 _atom_site_charge
La  La1  1  0.92337000  0.37738000  0.11276000  1.0 1.8229658395
La  La2  1  0.07663000  0.62262000  0.61276000  1.0 1.8229658395
La  La3  1  0.42337000  0.12262000  0.63724000  1.0 1.8229658395
La  La4  1  0.57663000  0.87738000  0.13724000  1.0 1.8229658395
La  La5  1  0.62262000  0.07663000  0.38724000  1.0 1.8229658395
La  La6  1  0.37738000  0.92337000  0.88724000  1.0 1.8229658395
La  La7  1  0.87738000  0.57663000  0.86276000  1.0 1.8229658395
La  La8  1  0.12262000  0.42337000  0.36276000  1.0 1.8229658395
La  La9  1  0.84061000  0.77451000  0.48970000  1.0 -0.0318230649
La  La10  1  0.15939000  0.22549000  0.98970000  1.0 -0.0318230649
La  La11  1  0.34061000  0.72549000  0.26030000  1.0 -0.0318230649
La  La12  1  0.65939000  0.27451000  0.76030000  1.0 -0.0318230649
La  La13  1  0.22549000  0.15939000  0.01030000  1.0 -0.0318230649
La  La14  1  0.77451000  0.84061000  0.51030000  1.0 -0.0318230649
La  La15  1  0.27451000  0.65939000  0.23970000  1.0 -0.0318230649
La  La16  1  0.72549000  0.34061000  0.73970000  1.0 -0.0318230649
La  La17  1  0.89085000  0.04752000  0.27127000  1.0 0.4971807347
La  La18  1  0.10915000  0.95248000  0.77127000  1.0 0.4971807347
La  La19  1  0.39085000  0.45248000  0.47873000  1.0 0.4971807347
La  La20  1  0.60915000  0.54752000  0.97873000  1.0 0.4942669957
La  La21  1  0.95248000  0.10915000  0.22873000  1.0 0.4971807347
La  La22  1  0.04752000  0.89085000  0.72873000  1.0 0.4971807347
La  La23  1  0.54752000  0.60915000  0.02127000  1.0 0.4971807347
La  La24  1  0.45248000  0.39085000  0.52127000  1.0 0.4971807347
La  La25  1  0.93322000  0.03006000  0.29173000  1.0 0.3961862228
La  La26  1  0.06678000  0.96994000  0.79173000  1.0 0.3961862228
La  La27  1  0.43322000  0.46994000  0.45827000  1.0 0.3961862228
La  La28  1  0.56678000  0.53006000  0.95827000  1.0 0.3961862228
La  La29  1  0.96994000  0.06678000  0.20827000  1.0 0.3961862228
La  La30  1  0.03006000  0.93322000  0.70827000  1.0 0.3961862228
La  La31  1  0.53006000  0.56678000  0.04173000  1.0 0.3961862228
La  La32  1  0.46994000  0.43322000  0.54173000  1.0 0.3961862228
Ag  Ag1  1  0.71720000  0.65550000  0.22789000  1.0 0.2391660547
Ag  Ag2  1  0.28280000  0.34450000  0.72789000  1.0 0.2391660547
Ag  Ag3  1  0.21720000  0.84450000  0.52211000  1.0 0.2391660547
Ag  Ag4  1  0.78280000  0.15550000  0.02211000  1.0 0.2391660547
Ag  Ag5  1  0.34450000  0.28280000  0.27211000  1.0 0.2391660547
Ag  Ag6  1  0.65550000  0.71720000  0.77211000  1.0 0.2391660547
Ag  Ag7  1  0.15550000  0.78280000  0.97789000  1.0 0.2391660547
Ag  Ag8  1  0.84450000  0.21720000  0.47789000  1.0 0.2391660547
Ag  Ag9  1  0.85082000  0.60959000  0.24873000  1.0 0.2601672594
Ag  Ag10  1  0.14918000  0.39041000  0.74873000  1.0 0.2601672594
Ag  Ag11  1  0.35082000  0.89041000  0.50127000  1.0 0.2601672594
Ag  Ag12  1  0.64918000  0.10959000  0.00127000  1.0 0.2601672594
Ag  Ag13  1  0.39041000  0.14918000  0.25127000  1.0 0.2601672594
Ag  Ag14  1  0.60959000  0.85082000  0.75127000  1.0 0.2601672594
Ag  Ag15  1  0.10959000  0.64918000  0.99873000  1.0 0.2601672594
Ag  Ag16  1  0.89041000  0.35082000  0.49873000  1.0 0.2601672594
Ag  Ag17  1  0.81454000  0.49703000  0.28683000  1.0 0.2504557203
Ag  Ag18  1  0.18546000  0.50297000  0.78683000  1.0 0.2504557203
Ag  Ag19  1  0.31454000  0.00297000  0.46317000  1.0 0.2504557203
Ag  Ag20  1  0.68546000  0.99703000  0.96317000  1.0 0.2504557203
Ag  Ag21  1  0.50297000  0.18546000  0.21317000  1.0 0.2504557203
Ag  Ag22  1  0.49703000  0.81454000  0.71317000  1.0 0.2504557203
Ag  Ag23  1  0.99703000  0.68546000  0.03683000  1.0 0.2504557203
Ag  Ag24  1  0.00297000  0.31454000  0.53683000  1.0 0.2504557203
Ag  Ag25  1  0.67537000  0.55643000  0.27239000  1.0 0.2701950583
Ag  Ag26  1  0.32463000  0.44357000  0.77239000  1.0 0.2701950583
Ag  Ag27  1  0.17537000  0.94357000  0.47761000  1.0 0.2701950583
Ag  Ag28  1  0.82463000  0.05643000  0.97761000  1.0 0.2701950583
Ag  Ag29  1  0.44357000  0.32463000  0.22761000  1.0 0.2701950583
Ag  Ag30  1  0.55643000  0.67537000  0.72761000  1.0 0.2701950583
Ag  Ag31  1  0.05643000  0.82463000  0.02239000  1.0 0.2701950583
Ag  Ag32  1  0.94357000  0.17537000  0.52239000  1.0 0.2701950583
Ag  Ag33  1  0.72863000  0.73580000  0.28925000  1.0 0.2504557203
Ag  Ag34  1  0.27137000  0.26420000  0.78925000  1.0 0.2504557203
Ag  Ag35  1  0.22863000  0.76420000  0.46075000  1.0 0.2601672594
Ag  Ag36  1  0.77137000  0.23580000  0.96075000  1.0 0.2504557203
Ag  Ag37  1  0.26420000  0.27137000  0.21075000  1.0 0.2504557203
Ag  Ag38  1  0.73580000  0.72863000  0.71075000  1.0 0.2504557203
Ag  Ag39  1  0.23580000  0.77137000  0.03925000  1.0 0.2601672594
Ag  Ag40  1  0.76420000  0.22863000  0.53925000  1.0 0.2504557203
Ag  Ag41  1  0.87506000  0.71523000  0.31008000  1.0 0.2307841761
Ag  Ag42  1  0.12494000  0.28477000  0.81008000  1.0 0.2307841761
Ag  Ag43  1  0.37506000  0.78477000  0.43992000  1.0 0.2307841761
Ag  Ag44  1  0.62494000  0.21523000  0.93992000  1.0 0.2307841761
Ag  Ag45  1  0.28477000  0.12494000  0.18992000  1.0 0.2307841761
Ag  Ag46  1  0.71523000  0.87506000  0.68992000  1.0 0.2307841761
Ag  Ag47  1  0.21523000  0.62494000  0.06008000  1.0 0.2307841761
Ag  Ag48  1  0.78477000  0.37506000  0.56008000  1.0 0.2307841761
Ag  Ag49  1  0.80243000  0.59222000  0.34406000  1.0 0.2601672594
Ag  Ag50  1  0.19757000  0.40778000  0.84406000  1.0 0.2601672594
Ag  Ag51  1  0.30243000  0.90778000  0.40594000  1.0 0.2601672594
Ag  Ag52  1  0.69757000  0.09222000  0.90594000  1.0 0.2601672594
Ag  Ag53  1  0.40778000  0.19757000  0.15594000  1.0 0.2601672594
Ag  Ag54  1  0.59222000  0.80243000  0.65594000  1.0 0.2601672594
Ag  Ag55  1  0.09222000  0.69757000  0.09406000  1.0 0.2601672594
Ag  Ag56  1  0.90778000  0.30243000  0.59406000  1.0 0.2601672594
Ag  Ag57  1  0.65343000  0.63979000  0.34365000  1.0 0.2391660547
Ag  Ag58  1  0.34657000  0.36021000  0.84365000  1.0 0.2391660547
Ag  Ag59  1  0.15343000  0.86021000  0.40635000  1.0 0.2391660547
Ag  Ag60  1  0.84657000  0.13979000  0.90635000  1.0 0.2391660547
Ag  Ag61  1  0.36021000  0.34657000  0.15635000  1.0 0.2391660547
Ag  Ag62  1  0.63979000  0.65343000  0.65635000  1.0 0.2391660547
Ag  Ag63  1  0.13979000  0.84657000  0.09365000  1.0 0.2391660547
Ag  Ag64  1  0.86021000  0.15343000  0.59365000  1.0 0.2391660547
H  H1  1  0.72290000  0.47550000  0.15760000  1.0 0.2878623439
H  H2  1  0.27710000  0.52450000  0.65760000  1.0 0.2878623439
H  H3  1  0.22290000  0.02450000  0.59240000  1.0 0.2878623439
H  H4  1  0.77710000  0.97550000  0.09240000  1.0 0.2878623439
H  H5  1  0.52450000  0.27710000  0.34240000  1.0 0.2878623439
H  H6  1  0.47550000  0.72290000  0.84240000  1.0 0.2878623439
H  H7  1  0.97550000  0.77710000  0.90760000  1.0 0.2878623439
H  H8  1  0.02450000  0.22290000  0.40760000  1.0 0.2878623439
H  H9  1  0.68680000  0.45020000  0.17880000  1.0 0.2878623439
H  H10  1  0.31320000  0.54980000  0.67880000  1.0 0.2878623439
H  H11  1  0.18680000  0.04980000  0.57120000  1.0 0.2878623439
H  H12  1  0.81320000  0.95020000  0.07120000  1.0 0.2878623439
H  H13  1  0.54980000  0.31320000  0.32120000  1.0 0.2878623439
H  H14  1  0.45020000  0.68680000  0.82120000  1.0 0.2878623439
H  H15  1  0.95020000  0.81320000  0.92880000  1.0 0.2878623439
H  H16  1  0.04980000  0.18680000  0.42880000  1.0 0.2878623439
H  H17  1  0.78940000  0.40420000  0.18890000  1.0 0.2878623439
H  H18  1  0.21060000  0.59580000  0.68890000  1.0 0.2878623439
H  H19  1  0.28940000  0.09580000  0.56110000  1.0 0.2878623439
H  H20  1  0.71060000  0.90420000  0.06110000  1.0 0.2878623439
H  H21  1  0.59580000  0.21060000  0.31110000  1.0 0.2878623439
H  H22  1  0.40420000  0.78940000  0.81110000  1.0 0.2878623439
H  H23  1  0.90420000  0.71060000  0.93890000  1.0 0.2878623439
H  H24  1  0.09580000  0.28940000  0.43890000  1.0 0.2878623439
H  H25  1  0.81870000  0.44410000  0.17140000  1.0 0.2701950583
H  H26  1  0.18130000  0.55590000  0.67140000  1.0 0.2701950583
H  H27  1  0.31870000  0.05590000  0.57860000  1.0 0.2701950583
H  H28  1  0.68130000  0.94410000  0.07860000  1.0 0.2701950583
H  H29  1  0.55590000  0.18130000  0.32860000  1.0 0.2701950583
H  H30  1  0.44410000  0.81870000  0.82860000  1.0 0.2701950583
H  H31  1  0.94410000  0.68130000  0.92140000  1.0 0.2701950583
H  H32  1  0.05590000  0.31870000  0.42140000  1.0 0.2701950583
H  H33  1  0.82560000  0.81200000  0.17900000  1.0 0.2878623439
H  H34  1  0.17440000  0.18800000  0.67900000  1.0 0.2878623439
H  H35  1  0.32560000  0.68800000  0.57100000  1.0 0.2878623439
H  H36  1  0.67440000  0.31200000  0.07100000  1.0 0.2878623439
H  H37  1  0.18800000  0.17440000  0.32100000  1.0 0.2878623439
H  H38  1  0.81200000  0.82560000  0.82100000  1.0 0.2878623439
H  H39  1  0.31200000  0.67440000  0.92900000  1.0 0.2878623439
H  H40  1  0.68800000  0.32560000  0.42900000  1.0 0.2878623439
H  H41  1  0.87690000  0.78120000  0.17950000  1.0 0.2811946585
H  H42  1  0.12310000  0.21880000  0.67950000  1.0 0.2811946585
H  H43  1  0.37690000  0.71880000  0.57050000  1.0 0.2811946585
H  H44  1  0.62310000  0.28120000  0.07050000  1.0 0.2811946585
H  H45  1  0.21880000  0.12310000  0.32050000  1.0 0.2811946585
H  H46  1  0.78120000  0.87690000  0.82050000  1.0 0.2811946585
H  H47  1  0.28120000  0.62310000  0.92950000  1.0 0.2811946585
H  H48  1  0.71880000  0.37690000  0.42950000  1.0 0.2811946585
H  H49  1  0.90080000  0.85160000  0.22630000  1.0 0.2969661443
H  H50  1  0.09920000  0.14840000  0.72630000  1.0 0.2969661443
H  H51  1  0.40080000  0.64840000  0.52370000  1.0 0.2969661443
H  H52  1  0.59920000  0.35160000  0.02370000  1.0 0.2969661443
H  H53  1  0.14840000  0.09920000  0.27370000  1.0 0.2969661443
H  H54  1  0.85160000  0.90080000  0.77370000  1.0 0.2969661443
H  H55  1  0.35160000  0.59920000  0.97630000  1.0 0.2969661443
H  H56  1  0.64840000  0.40080000  0.47630000  1.0 0.2969661443
H  H57  1  0.84560000  0.87490000  0.22700000  1.0 0.2878623439
H  H58  1  0.15440000  0.12510000  0.72700000  1.0 0.2878623439
H  H59  1  0.34560000  0.62510000  0.52300000  1.0 0.2878623439
H  H60  1  0.65440000  0.37490000  0.02300000  1.0 0.2878623439
H  H61  1  0.12510000  0.15440000  0.27300000  1.0 0.2878623439
H  H62  1  0.87490000  0.84560000  0.77300000  1.0 0.2878623439
H  H63  1  0.37490000  0.65440000  0.97700000  1.0 0.2878623439
H  H64  1  0.62510000  0.34560000  0.47700000  1.0 0.2878623439
H  H65  1  0.04470000  0.60890000  0.32120000  1.0 0.2878623439
H  H66  1  0.95530000  0.39110000  0.82120000  1.0 0.2878623439
H  H67  1  0.54470000  0.89110000  0.42880000  1.0 0.2878623439
H  H68  1  0.45530000  0.10890000  0.92880000  1.0 0.2878623439
H  H69  1  0.39110000  0.95530000  0.17880000  1.0 0.2878623439
H  H70  1  0.60890000  0.04470000  0.67880000  1.0 0.2878623439
H  H71  1  0.10890000  0.45530000  0.07120000  1.0 0.2878623439
H  H72  1  0.89110000  0.54470000  0.57120000  1.0 0.2878623439
H  H73  1  0.04630000  0.58250000  0.29300000  1.0 0.2701950583
H  H74  1  0.95370000  0.41750000  0.79300000  1.0 0.2811946585
H  H75  1  0.54630000  0.91750000  0.45700000  1.0 0.2811946585
H  H76  1  0.45370000  0.08250000  0.95700000  1.0 0.2811946585
H  H77  1  0.41750000  0.95370000  0.20700000  1.0 0.2811946585
H  H78  1  0.58250000  0.04630000  0.70700000  1.0 0.2811946585
H  H79  1  0.08250000  0.45370000  0.04300000  1.0 0.2701950583
H  H80  1  0.91750000  0.54630000  0.54300000  1.0 0.2811946585
H  H81  1  0.02130000  0.50100000  0.32800000  1.0 0.2701950583
H  H82  1  0.97870000  0.49900000  0.82800000  1.0 0.2701950583
H  H83  1  0.52130000  0.99900000  0.42200000  1.0 0.2701950583
H  H84  1  0.47870000  0.00100000  0.92200000  1.0 0.2701950583
H  H85  1  0.49900000  0.97870000  0.17200000  1.0 0.2701950583
H  H86  1  0.50100000  0.02130000  0.67200000  1.0 0.2701950583
H  H87  1  0.00100000  0.47870000  0.07800000  1.0 0.2701950583
H  H88  1  0.99900000  0.52130000  0.57800000  1.0 0.2701950583
H  H89  1  0.99400000  0.52170000  0.35370000  1.0 0.2701950583
H  H90  1  0.00600000  0.47830000  0.85370000  1.0 0.2701950583
H  H91  1  0.49400000  0.97830000  0.39630000  1.0 0.2701950583
H  H92  1  0.50600000  0.02170000  0.89630000  1.0 0.2701950583
H  H93  1  0.47830000  0.00600000  0.14630000  1.0 0.2701950583
H  H94  1  0.52170000  0.99400000  0.64630000  1.0 0.2701950583
H  H95  1  0.02170000  0.50600000  0.10370000  1.0 0.2701950583
H  H96  1  0.97830000  0.49400000  0.60370000  1.0 0.2701950583
H  H97  1  0.68050000  0.37720000  0.35330000  1.0 0.2811946585
H  H98  1  0.31950000  0.62280000  0.85330000  1.0 0.2811946585
H  H99  1  0.18050000  0.12280000  0.39670000  1.0 0.2811946585
H  H100  1  0.81950000  0.87720000  0.89670000  1.0 0.2811946585
H  H101  1  0.62280000  0.31950000  0.14670000  1.0 0.2811946585
H  H102  1  0.37720000  0.68050000  0.64670000  1.0 0.2811946585
H  H103  1  0.87720000  0.81950000  0.10330000  1.0 0.2811946585
H  H104  1  0.12280000  0.18050000  0.60330000  1.0 0.2811946585
H  H105  1  0.63590000  0.39380000  0.33430000  1.0 0.2811946585
H  H106  1  0.36410000  0.60620000  0.83430000  1.0 0.2811946585
H  H107  1  0.13590000  0.10620000  0.41570000  1.0 0.2811946585
H  H108  1  0.86410000  0.89380000  0.91570000  1.0 0.2811946585
H  H109  1  0.60620000  0.36410000  0.16570000  1.0 0.2811946585
H  H110  1  0.39380000  0.63590000  0.66570000  1.0 0.2811946585
H  H111  1  0.89380000  0.86410000  0.08430000  1.0 0.2811946585
H  H112  1  0.10620000  0.13590000  0.58430000  1.0 0.2811946585
H  H113  1  0.62910000  0.45230000  0.38770000  1.0 0.2811946585
H  H114  1  0.37090000  0.54770000  0.88770000  1.0 0.2811946585
H  H115  1  0.12910000  0.04770000  0.36230000  1.0 0.2811946585
H  H116  1  0.87090000  0.95230000  0.86230000  1.0 0.2811946585
H  H117  1  0.54770000  0.37090000  0.11230000  1.0 0.2811946585
H  H118  1  0.45230000  0.62910000  0.61230000  1.0 0.2811946585
H  H119  1  0.95230000  0.87090000  0.13770000  1.0 0.2811946585
H  H120  1  0.04770000  0.12910000  0.63770000  1.0 0.2811946585
H  H121  1  0.68580000  0.44390000  0.39680000  1.0 0.2701950583
H  H122  1  0.31420000  0.55610000  0.89680000  1.0 0.2701950583
H  H123  1  0.18580000  0.05610000  0.35320000  1.0 0.2701950583
H  H124  1  0.81420000  0.94390000  0.85320000  1.0 0.2701950583
H  H125  1  0.55610000  0.31420000  0.10320000  1.0 0.2701950583
H  H126  1  0.44390000  0.68580000  0.60320000  1.0 0.2701950583
H  H127  1  0.94390000  0.81420000  0.14680000  1.0 0.2701950583
H  H128  1  0.05610000  0.18580000  0.64680000  1.0 0.2701950583
H  H129  1  0.47860000  0.68980000  0.29000000  1.0 0.2811946585
H  H130  1  0.52140000  0.31020000  0.79000000  1.0 0.2811946585
H  H131  1  0.97860000  0.81020000  0.46000000  1.0 0.2878623439
H  H132  1  0.02140000  0.18980000  0.96000000  1.0 0.2811946585
H  H133  1  0.31020000  0.52140000  0.21000000  1.0 0.2811946585
H  H134  1  0.68980000  0.47860000  0.71000000  1.0 0.2811946585
H  H135  1  0.18980000  0.02140000  0.04000000  1.0 0.2811946585
H  H136  1  0.81020000  0.97860000  0.54000000  1.0 0.2878623439
H  H137  1  0.47870000  0.64350000  0.27010000  1.0 0.2878623439
H  H138  1  0.52130000  0.35650000  0.77010000  1.0 0.2811946585
H  H139  1  0.97870000  0.85650000  0.47990000  1.0 0.2878623439
H  H140  1  0.02130000  0.14350000  0.97990000  1.0 0.2811946585
H  H141  1  0.35650000  0.52130000  0.22990000  1.0 0.2878623439
H  H142  1  0.64350000  0.47870000  0.72990000  1.0 0.2811946585
H  H143  1  0.14350000  0.02130000  0.02010000  1.0 0.2811946585
H  H144  1  0.85650000  0.97870000  0.52010000  1.0 0.2878623439
H  H145  1  0.51120000  0.72290000  0.23090000  1.0 0.2811946585
H  H146  1  0.48880000  0.27710000  0.73090000  1.0 0.2811946585
H  H147  1  0.01120000  0.77710000  0.51910000  1.0 0.2811946585
H  H148  1  0.98880000  0.22290000  0.01910000  1.0 0.2811946585
H  H149  1  0.27710000  0.48880000  0.26910000  1.0 0.2811946585
H  H150  1  0.72290000  0.51120000  0.76910000  1.0 0.2811946585
H  H151  1  0.22290000  0.98880000  0.98090000  1.0 0.2811946585
H  H152  1  0.77710000  0.01120000  0.48090000  1.0 0.2811946585
H  H153  1  0.52660000  0.76830000  0.24980000  1.0 0.2811946585
H  H154  1  0.47340000  0.23170000  0.74980000  1.0 0.2811946585
H  H155  1  0.02660000  0.73170000  0.50020000  1.0 0.2811946585
H  H156  1  0.97340000  0.26830000  0.00020000  1.0 0.2811946585
H  H157  1  0.23170000  0.47340000  0.25020000  1.0 0.2811946585
H  H158  1  0.76830000  0.52660000  0.75020000  1.0 0.2811946585
H  H159  1  0.26830000  0.97340000  0.99980000  1.0 0.2811946585
H  H160  1  0.73170000  0.02660000  0.49980000  1.0 0.2811946585
H  H161  1  0.70930000  0.78890000  0.40950000  1.0 0.2811946585
H  H162  1  0.29070000  0.21110000  0.90950000  1.0 0.2811946585
H  H163  1  0.20930000  0.71110000  0.34050000  1.0 0.2811946585
H  H164  1  0.79070000  0.28890000  0.84050000  1.0 0.2811946585
H  H165  1  0.21110000  0.29070000  0.09050000  1.0 0.2811946585
H  H166  1  0.78890000  0.70930000  0.59050000  1.0 0.2811946585
H  H167  1  0.28890000  0.79070000  0.15950000  1.0 0.2811946585
H  H168  1  0.71110000  0.20930000  0.65950000  1.0 0.2811946585
H  H169  1  0.72220000  0.83070000  0.38830000  1.0 0.2701950583
H  H170  1  0.27780000  0.16930000  0.88830000  1.0 0.2701950583
H  H171  1  0.22220000  0.66930000  0.36170000  1.0 0.2701950583
H  H172  1  0.77780000  0.33070000  0.86170000  1.0 0.2701950583
H  H173  1  0.16930000  0.27780000  0.11170000  1.0 0.2701950583
H  H174  1  0.83070000  0.72220000  0.61170000  1.0 0.2701950583
H  H175  1  0.33070000  0.77780000  0.13830000  1.0 0.2701950583
H  H176  1  0.66930000  0.22220000  0.63830000  1.0 0.2701950583
H  H177  1  0.82170000  0.80520000  0.40240000  1.0 0.2811946585
H  H178  1  0.17830000  0.19480000  0.90240000  1.0 0.2811946585
H  H179  1  0.32170000  0.69480000  0.34760000  1.0 0.2811946585
H  H180  1  0.67830000  0.30520000  0.84760000  1.0 0.2811946585
H  H181  1  0.19480000  0.17830000  0.09760000  1.0 0.2811946585
H  H182  1  0.80520000  0.82170000  0.59760000  1.0 0.2811946585
H  H183  1  0.30520000  0.67830000  0.15240000  1.0 0.2811946585
H  H184  1  0.69480000  0.32170000  0.65240000  1.0 0.2811946585
H  H185  1  0.80890000  0.75640000  0.41910000  1.0 0.2601672594
H  H186  1  0.19110000  0.24360000  0.91910000  1.0 0.2601672594
H  H187  1  0.30890000  0.74360000  0.33090000  1.0 0.2601672594
H  H188  1  0.69110000  0.25640000  0.83090000  1.0 0.2601672594
H  H189  1  0.24360000  0.19110000  0.08090000  1.0 0.2601672594
H  H190  1  0.75640000  0.80890000  0.58090000  1.0 0.2601672594
H  H191  1  0.25640000  0.69110000  0.16910000  1.0 0.2601672594
H  H192  1  0.74360000  0.30890000  0.66910000  1.0 0.2601672594
H  H193  1  0.68120000  0.55640000  0.15990000  1.0 0.1111207867
H  H194  1  0.31880000  0.44360000  0.65990000  1.0 0.1111207867
H  H195  1  0.18120000  0.94360000  0.59010000  1.0 0.1111207867
H  H196  1  0.81880000  0.05640000  0.09010000  1.0 0.1111207867
H  H197  1  0.44360000  0.31880000  0.34010000  1.0 0.1111207867
H  H198  1  0.55640000  0.68120000  0.84010000  1.0 0.1111207867
H  H199  1  0.05640000  0.81880000  0.90990000  1.0 0.1111207867
H  H200  1  0.94360000  0.18120000  0.40990000  1.0 0.1111207867
H  H201  1  0.58920000  0.51930000  0.22710000  1.0 0.1391925047
H  H202  1  0.41080000  0.48070000  0.72710000  1.0 0.1391925047
H  H203  1  0.08920000  0.98070000  0.52290000  1.0 0.1391925047
H  H204  1  0.91080000  0.01930000  0.02290000  1.0 0.1391925047
H  H205  1  0.48070000  0.41080000  0.27290000  1.0 0.1391925047
H  H206  1  0.51930000  0.58920000  0.77290000  1.0 0.1391925047
H  H207  1  0.01930000  0.91080000  0.97710000  1.0 0.1391925047
H  H208  1  0.98070000  0.08920000  0.47710000  1.0 0.1391925047
H  H209  1  0.62510000  0.47170000  0.21430000  1.0 0.1391925047
H  H210  1  0.37490000  0.52830000  0.71430000  1.0 0.1391925047
H  H211  1  0.12510000  0.02830000  0.53570000  1.0 0.1391925047
H  H212  1  0.87490000  0.97170000  0.03570000  1.0 0.1391925047
H  H213  1  0.52830000  0.37490000  0.28570000  1.0 0.1391925047
H  H214  1  0.47170000  0.62510000  0.78570000  1.0 0.1391925047
H  H215  1  0.97170000  0.87490000  0.96430000  1.0 0.1391925047
H  H216  1  0.02830000  0.12510000  0.46430000  1.0 0.1391925047
H  H217  1  0.57500000  0.49460000  0.19670000  1.0 0.1604180545
H  H218  1  0.42500000  0.50540000  0.69670000  1.0 0.1604180545
H  H219  1  0.07500000  0.00540000  0.55330000  1.0 0.1604180545
H  H220  1  0.92500000  0.99460000  0.05330000  1.0 0.1604180545
H  H221  1  0.50540000  0.42500000  0.30330000  1.0 0.1604180545
H  H222  1  0.49460000  0.57500000  0.80330000  1.0 0.1604180545
H  H223  1  0.99460000  0.92500000  0.94670000  1.0 0.1604180545
H  H224  1  0.00540000  0.07500000  0.44670000  1.0 0.1604180545
H  H225  1  0.63250000  0.62110000  0.18150000  1.0 0.1391925047
H  H226  1  0.36750000  0.37890000  0.68150000  1.0 0.1391925047
H  H227  1  0.13250000  0.87890000  0.56850000  1.0 0.1391925047
H  H228  1  0.86750000  0.12110000  0.06850000  1.0 0.1391925047
H  H229  1  0.37890000  0.36750000  0.31850000  1.0 0.1391925047
H  H230  1  0.62110000  0.63250000  0.81850000  1.0 0.1391925047
H  H231  1  0.12110000  0.86750000  0.93150000  1.0 0.1391925047
H  H232  1  0.87890000  0.13250000  0.43150000  1.0 0.1391925047
H  H233  1  0.59420000  0.61050000  0.20820000  1.0 0.1391925047
H  H234  1  0.40580000  0.38950000  0.70820000  1.0 0.1391925047
H  H235  1  0.09420000  0.88950000  0.54180000  1.0 0.1391925047
H  H236  1  0.90580000  0.11050000  0.04180000  1.0 0.1391925047
H  H237  1  0.38950000  0.40580000  0.29180000  1.0 0.1391925047
H  H238  1  0.61050000  0.59420000  0.79180000  1.0 0.1391925047
H  H239  1  0.11050000  0.90580000  0.95820000  1.0 0.1391925047
H  H240  1  0.88950000  0.09420000  0.45820000  1.0 0.1391925047
H  H241  1  0.57770000  0.58810000  0.17760000  1.0 0.1604180545
H  H242  1  0.42230000  0.41190000  0.67760000  1.0 0.1604180545
H  H243  1  0.07770000  0.91190000  0.57240000  1.0 0.1604180545
H  H244  1  0.92230000  0.08810000  0.07240000  1.0 0.1604180545
H  H245  1  0.41190000  0.42230000  0.32240000  1.0 0.1604180545
H  H246  1  0.58810000  0.57770000  0.82240000  1.0 0.1604180545
H  H247  1  0.08810000  0.92230000  0.92760000  1.0 0.1604180545
H  H248  1  0.91190000  0.07770000  0.42760000  1.0 0.1604180545
H  H249  1  0.84820000  0.40340000  0.22290000  1.0 0.1203508829
H  H250  1  0.15180000  0.59660000  0.72290000  1.0 0.1203508829
H  H251  1  0.34820000  0.09660000  0.52710000  1.0 0.1203508829
H  H252  1  0.65180000  0.90340000  0.02710000  1.0 0.1203508829
H  H253  1  0.59660000  0.15180000  0.27710000  1.0 0.1203508829
H  H254  1  0.40340000  0.84820000  0.77710000  1.0 0.1203508829
H  H255  1  0.90340000  0.65180000  0.97290000  1.0 0.1203508829
H  H256  1  0.09660000  0.34820000  0.47290000  1.0 0.1203508829
H  H257  1  0.91480000  0.54670000  0.19750000  1.0 0.1391925047
H  H258  1  0.08520000  0.45330000  0.69750000  1.0 0.1391925047
H  H259  1  0.41480000  0.95330000  0.55250000  1.0 0.1391925047
H  H260  1  0.58520000  0.04670000  0.05250000  1.0 0.1391925047
H  H261  1  0.45330000  0.08520000  0.30250000  1.0 0.1391925047
H  H262  1  0.54670000  0.91480000  0.80250000  1.0 0.1391925047
H  H263  1  0.04670000  0.58520000  0.94750000  1.0 0.1391925047
H  H264  1  0.95330000  0.41480000  0.44750000  1.0 0.1391925047
H  H265  1  0.86680000  0.52140000  0.17920000  1.0 0.1391925047
H  H266  1  0.13320000  0.47860000  0.67920000  1.0 0.1391925047
H  H267  1  0.36680000  0.97860000  0.57080000  1.0 0.1391925047
H  H268  1  0.63320000  0.02140000  0.07080000  1.0 0.1391925047
H  H269  1  0.47860000  0.13320000  0.32080000  1.0 0.1391925047
H  H270  1  0.52140000  0.86680000  0.82080000  1.0 0.1391925047
H  H271  1  0.02140000  0.63320000  0.92920000  1.0 0.1391925047
H  H272  1  0.97860000  0.36680000  0.42920000  1.0 0.1391925047
H  H273  1  0.92500000  0.49380000  0.17900000  1.0 0.1604180545
H  H274  1  0.07500000  0.50620000  0.67900000  1.0 0.1604180545
H  H275  1  0.42500000  0.00620000  0.57100000  1.0 0.1604180545
H  H276  1  0.57500000  0.99380000  0.07100000  1.0 0.1604180545
H  H277  1  0.50620000  0.07500000  0.32100000  1.0 0.1604180545
H  H278  1  0.49380000  0.92500000  0.82100000  1.0 0.1604180545
H  H279  1  0.99380000  0.57500000  0.92900000  1.0 0.1604180545
H  H280  1  0.00620000  0.42500000  0.42900000  1.0 0.1604180545
H  H281  1  0.94030000  0.50700000  0.24450000  1.0 0.1391925047
H  H282  1  0.05970000  0.49300000  0.74450000  1.0 0.1391925047
H  H283  1  0.44030000  0.99300000  0.50550000  1.0 0.1391925047
H  H284  1  0.55970000  0.00700000  0.00550000  1.0 0.1391925047
H  H285  1  0.49300000  0.05970000  0.25550000  1.0 0.1391925047
H  H286  1  0.50700000  0.94030000  0.75550000  1.0 0.1391925047
H  H287  1  0.00700000  0.55970000  0.99450000  1.0 0.1391925047
H  H288  1  0.99300000  0.44030000  0.49450000  1.0 0.1391925047
H  H289  1  0.95570000  0.44890000  0.23230000  1.0 0.1604180545
H  H290  1  0.04430000  0.55110000  0.73230000  1.0 0.1604180545
H  H291  1  0.45570000  0.05110000  0.51770000  1.0 0.1604180545
H  H292  1  0.54430000  0.94890000  0.01770000  1.0 0.1604180545
H  H293  1  0.55110000  0.04430000  0.26770000  1.0 0.1604180545
H  H294  1  0.44890000  0.95570000  0.76770000  1.0 0.1604180545
H  H295  1  0.94890000  0.54430000  0.98230000  1.0 0.1604180545
H  H296  1  0.05110000  0.45570000  0.48230000  1.0 0.1604180545
H  H297  1  0.91080000  0.45440000  0.25640000  1.0 0.1391925047
H  H298  1  0.08920000  0.54560000  0.75640000  1.0 0.1391925047
H  H299  1  0.41080000  0.04560000  0.49360000  1.0 0.1391925047
H  H300  1  0.58920000  0.95440000  0.99360000  1.0 0.1391925047
H  H301  1  0.54560000  0.08920000  0.24360000  1.0 0.1391925047
H  H302  1  0.45440000  0.91080000  0.74360000  1.0 0.1391925047
H  H303  1  0.95440000  0.58920000  0.00640000  1.0 0.1391925047
H  H304  1  0.04560000  0.41080000  0.50640000  1.0 0.1391925047
H  H305  1  0.77440000  0.73870000  0.17010000  1.0 0.1203508829
H  H306  1  0.22560000  0.26130000  0.67010000  1.0 0.1203508829
H  H307  1  0.27440000  0.76130000  0.57990000  1.0 0.1203508829
H  H308  1  0.72560000  0.23870000  0.07990000  1.0 0.1203508829
H  H309  1  0.26130000  0.22560000  0.32990000  1.0 0.1203508829
H  H310  1  0.73870000  0.77440000  0.82990000  1.0 0.1203508829
H  H311  1  0.23870000  0.72560000  0.92010000  1.0 0.1203508829
H  H312  1  0.76130000  0.27440000  0.42010000  1.0 0.1203508829
H  H313  1  0.91140000  0.70190000  0.18890000  1.0 0.1391925047
H  H314  1  0.08860000  0.29810000  0.68890000  1.0 0.1391925047
H  H315  1  0.41140000  0.79810000  0.56110000  1.0 0.1391925047
H  H316  1  0.58860000  0.20190000  0.06110000  1.0 0.1391925047
H  H317  1  0.29810000  0.08860000  0.31110000  1.0 0.1391925047
H  H318  1  0.70190000  0.91140000  0.81110000  1.0 0.1391925047
H  H319  1  0.20190000  0.58860000  0.93890000  1.0 0.1391925047
H  H320  1  0.79810000  0.41140000  0.43890000  1.0 0.1391925047
H  H321  1  0.90380000  0.66800000  0.16030000  1.0 0.1604180545
H  H322  1  0.09620000  0.33200000  0.66030000  1.0 0.1604180545
H  H323  1  0.40380000  0.83200000  0.58970000  1.0 0.1604180545
H  H324  1  0.59620000  0.16800000  0.08970000  1.0 0.1604180545
H  H325  1  0.33200000  0.09620000  0.33970000  1.0 0.1604180545
H  H326  1  0.66800000  0.90380000  0.83970000  1.0 0.1604180545
H  H327  1  0.16800000  0.59620000  0.91030000  1.0 0.1604180545
H  H328  1  0.83200000  0.40380000  0.41030000  1.0 0.1604180545
H  H329  1  0.90170000  0.63830000  0.19040000  1.0 0.1391925047
H  H330  1  0.09830000  0.36170000  0.69040000  1.0 0.1391925047
H  H331  1  0.40170000  0.86170000  0.55960000  1.0 0.1391925047
H  H332  1  0.59830000  0.13830000  0.05960000  1.0 0.1391925047
H  H333  1  0.36170000  0.09830000  0.30960000  1.0 0.1391925047
H  H334  1  0.63830000  0.90170000  0.80960000  1.0 0.1391925047
H  H335  1  0.13830000  0.59830000  0.94040000  1.0 0.1391925047
H  H336  1  0.86170000  0.40170000  0.44040000  1.0 0.1391925047
H  H337  1  0.81400000  0.60260000  0.17760000  1.0 0.1391925047
H  H338  1  0.18600000  0.39740000  0.67760000  1.0 0.1391925047
H  H339  1  0.31400000  0.89740000  0.57240000  1.0 0.1391925047
H  H340  1  0.68600000  0.10260000  0.07240000  1.0 0.1391925047
H  H341  1  0.39740000  0.18600000  0.32240000  1.0 0.1391925047
H  H342  1  0.60260000  0.81400000  0.82240000  1.0 0.1391925047
H  H343  1  0.10260000  0.68600000  0.92760000  1.0 0.1391925047
H  H344  1  0.89740000  0.31400000  0.42760000  1.0 0.1391925047
H  H345  1  0.80740000  0.63580000  0.14880000  1.0 0.1678528073
H  H346  1  0.19260000  0.36420000  0.64880000  1.0 0.1678528073
H  H347  1  0.30740000  0.86420000  0.60120000  1.0 0.1678528073
H  H348  1  0.69260000  0.13580000  0.10120000  1.0 0.1678528073
H  H349  1  0.36420000  0.19260000  0.35120000  1.0 0.1678528073
H  H350  1  0.63580000  0.80740000  0.85120000  1.0 0.1678528073
H  H351  1  0.13580000  0.69260000  0.89880000  1.0 0.1678528073
H  H352  1  0.86420000  0.30740000  0.39880000  1.0 0.1678528073
H  H353  1  0.76300000  0.64100000  0.17320000  1.0 0.1391925047
H  H354  1  0.23700000  0.35900000  0.67320000  1.0 0.1391925047
H  H355  1  0.26300000  0.85900000  0.57680000  1.0 0.1391925047
H  H356  1  0.73700000  0.14100000  0.07680000  1.0 0.1391925047
H  H357  1  0.35900000  0.23700000  0.32680000  1.0 0.1391925047
H  H358  1  0.64100000  0.76300000  0.82680000  1.0 0.1391925047
H  H359  1  0.14100000  0.73700000  0.92320000  1.0 0.1391925047
H  H360  1  0.85900000  0.26300000  0.42320000  1.0 0.1391925047
H  H361  1  0.90700000  0.84320000  0.27410000  1.0 0.1203508829
H  H362  1  0.09300000  0.15680000  0.77410000  1.0 0.1203508829
H  H363  1  0.40700000  0.65680000  0.47590000  1.0 0.1203508829
H  H364  1  0.59300000  0.34320000  0.97590000  1.0 0.1203508829
H  H365  1  0.15680000  0.09300000  0.22590000  1.0 0.1203508829
H  H366  1  0.84320000  0.90700000  0.72590000  1.0 0.1203508829
H  H367  1  0.34320000  0.59300000  0.02410000  1.0 0.1203508829
H  H368  1  0.65680000  0.40700000  0.52410000  1.0 0.1203508829
H  H369  1  0.76490000  0.86640000  0.25150000  1.0 0.1313428387
H  H370  1  0.23510000  0.13360000  0.75150000  1.0 0.1313428387
H  H371  1  0.26490000  0.63360000  0.49850000  1.0 0.1313428387
H  H372  1  0.73510000  0.36640000  0.99850000  1.0 0.1313428387
H  H373  1  0.13360000  0.23510000  0.24850000  1.0 0.1313428387
H  H374  1  0.86640000  0.76490000  0.74850000  1.0 0.1313428387
H  H375  1  0.36640000  0.73510000  0.00150000  1.0 0.1313428387
H  H376  1  0.63360000  0.26490000  0.50150000  1.0 0.1313428387
H  H377  1  0.76810000  0.90950000  0.27660000  1.0 0.1604180545
H  H378  1  0.23190000  0.09050000  0.77660000  1.0 0.1604180545
H  H379  1  0.26810000  0.59050000  0.47340000  1.0 0.1604180545
H  H380  1  0.73190000  0.40950000  0.97340000  1.0 0.1604180545
H  H381  1  0.09050000  0.23190000  0.22340000  1.0 0.1604180545
H  H382  1  0.90950000  0.76810000  0.72340000  1.0 0.1604180545
H  H383  1  0.40950000  0.73190000  0.02660000  1.0 0.1604180545
H  H384  1  0.59050000  0.26810000  0.52660000  1.0 0.1604180545
H  H385  1  0.73850000  0.85310000  0.28160000  1.0 0.1203508829
H  H386  1  0.26150000  0.14690000  0.78160000  1.0 0.1203508829
H  H387  1  0.23850000  0.64690000  0.46840000  1.0 0.1203508829
H  H388  1  0.76150000  0.35310000  0.96840000  1.0 0.1203508829
H  H389  1  0.14690000  0.26150000  0.21840000  1.0 0.1203508829
H  H390  1  0.85310000  0.73850000  0.71840000  1.0 0.1203508829
H  H391  1  0.35310000  0.76150000  0.03160000  1.0 0.1203508829
H  H392  1  0.64690000  0.23850000  0.53160000  1.0 0.1203508829
H  H393  1  0.79560000  0.84130000  0.32080000  1.0 0.1313428387
H  H394  1  0.20440000  0.15870000  0.82080000  1.0 0.1313428387
H  H395  1  0.29560000  0.65870000  0.42920000  1.0 0.1313428387
H  H396  1  0.70440000  0.34130000  0.92920000  1.0 0.1313428387
H  H397  1  0.15870000  0.20440000  0.17920000  1.0 0.1313428387
H  H398  1  0.84130000  0.79560000  0.67920000  1.0 0.1313428387
H  H399  1  0.34130000  0.70440000  0.07080000  1.0 0.1313428387
H  H400  1  0.65870000  0.29560000  0.57080000  1.0 0.1313428387
H  H401  1  0.83530000  0.89100000  0.31550000  1.0 0.1604180545
H  H402  1  0.16470000  0.10900000  0.81550000  1.0 0.1604180545
H  H403  1  0.33530000  0.60900000  0.43450000  1.0 0.1604180545
H  H404  1  0.66470000  0.39100000  0.93450000  1.0 0.1604180545
H  H405  1  0.10900000  0.16470000  0.18450000  1.0 0.1604180545
H  H406  1  0.89100000  0.83530000  0.68450000  1.0 0.1604180545
H  H407  1  0.39100000  0.66470000  0.06550000  1.0 0.1604180545
H  H408  1  0.60900000  0.33530000  0.56550000  1.0 0.1604180545
H  H409  1  0.85920000  0.83150000  0.31890000  1.0 0.1313428387
H  H410  1  0.14080000  0.16850000  0.81890000  1.0 0.1313428387
H  H411  1  0.35920000  0.66850000  0.43110000  1.0 0.1313428387
H  H412  1  0.64080000  0.33150000  0.93110000  1.0 0.1313428387
H  H413  1  0.16850000  0.14080000  0.18110000  1.0 0.1313428387
H  H414  1  0.83150000  0.85920000  0.68110000  1.0 0.1313428387
H  H415  1  0.33150000  0.64080000  0.06890000  1.0 0.1313428387
H  H416  1  0.66850000  0.35920000  0.56890000  1.0 0.1313428387
H  H417  1  0.01380000  0.68710000  0.30460000  1.0 0.1203508829
H  H418  1  0.98620000  0.31290000  0.80460000  1.0 0.1203508829
H  H419  1  0.51380000  0.81290000  0.44540000  1.0 0.1203508829
H  H420  1  0.48620000  0.18710000  0.94540000  1.0 0.1203508829
H  H421  1  0.31290000  0.98620000  0.19540000  1.0 0.1203508829
H  H422  1  0.68710000  0.01380000  0.69540000  1.0 0.1203508829
H  H423  1  0.18710000  0.48620000  0.05460000  1.0 0.1203508829
H  H424  1  0.81290000  0.51380000  0.55460000  1.0 0.1203508829
H  H425  1  0.00270000  0.58320000  0.25290000  1.0 0.1313428387
H  H426  1  0.99730000  0.41680000  0.75290000  1.0 0.1313428387
H  H427  1  0.50270000  0.91680000  0.49710000  1.0 0.1313428387
H  H428  1  0.49730000  0.08320000  0.99710000  1.0 0.1313428387
H  H429  1  0.41680000  0.99730000  0.24710000  1.0 0.1313428387
H  H430  1  0.58320000  0.00270000  0.74710000  1.0 0.1313428387
H  H431  1  0.08320000  0.49730000  0.00290000  1.0 0.1313428387
H  H432  1  0.91680000  0.50270000  0.50290000  1.0 0.1313428387
H  H433  1  0.02470000  0.62980000  0.23260000  1.0 0.1604180545
H  H434  1  0.97530000  0.37020000  0.73260000  1.0 0.1604180545
H  H435  1  0.52470000  0.87020000  0.51740000  1.0 0.1604180545
H  H436  1  0.47530000  0.12980000  0.01740000  1.0 0.1604180545
H  H437  1  0.37020000  0.97530000  0.26740000  1.0 0.1604180545
H  H438  1  0.62980000  0.02470000  0.76740000  1.0 0.1604180545
H  H439  1  0.12980000  0.47530000  0.98260000  1.0 0.1604180545
H  H440  1  0.87020000  0.52470000  0.48260000  1.0 0.1604180545
H  H441  1  0.96230000  0.61380000  0.23190000  1.0 0.1313428387
H  H442  1  0.03770000  0.38620000  0.73190000  1.0 0.1313428387
H  H443  1  0.46230000  0.88620000  0.51810000  1.0 0.1313428387
H  H444  1  0.53770000  0.11380000  0.01810000  1.0 0.1313428387
H  H445  1  0.38620000  0.03770000  0.26810000  1.0 0.1313428387
H  H446  1  0.61380000  0.96230000  0.76810000  1.0 0.1313428387
H  H447  1  0.11380000  0.53770000  0.98190000  1.0 0.1313428387
H  H448  1  0.88620000  0.46230000  0.48190000  1.0 0.1313428387
H  H449  1  0.95820000  0.73900000  0.26700000  1.0 0.1391925047
H  H450  1  0.04180000  0.26100000  0.76700000  1.0 0.1391925047
H  H451  1  0.45820000  0.76100000  0.48300000  1.0 0.1391925047
H  H452  1  0.54180000  0.23900000  0.98300000  1.0 0.1391925047
H  H453  1  0.26100000  0.04180000  0.23300000  1.0 0.1391925047
H  H454  1  0.73900000  0.95820000  0.73300000  1.0 0.1391925047
H  H455  1  0.23900000  0.54180000  0.01700000  1.0 0.1391925047
H  H456  1  0.76100000  0.45820000  0.51700000  1.0 0.1391925047
H  H457  1  0.93680000  0.70700000  0.23990000  1.0 0.1391925047
H  H458  1  0.06320000  0.29300000  0.73990000  1.0 0.1391925047
H  H459  1  0.43680000  0.79300000  0.51010000  1.0 0.1391925047
H  H460  1  0.56320000  0.20700000  0.01010000  1.0 0.1391925047
H  H461  1  0.29300000  0.06320000  0.26010000  1.0 0.1391925047
H  H462  1  0.70700000  0.93680000  0.76010000  1.0 0.1391925047
H  H463  1  0.20700000  0.56320000  0.98990000  1.0 0.1391925047
H  H464  1  0.79300000  0.43680000  0.48990000  1.0 0.1391925047
H  H465  1  0.99830000  0.72570000  0.24150000  1.0 0.1678528073
H  H466  1  0.00170000  0.27430000  0.74150000  1.0 0.1678528073
H  H467  1  0.49830000  0.77430000  0.50850000  1.0 0.1678528073
H  H468  1  0.50170000  0.22570000  0.00850000  1.0 0.1678528073
H  H469  1  0.27430000  0.00170000  0.25850000  1.0 0.1678528073
H  H470  1  0.72570000  0.99830000  0.75850000  1.0 0.1678528073
H  H471  1  0.22570000  0.50170000  0.99150000  1.0 0.1678528073
H  H472  1  0.77430000  0.49830000  0.49150000  1.0 0.1678528073
H  H473  1  0.95320000  0.44470000  0.31780000  1.0 0.1203508829
H  H474  1  0.04680000  0.55530000  0.81780000  1.0 0.1203508829
H  H475  1  0.45320000  0.05530000  0.43220000  1.0 0.1203508829
H  H476  1  0.54680000  0.94470000  0.93220000  1.0 0.1203508829
H  H477  1  0.55530000  0.04680000  0.18220000  1.0 0.1203508829
H  H478  1  0.44470000  0.95320000  0.68220000  1.0 0.1203508829
H  H479  1  0.94470000  0.54680000  0.06780000  1.0 0.1203508829
H  H480  1  0.05530000  0.45320000  0.56780000  1.0 0.1203508829
H  H481  1  0.86640000  0.50580000  0.38590000  1.0 0.1391925047
H  H482  1  0.13360000  0.49420000  0.88590000  1.0 0.1391925047
H  H483  1  0.36640000  0.99420000  0.36410000  1.0 0.1391925047
H  H484  1  0.63360000  0.00580000  0.86410000  1.0 0.1391925047
H  H485  1  0.49420000  0.13360000  0.11410000  1.0 0.1391925047
H  H486  1  0.50580000  0.86640000  0.61410000  1.0 0.1391925047
H  H487  1  0.00580000  0.63360000  0.13590000  1.0 0.1391925047
H  H488  1  0.99420000  0.36640000  0.63590000  1.0 0.1391925047
H  H489  1  0.92540000  0.52900000  0.38000000  1.0 0.1391925047
H  H490  1  0.07460000  0.47100000  0.88000000  1.0 0.1391925047
H  H491  1  0.42540000  0.97100000  0.37000000  1.0 0.1391925047
H  H492  1  0.57460000  0.02900000  0.87000000  1.0 0.1391925047
H  H493  1  0.47100000  0.07460000  0.12000000  1.0 0.1391925047
H  H494  1  0.52900000  0.92540000  0.62000000  1.0 0.1391925047
H  H495  1  0.02900000  0.57460000  0.13000000  1.0 0.1391925047
H  H496  1  0.97100000  0.42540000  0.63000000  1.0 0.1391925047
H  H497  1  0.91820000  0.46880000  0.39150000  1.0 0.1604180545
H  H498  1  0.08180000  0.53120000  0.89150000  1.0 0.1604180545
H  H499  1  0.41820000  0.03120000  0.35850000  1.0 0.1604180545
H  H500  1  0.58180000  0.96880000  0.85850000  1.0 0.1604180545
H  H501  1  0.53120000  0.08180000  0.10850000  1.0 0.1604180545
H  H502  1  0.46880000  0.91820000  0.60850000  1.0 0.1604180545
H  H503  1  0.96880000  0.58180000  0.14150000  1.0 0.1604180545
H  H504  1  0.03120000  0.41820000  0.64150000  1.0 0.1604180545
H  H505  1  0.82270000  0.45070000  0.35540000  1.0 0.1391925047
H  H506  1  0.17730000  0.54930000  0.85540000  1.0 0.1391925047
H  H507  1  0.32270000  0.04930000  0.39460000  1.0 0.1391925047
H  H508  1  0.67730000  0.95070000  0.89460000  1.0 0.1391925047
H  H509  1  0.54930000  0.17730000  0.14460000  1.0 0.1391925047
H  H510  1  0.45070000  0.82270000  0.64460000  1.0 0.1391925047
H  H511  1  0.95070000  0.67730000  0.10540000  1.0 0.1391925047
H  H512  1  0.04930000  0.32270000  0.60540000  1.0 0.1391925047
H  H513  1  0.86600000  0.40320000  0.35780000  1.0 0.1678528073
H  H514  1  0.13400000  0.59680000  0.85780000  1.0 0.1678528073
H  H515  1  0.36600000  0.09680000  0.39220000  1.0 0.1678528073
H  H516  1  0.63400000  0.90320000  0.89220000  1.0 0.1678528073
H  H517  1  0.59680000  0.13400000  0.14220000  1.0 0.1678528073
H  H518  1  0.40320000  0.86600000  0.64220000  1.0 0.1678528073
H  H519  1  0.90320000  0.63400000  0.10780000  1.0 0.1678528073
H  H520  1  0.09680000  0.36600000  0.60780000  1.0 0.1678528073
H  H521  1  0.84880000  0.42560000  0.32740000  1.0 0.1391925047
H  H522  1  0.15120000  0.57440000  0.82740000  1.0 0.1391925047
H  H523  1  0.34880000  0.07440000  0.42260000  1.0 0.1391925047
H  H524  1  0.65120000  0.92560000  0.92260000  1.0 0.1391925047
H  H525  1  0.57440000  0.15120000  0.17260000  1.0 0.1391925047
H  H526  1  0.42560000  0.84880000  0.67260000  1.0 0.1391925047
H  H527  1  0.92560000  0.65120000  0.07740000  1.0 0.1391925047
H  H528  1  0.07440000  0.34880000  0.57740000  1.0 0.1391925047
H  H529  1  0.74150000  0.37140000  0.31700000  1.0 0.1313428387
H  H530  1  0.25850000  0.62860000  0.81700000  1.0 0.1313428387
H  H531  1  0.24150000  0.12860000  0.43300000  1.0 0.1313428387
H  H532  1  0.75850000  0.87140000  0.93300000  1.0 0.1313428387
H  H533  1  0.62860000  0.25850000  0.18300000  1.0 0.1313428387
H  H534  1  0.37140000  0.74150000  0.68300000  1.0 0.1313428387
H  H535  1  0.87140000  0.75850000  0.06700000  1.0 0.1313428387
H  H536  1  0.12860000  0.24150000  0.56700000  1.0 0.1313428387
H  H537  1  0.61270000  0.42770000  0.29720000  1.0 0.1391925047
H  H538  1  0.38730000  0.57230000  0.79720000  1.0 0.1391925047
H  H539  1  0.11270000  0.07230000  0.45280000  1.0 0.1391925047
H  H540  1  0.88730000  0.92770000  0.95280000  1.0 0.1391925047
H  H541  1  0.57230000  0.38730000  0.20280000  1.0 0.1391925047
H  H542  1  0.42770000  0.61270000  0.70280000  1.0 0.1391925047
H  H543  1  0.92770000  0.88730000  0.04720000  1.0 0.1391925047
H  H544  1  0.07230000  0.11270000  0.54720000  1.0 0.1391925047
H  H545  1  0.61830000  0.38480000  0.27210000  1.0 0.1462081945
H  H546  1  0.38170000  0.61520000  0.77210000  1.0 0.1462081945
H  H547  1  0.11830000  0.11520000  0.47790000  1.0 0.1462081945
H  H548  1  0.88170000  0.88480000  0.97790000  1.0 0.1462081945
H  H549  1  0.61520000  0.38170000  0.22790000  1.0 0.1462081945
H  H550  1  0.38480000  0.61830000  0.72790000  1.0 0.1462081945
H  H551  1  0.88480000  0.88170000  0.02210000  1.0 0.1462081945
H  H552  1  0.11520000  0.11830000  0.52210000  1.0 0.1462081945
H  H553  1  0.62820000  0.44740000  0.26600000  1.0 0.1391925047
H  H554  1  0.37180000  0.55260000  0.76600000  1.0 0.1391925047
H  H555  1  0.12820000  0.05260000  0.48400000  1.0 0.1391925047
H  H556  1  0.87180000  0.94740000  0.98400000  1.0 0.1391925047
H  H557  1  0.55260000  0.37180000  0.23400000  1.0 0.1391925047
H  H558  1  0.44740000  0.62820000  0.73400000  1.0 0.1391925047
H  H559  1  0.94740000  0.87180000  0.01600000  1.0 0.1391925047
H  H560  1  0.05260000  0.12820000  0.51600000  1.0 0.1391925047
H  H561  1  0.71600000  0.42430000  0.24680000  1.0 0.1391925047
H  H562  1  0.28400000  0.57570000  0.74680000  1.0 0.1391925047
H  H563  1  0.21600000  0.07570000  0.50320000  1.0 0.1391925047
H  H564  1  0.78400000  0.92430000  0.00320000  1.0 0.1391925047
H  H565  1  0.57570000  0.28400000  0.25320000  1.0 0.1391925047
H  H566  1  0.42430000  0.71600000  0.75320000  1.0 0.1391925047
H  H567  1  0.92430000  0.78400000  0.99680000  1.0 0.1391925047
H  H568  1  0.07570000  0.21600000  0.49680000  1.0 0.1391925047
H  H569  1  0.71450000  0.36190000  0.25520000  1.0 0.1604180545
H  H570  1  0.28550000  0.63810000  0.75520000  1.0 0.1604180545
H  H571  1  0.21450000  0.13810000  0.49480000  1.0 0.1604180545
H  H572  1  0.78550000  0.86190000  0.99480000  1.0 0.1604180545
H  H573  1  0.63810000  0.28550000  0.24480000  1.0 0.1604180545
H  H574  1  0.36190000  0.71450000  0.74480000  1.0 0.1604180545
H  H575  1  0.86190000  0.78550000  0.00520000  1.0 0.1604180545
H  H576  1  0.13810000  0.21450000  0.50520000  1.0 0.1604180545
H  H577  1  0.76320000  0.39900000  0.26560000  1.0 0.1391925047
H  H578  1  0.23680000  0.60100000  0.76560000  1.0 0.1391925047
H  H579  1  0.26320000  0.10100000  0.48440000  1.0 0.1391925047
H  H580  1  0.73680000  0.89900000  0.98440000  1.0 0.1391925047
H  H581  1  0.60100000  0.23680000  0.23440000  1.0 0.1391925047
H  H582  1  0.39900000  0.76320000  0.73440000  1.0 0.1391925047
H  H583  1  0.89900000  0.73680000  0.01560000  1.0 0.1391925047
H  H584  1  0.10100000  0.26320000  0.51560000  1.0 0.1391925047
H  H585  1  0.62770000  0.53680000  0.39810000  1.0 0.1203508829
H  H586  1  0.37230000  0.46320000  0.89810000  1.0 0.1203508829
H  H587  1  0.12770000  0.96320000  0.35190000  1.0 0.1203508829
H  H588  1  0.87230000  0.03680000  0.85190000  1.0 0.1203508829
H  H589  1  0.46320000  0.37230000  0.10190000  1.0 0.1203508829
H  H590  1  0.53680000  0.62770000  0.60190000  1.0 0.1203508829
H  H591  1  0.03680000  0.87230000  0.14810000  1.0 0.1203508829
H  H592  1  0.96320000  0.12770000  0.64810000  1.0 0.1203508829
H  H593  1  0.76240000  0.48460000  0.39990000  1.0 0.1391925047
H  H594  1  0.23760000  0.51540000  0.89990000  1.0 0.1391925047
H  H595  1  0.26240000  0.01540000  0.35010000  1.0 0.1391925047
H  H596  1  0.73760000  0.98460000  0.85010000  1.0 0.1391925047
H  H597  1  0.51540000  0.23760000  0.10010000  1.0 0.1391925047
H  H598  1  0.48460000  0.76240000  0.60010000  1.0 0.1391925047
H  H599  1  0.98460000  0.73760000  0.14990000  1.0 0.1391925047
H  H600  1  0.01540000  0.26240000  0.64990000  1.0 0.1391925047
H  H601  1  0.76390000  0.51880000  0.42860000  1.0 0.1604180545
H  H602  1  0.23610000  0.48120000  0.92860000  1.0 0.1604180545
H  H603  1  0.26390000  0.98120000  0.32140000  1.0 0.1604180545
H  H604  1  0.73610000  0.01880000  0.82140000  1.0 0.1604180545
H  H605  1  0.48120000  0.23610000  0.07140000  1.0 0.1604180545
H  H606  1  0.51880000  0.76390000  0.57140000  1.0 0.1604180545
H  H607  1  0.01880000  0.73610000  0.17860000  1.0 0.1604180545
H  H608  1  0.98120000  0.26390000  0.67860000  1.0 0.1604180545
H  H609  1  0.79400000  0.54070000  0.40090000  1.0 0.1391925047
H  H610  1  0.20600000  0.45930000  0.90090000  1.0 0.1391925047
H  H611  1  0.29400000  0.95930000  0.34910000  1.0 0.1391925047
H  H612  1  0.70600000  0.04070000  0.84910000  1.0 0.1391925047
H  H613  1  0.45930000  0.20600000  0.09910000  1.0 0.1391925047
H  H614  1  0.54070000  0.79400000  0.59910000  1.0 0.1391925047
H  H615  1  0.04070000  0.70600000  0.15090000  1.0 0.1391925047
H  H616  1  0.95930000  0.29400000  0.65090000  1.0 0.1391925047
H  H617  1  0.73720000  0.62580000  0.40650000  1.0 0.1391925047
H  H618  1  0.26280000  0.37420000  0.90650000  1.0 0.1391925047
H  H619  1  0.23720000  0.87420000  0.34350000  1.0 0.1391925047
H  H620  1  0.76280000  0.12580000  0.84350000  1.0 0.1391925047
H  H621  1  0.37420000  0.26280000  0.09350000  1.0 0.1391925047
H  H622  1  0.62580000  0.73720000  0.59350000  1.0 0.1391925047
H  H623  1  0.12580000  0.76280000  0.15650000  1.0 0.1391925047
H  H624  1  0.87420000  0.23720000  0.65650000  1.0 0.1391925047
H  H625  1  0.69890000  0.60280000  0.43100000  1.0 0.1678528073
H  H626  1  0.30110000  0.39720000  0.93100000  1.0 0.1678528073
H  H627  1  0.19890000  0.89720000  0.31900000  1.0 0.1678528073
H  H628  1  0.80110000  0.10280000  0.81900000  1.0 0.1678528073
H  H629  1  0.39720000  0.30110000  0.06900000  1.0 0.1678528073
H  H630  1  0.60280000  0.69890000  0.56900000  1.0 0.1678528073
H  H631  1  0.10280000  0.80110000  0.18100000  1.0 0.1678528073
H  H632  1  0.89720000  0.19890000  0.68100000  1.0 0.1678528073
H  H633  1  0.67340000  0.62430000  0.40200000  1.0 0.1313428387
H  H634  1  0.32660000  0.37570000  0.90200000  1.0 0.1313428387
H  H635  1  0.17340000  0.87570000  0.34800000  1.0 0.1313428387
H  H636  1  0.82660000  0.12430000  0.84800000  1.0 0.1313428387
H  H637  1  0.37570000  0.32660000  0.09800000  1.0 0.1313428387
H  H638  1  0.62430000  0.67340000  0.59800000  1.0 0.1313428387
H  H639  1  0.12430000  0.82660000  0.15200000  1.0 0.1313428387
H  H640  1  0.87570000  0.17340000  0.65200000  1.0 0.1313428387
H  H641  1  0.51290000  0.64080000  0.32700000  1.0 0.1203508829
H  H642  1  0.48710000  0.35920000  0.82700000  1.0 0.1203508829
H  H643  1  0.01290000  0.85920000  0.42300000  1.0 0.1203508829
H  H644  1  0.98710000  0.14080000  0.92300000  1.0 0.1203508829
H  H645  1  0.35920000  0.48710000  0.17300000  1.0 0.1203508829
H  H646  1  0.64080000  0.51290000  0.67300000  1.0 0.1203508829
H  H647  1  0.14080000  0.98710000  0.07700000  1.0 0.1203508829
H  H648  1  0.85920000  0.01290000  0.57700000  1.0 0.1203508829
H  H649  1  0.55760000  0.51700000  0.27500000  1.0 0.1391925047
H  H650  1  0.44240000  0.48300000  0.77500000  1.0 0.1391925047
H  H651  1  0.05760000  0.98300000  0.47500000  1.0 0.1391925047
H  H652  1  0.94240000  0.01700000  0.97500000  1.0 0.1391925047
H  H653  1  0.48300000  0.44240000  0.22500000  1.0 0.1391925047
H  H654  1  0.51700000  0.55760000  0.72500000  1.0 0.1391925047
H  H655  1  0.01700000  0.94240000  0.02500000  1.0 0.1391925047
H  H656  1  0.98300000  0.05760000  0.52500000  1.0 0.1391925047
H  H657  1  0.52590000  0.56620000  0.26090000  1.0 0.1391925047
H  H658  1  0.47410000  0.43380000  0.76090000  1.0 0.1391925047
H  H659  1  0.02590000  0.93380000  0.48910000  1.0 0.1391925047
H  H660  1  0.97410000  0.06620000  0.98910000  1.0 0.1391925047
H  H661  1  0.43380000  0.47410000  0.23910000  1.0 0.1391925047
H  H662  1  0.56620000  0.52590000  0.73910000  1.0 0.1391925047
H  H663  1  0.06620000  0.97410000  0.01090000  1.0 0.1391925047
H  H664  1  0.93380000  0.02590000  0.51090000  1.0 0.1391925047
H  H665  1  0.49470000  0.52470000  0.28100000  1.0 0.1604180545
H  H666  1  0.50530000  0.47530000  0.78100000  1.0 0.1604180545
H  H667  1  0.99470000  0.97530000  0.46900000  1.0 0.1604180545
H  H668  1  0.00530000  0.02470000  0.96900000  1.0 0.1604180545
H  H669  1  0.47530000  0.50530000  0.21900000  1.0 0.1604180545
H  H670  1  0.52470000  0.49470000  0.71900000  1.0 0.1604180545
H  H671  1  0.02470000  0.00530000  0.03100000  1.0 0.1604180545
H  H672  1  0.97530000  0.99470000  0.53100000  1.0 0.1604180545
H  H673  1  0.57790000  0.51470000  0.32610000  1.0 0.1391925047
H  H674  1  0.42210000  0.48530000  0.82610000  1.0 0.1391925047
H  H675  1  0.07790000  0.98530000  0.42390000  1.0 0.1391925047
H  H676  1  0.92210000  0.01470000  0.92390000  1.0 0.1391925047
H  H677  1  0.48530000  0.42210000  0.17390000  1.0 0.1391925047
H  H678  1  0.51470000  0.57790000  0.67390000  1.0 0.1391925047
H  H679  1  0.01470000  0.92210000  0.07610000  1.0 0.1391925047
H  H680  1  0.98530000  0.07790000  0.57610000  1.0 0.1391925047
H  H681  1  0.51740000  0.52600000  0.33610000  1.0 0.1678528073
H  H682  1  0.48260000  0.47400000  0.83610000  1.0 0.1678528073
H  H683  1  0.01740000  0.97400000  0.41390000  1.0 0.1678528073
H  H684  1  0.98260000  0.02600000  0.91390000  1.0 0.1678528073
H  H685  1  0.47400000  0.48260000  0.16390000  1.0 0.1678528073
H  H686  1  0.52600000  0.51740000  0.66390000  1.0 0.1678528073
H  H687  1  0.02600000  0.98260000  0.08610000  1.0 0.1678528073
H  H688  1  0.97400000  0.01740000  0.58610000  1.0 0.1678528073
H  H689  1  0.56490000  0.56530000  0.34590000  1.0 0.1391925047
H  H690  1  0.43510000  0.43470000  0.84590000  1.0 0.1391925047
H  H691  1  0.06490000  0.93470000  0.40410000  1.0 0.1391925047
H  H692  1  0.93510000  0.06530000  0.90410000  1.0 0.1391925047
H  H693  1  0.43470000  0.43510000  0.15410000  1.0 0.1391925047
H  H694  1  0.56530000  0.56490000  0.65410000  1.0 0.1391925047
H  H695  1  0.06530000  0.93510000  0.09590000  1.0 0.1391925047
H  H696  1  0.93470000  0.06490000  0.59590000  1.0 0.1391925047
H  H697  1  0.58820000  0.72510000  0.20690000  1.0 0.1111207867
H  H698  1  0.41180000  0.27490000  0.70690000  1.0 0.1111207867
H  H699  1  0.08820000  0.77490000  0.54310000  1.0 0.1111207867
H  H700  1  0.91180000  0.22510000  0.04310000  1.0 0.1111207867
H  H701  1  0.27490000  0.41180000  0.29310000  1.0 0.1111207867
H  H702  1  0.72510000  0.58820000  0.79310000  1.0 0.1111207867
H  H703  1  0.22510000  0.91180000  0.95690000  1.0 0.1111207867
H  H704  1  0.77490000  0.08820000  0.45690000  1.0 0.1111207867
H  H705  1  0.59660000  0.81480000  0.26490000  1.0 0.1391925047
H  H706  1  0.40340000  0.18520000  0.76490000  1.0 0.1391925047
H  H707  1  0.09660000  0.68520000  0.48510000  1.0 0.1391925047
H  H708  1  0.90340000  0.31480000  0.98510000  1.0 0.1391925047
H  H709  1  0.18520000  0.40340000  0.23510000  1.0 0.1391925047
H  H710  1  0.81480000  0.59660000  0.73510000  1.0 0.1391925047
H  H711  1  0.31480000  0.90340000  0.01490000  1.0 0.1391925047
H  H712  1  0.68520000  0.09660000  0.51490000  1.0 0.1391925047
H  H713  1  0.61560000  0.85320000  0.23970000  1.0 0.1604180545
H  H714  1  0.38440000  0.14680000  0.73970000  1.0 0.1604180545
H  H715  1  0.11560000  0.64680000  0.51030000  1.0 0.1604180545
H  H716  1  0.88440000  0.35320000  0.01030000  1.0 0.1604180545
H  H717  1  0.14680000  0.38440000  0.26030000  1.0 0.1604180545
H  H718  1  0.85320000  0.61560000  0.76030000  1.0 0.1604180545
H  H719  1  0.35320000  0.88440000  0.98970000  1.0 0.1604180545
H  H720  1  0.64680000  0.11560000  0.48970000  1.0 0.1604180545
H  H721  1  0.65890000  0.82950000  0.26140000  1.0 0.1391925047
H  H722  1  0.34110000  0.17050000  0.76140000  1.0 0.1391925047
H  H723  1  0.15890000  0.67050000  0.48860000  1.0 0.1391925047
H  H724  1  0.84110000  0.32950000  0.98860000  1.0 0.1391925047
H  H725  1  0.17050000  0.34110000  0.23860000  1.0 0.1391925047
H  H726  1  0.82950000  0.65890000  0.73860000  1.0 0.1391925047
H  H727  1  0.32950000  0.84110000  0.01140000  1.0 0.1391925047
H  H728  1  0.67050000  0.15890000  0.51140000  1.0 0.1391925047
H  H729  1  0.67660000  0.74780000  0.20050000  1.0 0.1391925047
H  H730  1  0.32340000  0.25220000  0.70050000  1.0 0.1391925047
H  H731  1  0.17660000  0.75220000  0.54950000  1.0 0.1391925047
H  H732  1  0.82340000  0.24780000  0.04950000  1.0 0.1391925047
H  H733  1  0.25220000  0.32340000  0.29950000  1.0 0.1391925047
H  H734  1  0.74780000  0.67660000  0.79950000  1.0 0.1391925047
H  H735  1  0.24780000  0.82340000  0.95050000  1.0 0.1391925047
H  H736  1  0.75220000  0.17660000  0.45050000  1.0 0.1391925047
H  H737  1  0.70850000  0.78800000  0.22090000  1.0 0.1391925047
H  H738  1  0.29150000  0.21200000  0.72090000  1.0 0.1391925047
H  H739  1  0.20850000  0.71200000  0.52910000  1.0 0.1391925047
H  H740  1  0.79150000  0.28800000  0.02910000  1.0 0.1391925047
H  H741  1  0.21200000  0.29150000  0.27910000  1.0 0.1391925047
H  H742  1  0.78800000  0.70850000  0.77910000  1.0 0.1391925047
H  H743  1  0.28800000  0.79150000  0.97090000  1.0 0.1391925047
H  H744  1  0.71200000  0.20850000  0.47090000  1.0 0.1391925047
H  H745  1  0.66470000  0.81110000  0.19930000  1.0 0.1678528073
H  H746  1  0.33530000  0.18890000  0.69930000  1.0 0.1678528073
H  H747  1  0.16470000  0.68890000  0.55070000  1.0 0.1678528073
H  H748  1  0.83530000  0.31110000  0.05070000  1.0 0.1678528073
H  H749  1  0.18890000  0.33530000  0.30070000  1.0 0.1678528073
H  H750  1  0.81110000  0.66470000  0.80070000  1.0 0.1678528073
H  H751  1  0.31110000  0.83530000  0.94930000  1.0 0.1678528073
H  H752  1  0.68890000  0.16470000  0.44930000  1.0 0.1678528073
H  H753  1  0.63680000  0.76090000  0.38790000  1.0 0.1203508829
H  H754  1  0.36320000  0.23910000  0.88790000  1.0 0.1203508829
H  H755  1  0.13680000  0.73910000  0.36210000  1.0 0.1203508829
H  H756  1  0.86320000  0.26090000  0.86210000  1.0 0.1203508829
H  H757  1  0.23910000  0.36320000  0.11210000  1.0 0.1203508829
H  H758  1  0.76090000  0.63680000  0.61210000  1.0 0.1203508829
H  H759  1  0.26090000  0.86320000  0.13790000  1.0 0.1203508829
H  H760  1  0.73910000  0.13680000  0.63790000  1.0 0.1203508829
H  H761  1  0.67890000  0.83620000  0.31400000  1.0 0.1391925047
H  H762  1  0.32110000  0.16380000  0.81400000  1.0 0.1391925047
H  H763  1  0.17890000  0.66380000  0.43600000  1.0 0.1391925047
H  H764  1  0.82110000  0.33620000  0.93600000  1.0 0.1313428387
H  H765  1  0.16380000  0.32110000  0.18600000  1.0 0.1391925047
H  H766  1  0.83620000  0.67890000  0.68600000  1.0 0.1313428387
H  H767  1  0.33620000  0.82110000  0.06400000  1.0 0.1391925047
H  H768  1  0.66380000  0.17890000  0.56400000  1.0 0.1391925047
H  H769  1  0.71370000  0.84820000  0.34170000  1.0 0.1313428387
H  H770  1  0.28630000  0.15180000  0.84170000  1.0 0.1313428387
H  H771  1  0.21370000  0.65180000  0.40830000  1.0 0.1313428387
H  H772  1  0.78630000  0.34820000  0.90830000  1.0 0.1313428387
H  H773  1  0.15180000  0.28630000  0.15830000  1.0 0.1313428387
H  H774  1  0.84820000  0.71370000  0.65830000  1.0 0.1313428387
H  H775  1  0.34820000  0.78630000  0.09170000  1.0 0.1313428387
H  H776  1  0.65180000  0.21370000  0.59170000  1.0 0.1313428387
H  H777  1  0.65370000  0.87110000  0.33920000  1.0 0.1604180545
H  H778  1  0.34630000  0.12890000  0.83920000  1.0 0.1604180545
H  H779  1  0.15370000  0.62890000  0.41080000  1.0 0.1604180545
H  H780  1  0.84630000  0.37110000  0.91080000  1.0 0.1604180545
H  H781  1  0.12890000  0.34630000  0.16080000  1.0 0.1604180545
H  H782  1  0.87110000  0.65370000  0.66080000  1.0 0.1604180545
H  H783  1  0.37110000  0.84630000  0.08920000  1.0 0.1604180545
H  H784  1  0.62890000  0.15370000  0.58920000  1.0 0.1604180545
H  H785  1  0.60170000  0.77000000  0.31520000  1.0 0.1391925047
H  H786  1  0.39830000  0.23000000  0.81520000  1.0 0.1391925047
H  H787  1  0.10170000  0.73000000  0.43480000  1.0 0.1391925047
H  H788  1  0.89830000  0.27000000  0.93480000  1.0 0.1391925047
H  H789  1  0.23000000  0.39830000  0.18480000  1.0 0.1391925047
H  H790  1  0.77000000  0.60170000  0.68480000  1.0 0.1391925047
H  H791  1  0.27000000  0.89830000  0.06520000  1.0 0.1391925047
H  H792  1  0.73000000  0.10170000  0.56520000  1.0 0.1391925047
H  H793  1  0.57310000  0.80320000  0.34010000  1.0 0.1604180545
H  H794  1  0.42690000  0.19680000  0.84010000  1.0 0.1604180545
H  H795  1  0.07310000  0.69680000  0.40990000  1.0 0.1604180545
H  H796  1  0.92690000  0.30320000  0.90990000  1.0 0.1604180545
H  H797  1  0.19680000  0.42690000  0.15990000  1.0 0.1604180545
H  H798  1  0.80320000  0.57310000  0.65990000  1.0 0.1604180545
H  H799  1  0.30320000  0.92690000  0.09010000  1.0 0.1604180545
H  H800  1  0.69680000  0.07310000  0.59010000  1.0 0.1604180545
H  H801  1  0.58480000  0.74030000  0.34390000  1.0 0.1462081945
H  H802  1  0.41520000  0.25970000  0.84390000  1.0 0.1462081945
H  H803  1  0.08480000  0.75970000  0.40610000  1.0 0.1462081945
H  H804  1  0.91520000  0.24030000  0.90610000  1.0 0.1462081945
H  H805  1  0.25970000  0.41520000  0.15610000  1.0 0.1462081945
H  H806  1  0.74030000  0.58480000  0.65610000  1.0 0.1462081945
H  H807  1  0.24030000  0.91520000  0.09390000  1.0 0.1462081945
H  H808  1  0.75970000  0.08480000  0.59390000  1.0 0.1462081945
H  H809  1  0.89440000  0.76580000  0.37930000  1.0 0.1111207867
H  H810  1  0.10560000  0.23420000  0.87930000  1.0 0.1111207867
H  H811  1  0.39440000  0.73420000  0.37070000  1.0 0.1111207867
H  H812  1  0.60560000  0.26580000  0.87070000  1.0 0.1111207867
H  H813  1  0.23420000  0.10560000  0.12070000  1.0 0.1111207867
H  H814  1  0.76580000  0.89440000  0.62070000  1.0 0.1111207867
H  H815  1  0.26580000  0.60560000  0.12930000  1.0 0.1111207867
H  H816  1  0.73420000  0.39440000  0.62930000  1.0 0.1111207867
H  H817  1  0.85490000  0.61710000  0.40250000  1.0 0.1391925047
H  H818  1  0.14510000  0.38290000  0.90250000  1.0 0.1391925047
H  H819  1  0.35490000  0.88290000  0.34750000  1.0 0.1391925047
H  H820  1  0.64510000  0.11710000  0.84750000  1.0 0.1391925047
H  H821  1  0.38290000  0.14510000  0.09750000  1.0 0.1391925047
H  H822  1  0.61710000  0.85490000  0.59750000  1.0 0.1391925047
H  H823  1  0.11710000  0.64510000  0.15250000  1.0 0.1391925047
H  H824  1  0.88290000  0.35490000  0.65250000  1.0 0.1391925047
H  H825  1  0.82020000  0.66610000  0.41490000  1.0 0.1313428387
H  H826  1  0.17980000  0.33390000  0.91490000  1.0 0.1313428387
H  H827  1  0.32020000  0.83390000  0.33510000  1.0 0.1313428387
H  H828  1  0.67980000  0.16610000  0.83510000  1.0 0.1313428387
H  H829  1  0.33390000  0.17980000  0.08510000  1.0 0.1313428387
H  H830  1  0.66610000  0.82020000  0.58510000  1.0 0.1313428387
H  H831  1  0.16610000  0.67980000  0.16490000  1.0 0.1313428387
H  H832  1  0.83390000  0.32020000  0.66490000  1.0 0.1313428387
H  H833  1  0.88100000  0.65730000  0.42520000  1.0 0.1604180545
H  H834  1  0.11900000  0.34270000  0.92520000  1.0 0.1604180545
H  H835  1  0.38100000  0.84270000  0.32480000  1.0 0.1604180545
H  H836  1  0.61900000  0.15730000  0.82480000  1.0 0.1604180545
H  H837  1  0.34270000  0.11900000  0.07480000  1.0 0.1604180545
H  H838  1  0.65730000  0.88100000  0.57480000  1.0 0.1604180545
H  H839  1  0.15730000  0.61900000  0.17520000  1.0 0.1604180545
H  H840  1  0.84270000  0.38100000  0.67520000  1.0 0.1604180545
H  H841  1  0.94550000  0.69770000  0.35930000  1.0 0.1391925047
H  H842  1  0.05450000  0.30230000  0.85930000  1.0 0.1391925047
H  H843  1  0.44550000  0.80230000  0.39070000  1.0 0.1391925047
H  H844  1  0.55450000  0.19770000  0.89070000  1.0 0.1391925047
H  H845  1  0.30230000  0.05450000  0.14070000  1.0 0.1391925047
H  H846  1  0.69770000  0.94550000  0.64070000  1.0 0.1391925047
H  H847  1  0.19770000  0.55450000  0.10930000  1.0 0.1391925047
H  H848  1  0.80230000  0.44550000  0.60930000  1.0 0.1391925047
H  H849  1  0.93540000  0.63600000  0.36740000  1.0 0.1391925047
H  H850  1  0.06460000  0.36400000  0.86740000  1.0 0.1391925047
H  H851  1  0.43540000  0.86400000  0.38260000  1.0 0.1391925047
H  H852  1  0.56460000  0.13600000  0.88260000  1.0 0.1391925047
H  H853  1  0.36400000  0.06460000  0.13260000  1.0 0.1391925047
H  H854  1  0.63600000  0.93540000  0.63260000  1.0 0.1391925047
H  H855  1  0.13600000  0.56460000  0.11740000  1.0 0.1391925047
H  H856  1  0.86400000  0.43540000  0.61740000  1.0 0.1391925047
H  H857  1  0.96180000  0.67600000  0.39000000  1.0 0.1678528073
H  H858  1  0.03820000  0.32400000  0.89000000  1.0 0.1678528073
H  H859  1  0.46180000  0.82400000  0.36000000  1.0 0.1678528073
H  H860  1  0.53820000  0.17600000  0.86000000  1.0 0.1678528073
H  H861  1  0.32400000  0.03820000  0.11000000  1.0 0.1678528073
H  H862  1  0.67600000  0.96180000  0.61000000  1.0 0.1678528073
H  H863  1  0.17600000  0.53820000  0.14000000  1.0 0.1678528073
H  H864  1  0.82400000  0.46180000  0.64000000  1.0 0.1678528073
H  H865  1  0.79770000  0.45350000  0.03970000  1.0 0.1604180545
H  H866  1  0.20230000  0.54650000  0.53970000  1.0 0.1604180545
H  H867  1  0.29770000  0.04650000  0.71030000  1.0 0.1604180545
H  H868  1  0.70230000  0.95350000  0.21030000  1.0 0.1604180545
H  H869  1  0.54650000  0.20230000  0.46030000  1.0 0.1604180545
H  H870  1  0.45350000  0.79770000  0.96030000  1.0 0.1604180545
H  H871  1  0.95350000  0.70230000  0.78970000  1.0 0.1604180545
H  H872  1  0.04650000  0.29770000  0.28970000  1.0 0.1604180545
H  H873  1  0.84420000  0.42940000  0.01990000  1.0 0.1391925047
H  H874  1  0.15580000  0.57060000  0.51990000  1.0 0.1391925047
H  H875  1  0.34420000  0.07060000  0.73010000  1.0 0.1391925047
H  H876  1  0.65580000  0.92940000  0.23010000  1.0 0.1391925047
H  H877  1  0.57060000  0.15580000  0.48010000  1.0 0.1391925047
H  H878  1  0.42940000  0.84420000  0.98010000  1.0 0.1391925047
H  H879  1  0.92940000  0.65580000  0.76990000  1.0 0.1391925047
H  H880  1  0.07060000  0.34420000  0.26990000  1.0 0.1391925047
H  H881  1  0.84790000  0.49020000  0.03080000  1.0 0.1678528073
H  H882  1  0.15210000  0.50980000  0.53080000  1.0 0.1678528073
H  H883  1  0.34790000  0.00980000  0.71920000  1.0 0.1678528073
H  H884  1  0.65210000  0.99020000  0.21920000  1.0 0.1678528073
H  H885  1  0.50980000  0.15210000  0.46920000  1.0 0.1678528073
H  H886  1  0.49020000  0.84790000  0.96920000  1.0 0.1678528073
H  H887  1  0.99020000  0.65210000  0.78080000  1.0 0.1678528073
H  H888  1  0.00980000  0.34790000  0.28080000  1.0 0.1678528073
Pd  Pd1  1  0.75874000  0.49601000  0.20444000  1.0 0.2969661443
Pd  Pd2  1  0.24126000  0.50399000  0.70444000  1.0 0.2969661443
Pd  Pd3  1  0.25874000  0.00399000  0.54556000  1.0 0.2969661443
Pd  Pd4  1  0.74126000  0.99601000  0.04556000  1.0 0.2969661443
Pd  Pd5  1  0.50399000  0.24126000  0.29556000  1.0 0.2969661443
Pd  Pd6  1  0.49601000  0.75874000  0.79556000  1.0 0.2969661443
Pd  Pd7  1  0.99601000  0.74126000  0.95444000  1.0 0.2969661443
Pd  Pd8  1  0.00399000  0.25874000  0.45444000  1.0 0.2969661443
Pd  Pd9  1  0.83499000  0.77235000  0.22866000  1.0 0.2811946585
Pd  Pd10  1  0.16501000  0.22765000  0.72866000  1.0 0.2811946585
Pd  Pd11  1  0.33499000  0.72765000  0.52134000  1.0 0.2811946585
Pd  Pd12  1  0.66501000  0.27235000  0.02134000  1.0 0.2811946585
Pd  Pd13  1  0.22765000  0.16501000  0.27134000  1.0 0.2811946585
Pd  Pd14  1  0.77235000  0.83499000  0.77134000  1.0 0.2811946585
Pd  Pd15  1  0.27235000  0.66501000  0.97866000  1.0 0.2811946585
Pd  Pd16  1  0.72765000  0.33499000  0.47866000  1.0 0.2811946585
Pd  Pd17  1  0.95508000  0.57007000  0.31237000  1.0 0.2701950583
Pd  Pd18  1  0.04492000  0.42993000  0.81237000  1.0 0.2701950583
Pd  Pd19  1  0.45508000  0.92993000  0.43763000  1.0 0.2701950583
Pd  Pd20  1  0.54492000  0.07007000  0.93763000  1.0 0.2701950583
Pd  Pd21  1  0.42993000  0.04492000  0.18763000  1.0 0.2701950583
Pd  Pd22  1  0.57007000  0.95508000  0.68763000  1.0 0.2701950583
Pd  Pd23  1  0.07007000  0.54492000  0.06237000  1.0 0.2701950583
Pd  Pd24  1  0.92993000  0.45508000  0.56237000  1.0 0.2701950583
Pd  Pd25  1  0.68848000  0.47579000  0.34586000  1.0 0.313931705
Pd  Pd26  1  0.31152000  0.52421000  0.84586000  1.0 0.313931705
Pd  Pd27  1  0.18848000  0.02421000  0.40414000  1.0 0.313931705
Pd  Pd28  1  0.81152000  0.97579000  0.90414000  1.0 0.313931705
Pd  Pd29  1  0.52421000  0.31152000  0.15414000  1.0 0.313931705
Pd  Pd30  1  0.47579000  0.68848000  0.65414000  1.0 0.313931705
Pd  Pd31  1  0.97579000  0.81152000  0.09586000  1.0 0.313931705
Pd  Pd32  1  0.02421000  0.18848000  0.59586000  1.0 0.313931705
Pd  Pd33  1  0.57371000  0.68346000  0.26938000  1.0 0.2878623439
Pd  Pd34  1  0.42629000  0.31654000  0.76938000  1.0 0.2878623439
Pd  Pd35  1  0.07371000  0.81654000  0.48062000  1.0 0.2878623439
Pd  Pd36  1  0.92629000  0.18346000  0.98062000  1.0 0.2878623439
Pd  Pd37  1  0.31654000  0.42629000  0.23062000  1.0 0.2878623439
Pd  Pd38  1  0.68346000  0.57371000  0.73062000  1.0 0.2878623439
Pd  Pd39  1  0.18346000  0.92629000  0.01938000  1.0 0.2878623439
Pd  Pd40  1  0.81654000  0.07371000  0.51938000  1.0 0.2878623439
Pd  Pd41  1  0.76483000  0.74709000  0.37290000  1.0 0.2391660547
Pd  Pd42  1  0.23517000  0.25291000  0.87290000  1.0 0.2391660547
Pd  Pd43  1  0.26483000  0.75291000  0.37710000  1.0 0.2391660547
Pd  Pd44  1  0.73517000  0.24709000  0.87710000  1.0 0.2391660547
Pd  Pd45  1  0.25291000  0.23517000  0.12710000  1.0 0.2391660547
Pd  Pd46  1  0.74709000  0.76483000  0.62710000  1.0 0.2391660547
Pd  Pd47  1  0.24709000  0.73517000  0.12290000  1.0 0.2391660547
Pd  Pd48  1  0.75291000  0.26483000  0.62290000  1.0 0.2391660547
C  C1  1  0.63820000  0.54220000  0.19667000  1.0 0.2391660547
C  C2  1  0.36180000  0.45780000  0.69667000  1.0 0.2391660547
C  C3  1  0.13820000  0.95780000  0.55333000  1.0 0.2391660547
C  C4  1  0.86180000  0.04220000  0.05333000  1.0 0.2391660547
C  C5  1  0.45780000  0.36180000  0.30333000  1.0 0.2391660547
C  C6  1  0.54220000  0.63820000  0.80333000  1.0 0.2391660547
C  C7  1  0.04220000  0.86180000  0.94667000  1.0 0.2391660547
C  C8  1  0.95780000  0.13820000  0.44667000  1.0 0.2391660547
C  C9  1  0.66390000  0.52480000  0.16932000  1.0 -0.0511087159
C  C10  1  0.33610000  0.47520000  0.66932000  1.0 -0.0511087159
C  C11  1  0.16390000  0.97520000  0.58068000  1.0 -0.0511087159
C  C12  1  0.83610000  0.02480000  0.08068000  1.0 -0.0511087159
C  C13  1  0.47520000  0.33610000  0.33068000  1.0 -0.0511087159
C  C14  1  0.52480000  0.66390000  0.83068000  1.0 -0.0511087159
C  C15  1  0.02480000  0.83610000  0.91932000  1.0 -0.0511087159
C  C16  1  0.97520000  0.16390000  0.41932000  1.0 -0.0511087159
C  C17  1  0.61670000  0.49880000  0.14822000  1.0 0.5505981385
C  C18  1  0.38330000  0.50120000  0.64822000  1.0 0.5505981385
C  C19  1  0.11670000  0.00120000  0.60178000  1.0 0.5505981385
C  C20  1  0.88330000  0.99880000  0.10178000  1.0 0.5505981385
C  C21  1  0.50120000  0.38330000  0.35178000  1.0 0.5505981385
C  C22  1  0.49880000  0.61670000  0.85178000  1.0 0.5505981385
C  C23  1  0.99880000  0.88330000  0.89822000  1.0 0.5505981385
C  C24  1  0.00120000  0.11670000  0.39822000  1.0 0.5505981385
C  C25  1  0.60430000  0.50400000  0.20967000  1.0 -0.4500145074
C  C26  1  0.39570000  0.49600000  0.70967000  1.0 -0.4500145074
C  C27  1  0.10430000  0.99600000  0.54033000  1.0 -0.4500145074
C  C28  1  0.89570000  0.00400000  0.04033000  1.0 -0.4500145074
C  C29  1  0.49600000  0.39570000  0.29033000  1.0 -0.4500145074
C  C30  1  0.50400000  0.60430000  0.79033000  1.0 -0.4500145074
C  C31  1  0.00400000  0.89570000  0.95967000  1.0 -0.4500145074
C  C32  1  0.99600000  0.10430000  0.45967000  1.0 -0.4500145074
C  C33  1  0.60790000  0.59540000  0.19044000  1.0 -0.4327870134
C  C34  1  0.39210000  0.40460000  0.69044000  1.0 -0.4327870134
C  C35  1  0.10790000  0.90460000  0.55956000  1.0 -0.4327870134
C  C36  1  0.89210000  0.09540000  0.05956000  1.0 -0.4327870134
C  C37  1  0.40460000  0.39210000  0.30956000  1.0 -0.4327870134
C  C38  1  0.59540000  0.60790000  0.80956000  1.0 -0.4327870134
C  C39  1  0.09540000  0.89210000  0.94044000  1.0 -0.4327870134
C  C40  1  0.90460000  0.10790000  0.44044000  1.0 -0.4327870134
C  C41  1  0.88210000  0.47720000  0.21646000  1.0 0.2504557203
C  C42  1  0.11790000  0.52280000  0.71646000  1.0 0.2504557203
C  C43  1  0.38210000  0.02280000  0.53354000  1.0 0.2504557203
C  C44  1  0.61790000  0.97720000  0.03354000  1.0 0.2504557203
C  C45  1  0.52280000  0.11790000  0.28354000  1.0 0.2504557203
C  C46  1  0.47720000  0.88210000  0.78354000  1.0 0.2504557203
C  C47  1  0.97720000  0.61790000  0.96646000  1.0 0.2504557203
C  C48  1  0.02280000  0.38210000  0.46646000  1.0 0.2504557203
C  C49  1  0.85774000  0.42604000  0.20616000  1.0 -0.0800109068
C  C50  1  0.14226000  0.57396000  0.70616000  1.0 -0.0800109068
C  C51  1  0.35774000  0.07396000  0.54384000  1.0 -0.0800109068
C  C52  1  0.64226000  0.92604000  0.04384000  1.0 -0.0800109068
C  C53  1  0.57396000  0.14226000  0.29384000  1.0 -0.0800109068
C  C54  1  0.42604000  0.85774000  0.79384000  1.0 -0.0800109068
C  C55  1  0.92604000  0.64226000  0.95616000  1.0 -0.0800109068
C  C56  1  0.07396000  0.35774000  0.45616000  1.0 -0.0800109068
C  C57  1  0.89550000  0.39480000  0.18759000  1.0 0.5989753527
C  C58  1  0.10450000  0.60520000  0.68759000  1.0 0.5989753527
C  C59  1  0.39550000  0.10520000  0.56241000  1.0 0.5989753527
C  C60  1  0.60450000  0.89480000  0.06241000  1.0 0.5989753527
C  C61  1  0.60520000  0.10450000  0.31241000  1.0 0.5989753527
C  C62  1  0.39480000  0.89550000  0.81241000  1.0 0.5989753527
C  C63  1  0.89480000  0.60450000  0.93759000  1.0 0.5989753527
C  C64  1  0.10520000  0.39550000  0.43759000  1.0 0.5989753527
C  C65  1  0.89870000  0.51310000  0.19060000  1.0 -0.4589794158
C  C66  1  0.10130000  0.48690000  0.69060000  1.0 -0.4589794158
C  C67  1  0.39870000  0.98690000  0.55940000  1.0 -0.4589794158
C  C68  1  0.60130000  0.01310000  0.05940000  1.0 -0.4589794158
C  C69  1  0.48690000  0.10130000  0.30940000  1.0 -0.4589794158
C  C70  1  0.51310000  0.89870000  0.80940000  1.0 -0.4589794158
C  C71  1  0.01310000  0.60130000  0.94060000  1.0 -0.4589794158
C  C72  1  0.98690000  0.39870000  0.44060000  1.0 -0.4589794158
C  C73  1  0.92630000  0.47130000  0.23958000  1.0 -0.4500145074
C  C74  1  0.07370000  0.52870000  0.73958000  1.0 -0.4500145074
C  C75  1  0.42630000  0.02870000  0.51042000  1.0 -0.4500145074
C  C76  1  0.57370000  0.97130000  0.01042000  1.0 -0.4500145074
C  C77  1  0.52870000  0.07370000  0.26042000  1.0 -0.4500145074
C  C78  1  0.47130000  0.92630000  0.76042000  1.0 -0.4500145074
C  C79  1  0.97130000  0.57370000  0.98958000  1.0 -0.4500145074
C  C80  1  0.02870000  0.42630000  0.48958000  1.0 -0.4500145074
C  C81  1  0.83100000  0.68100000  0.18156000  1.0 0.2391660547
C  C82  1  0.16900000  0.31900000  0.68156000  1.0 0.2391660547
C  C83  1  0.33100000  0.81900000  0.56844000  1.0 0.2391660547
C  C84  1  0.66900000  0.18100000  0.06844000  1.0 0.2391660547
C  C85  1  0.31900000  0.16900000  0.31844000  1.0 0.2391660547
C  C86  1  0.68100000  0.83100000  0.81844000  1.0 0.2391660547
C  C87  1  0.18100000  0.66900000  0.93156000  1.0 0.2391660547
C  C88  1  0.81900000  0.33100000  0.43156000  1.0 0.2391660547
C  C89  1  0.81440000  0.73460000  0.16920000  1.0 -0.0608617966
C  C90  1  0.18560000  0.26540000  0.66920000  1.0 -0.0608617966
C  C91  1  0.31440000  0.76540000  0.58080000  1.0 -0.0608617966
C  C92  1  0.68560000  0.23460000  0.08080000  1.0 -0.0608617966
C  C93  1  0.26540000  0.18560000  0.33080000  1.0 -0.0608617966
C  C94  1  0.73460000  0.81440000  0.83080000  1.0 -0.0608617966
C  C95  1  0.23460000  0.68560000  0.91920000  1.0 -0.0608617966
C  C96  1  0.76540000  0.31440000  0.41920000  1.0 -0.0608617966
C  C97  1  0.83520000  0.74380000  0.13736000  1.0 0.5505981385
C  C98  1  0.16480000  0.25620000  0.63736000  1.0 0.5505981385
C  C99  1  0.33520000  0.75620000  0.61264000  1.0 0.5505981385
C  C100  1  0.66480000  0.24380000  0.11264000  1.0 0.5505981385
C  C101  1  0.25620000  0.16480000  0.36264000  1.0 0.5505981385
C  C102  1  0.74380000  0.83520000  0.86264000  1.0 0.5505981385
C  C103  1  0.24380000  0.66480000  0.88736000  1.0 0.5505981385
C  C104  1  0.75620000  0.33520000  0.38736000  1.0 0.5505981385
C  C105  1  0.89265000  0.67140000  0.18016000  1.0 -0.4500145074
C  C106  1  0.10735000  0.32860000  0.68016000  1.0 -0.4500145074
C  C107  1  0.39265000  0.82860000  0.56984000  1.0 -0.4500145074
C  C108  1  0.60735000  0.17140000  0.06984000  1.0 -0.4500145074
C  C109  1  0.32860000  0.10735000  0.31984000  1.0 -0.4500145074
C  C110  1  0.67140000  0.89265000  0.81984000  1.0 -0.4500145074
C  C111  1  0.17140000  0.60735000  0.93016000  1.0 -0.4500145074
C  C112  1  0.82860000  0.39265000  0.43016000  1.0 -0.4500145074
C  C113  1  0.80150000  0.63650000  0.16932000  1.0 -0.4410115258
C  C114  1  0.19850000  0.36350000  0.66932000  1.0 -0.4410115258
C  C115  1  0.30150000  0.86350000  0.58068000  1.0 -0.4410115258
C  C116  1  0.69850000  0.13650000  0.08068000  1.0 -0.4410115258
C  C117  1  0.36350000  0.19850000  0.33068000  1.0 -0.4410115258
C  C118  1  0.63650000  0.80150000  0.83068000  1.0 -0.4410115258
C  C119  1  0.13650000  0.69850000  0.91932000  1.0 -0.4410115258
C  C120  1  0.86350000  0.30150000  0.41932000  1.0 -0.4410115258
C  C121  1  0.82460000  0.84500000  0.28246000  1.0 0.2047112524
C  C122  1  0.17540000  0.15500000  0.78246000  1.0 0.2047112524
C  C123  1  0.32460000  0.65500000  0.46754000  1.0 0.2047112524
C  C124  1  0.67540000  0.34500000  0.96754000  1.0 0.2047112524
C  C125  1  0.15500000  0.17540000  0.21754000  1.0 0.2047112524
C  C126  1  0.84500000  0.82460000  0.71754000  1.0 0.2047112524
C  C127  1  0.34500000  0.67540000  0.03246000  1.0 0.2047112524
C  C128  1  0.65500000  0.32460000  0.53246000  1.0 0.2047112524
C  C129  1  0.87390000  0.86060000  0.26621000  1.0 -0.0511087159
C  C130  1  0.12610000  0.13940000  0.76621000  1.0 -0.0511087159
C  C131  1  0.37390000  0.63940000  0.48379000  1.0 -0.0511087159
C  C132  1  0.62610000  0.36060000  0.98379000  1.0 -0.0511087159
C  C133  1  0.13940000  0.12610000  0.23379000  1.0 -0.0511087159
C  C134  1  0.86060000  0.87390000  0.73379000  1.0 -0.0511087159
C  C135  1  0.36060000  0.62610000  0.01621000  1.0 -0.0511087159
C  C136  1  0.63940000  0.37390000  0.51621000  1.0 -0.0511087159
C  C137  1  0.87890000  0.92590000  0.26606000  1.0 0.5653080492
C  C138  1  0.12110000  0.07410000  0.76606000  1.0 0.5653080492
C  C139  1  0.37890000  0.57410000  0.48394000  1.0 0.5653080492
C  C140  1  0.62110000  0.42590000  0.98394000  1.0 0.5653080492
C  C141  1  0.07410000  0.12110000  0.23394000  1.0 0.56244154
C  C142  1  0.92590000  0.87890000  0.73394000  1.0 0.5653080492
C  C143  1  0.42590000  0.62110000  0.01606000  1.0 0.5653080492
C  C144  1  0.57410000  0.37890000  0.51606000  1.0 0.5653080492
C  C145  1  0.76850000  0.87110000  0.27204000  1.0 -0.4500145074
C  C146  1  0.23150000  0.12890000  0.77204000  1.0 -0.4500145074
C  C147  1  0.26850000  0.62890000  0.47796000  1.0 -0.4500145074
C  C148  1  0.73150000  0.37110000  0.97796000  1.0 -0.4500145074
C  C149  1  0.12890000  0.23150000  0.22796000  1.0 -0.4500145074
C  C150  1  0.87110000  0.76850000  0.72796000  1.0 -0.4500145074
C  C151  1  0.37110000  0.73150000  0.02204000  1.0 -0.4500145074
C  C152  1  0.62890000  0.26850000  0.52204000  1.0 -0.4500145074
C  C153  1  0.82900000  0.85280000  0.31160000  1.0 -0.4410115258
C  C154  1  0.17100000  0.14720000  0.81160000  1.0 -0.4410115258
C  C155  1  0.32900000  0.64720000  0.43840000  1.0 -0.4410115258
C  C156  1  0.67100000  0.35280000  0.93840000  1.0 -0.4410115258
C  C157  1  0.14720000  0.17100000  0.18840000  1.0 -0.4410115258
C  C158  1  0.85280000  0.82900000  0.68840000  1.0 -0.4410115258
C  C159  1  0.35280000  0.67100000  0.06160000  1.0 -0.4410115258
C  C160  1  0.64720000  0.32900000  0.56160000  1.0 -0.4410115258
C  C161  1  0.98270000  0.65880000  0.26672000  1.0 0.2391660547
C  C162  1  0.01730000  0.34120000  0.76672000  1.0 0.2391660547
C  C163  1  0.48270000  0.84120000  0.48328000  1.0 0.2391660547
C  C164  1  0.51730000  0.15880000  0.98328000  1.0 0.2391660547
C  C165  1  0.34120000  0.01730000  0.23328000  1.0 0.2391660547
C  C166  1  0.65880000  0.98270000  0.73328000  1.0 0.2391660547
C  C167  1  0.15880000  0.51730000  0.01672000  1.0 0.2391660547
C  C168  1  0.84120000  0.48270000  0.51672000  1.0 0.2391660547
C  C169  1  0.02378000  0.65920000  0.29030000  1.0 -0.0997540541
C  C170  1  0.97622000  0.34080000  0.79030000  1.0 -0.0997540541
C  C171  1  0.52378000  0.84080000  0.45970000  1.0 -0.0997540541
C  C172  1  0.47622000  0.15920000  0.95970000  1.0 -0.0997540541
C  C173  1  0.34080000  0.97622000  0.20970000  1.0 -0.0997540541
C  C174  1  0.65920000  0.02378000  0.70970000  1.0 -0.0997540541
C  C175  1  0.15920000  0.47622000  0.04030000  1.0 -0.0997540541
C  C176  1  0.84080000  0.52378000  0.54030000  1.0 -0.0997540541
C  C177  1  0.07700000  0.67220000  0.27813000  1.0 0.5290022059
C  C178  1  0.92300000  0.32780000  0.77813000  1.0 0.5290022059
C  C179  1  0.57700000  0.82780000  0.47187000  1.0 0.5290022059
C  C180  1  0.42300000  0.17220000  0.97187000  1.0 0.5290022059
C  C181  1  0.32780000  0.92300000  0.22187000  1.0 0.5290022059
C  C182  1  0.67220000  0.07700000  0.72187000  1.0 0.5290022059
C  C183  1  0.17220000  0.42300000  0.02813000  1.0 0.5290022059
C  C184  1  0.82780000  0.57700000  0.52813000  1.0 0.5290022059
C  C185  1  0.99410000  0.61780000  0.24404000  1.0 -0.4500145074
C  C186  1  0.00590000  0.38220000  0.74404000  1.0 -0.4500145074
C  C187  1  0.49410000  0.88220000  0.50596000  1.0 -0.4500145074
C  C188  1  0.50590000  0.11780000  0.00596000  1.0 -0.4500145074
C  C189  1  0.38220000  0.00590000  0.25596000  1.0 -0.4500145074
C  C190  1  0.61780000  0.99410000  0.75596000  1.0 -0.4500145074
C  C191  1  0.11780000  0.50590000  0.99404000  1.0 -0.4500145074
C  C192  1  0.88220000  0.49410000  0.49404000  1.0 -0.4500145074
C  C193  1  0.96760000  0.71250000  0.25249000  1.0 -0.4410115258
C  C194  1  0.03240000  0.28750000  0.75249000  1.0 -0.4410115258
C  C195  1  0.46760000  0.78750000  0.49751000  1.0 -0.4410115258
C  C196  1  0.53240000  0.21250000  0.99751000  1.0 -0.4410115258
C  C197  1  0.28750000  0.03240000  0.24751000  1.0 -0.4410115258
C  C198  1  0.71250000  0.96760000  0.74751000  1.0 -0.4410115258
C  C199  1  0.21250000  0.53240000  0.00249000  1.0 -0.4410115258
C  C200  1  0.78750000  0.46760000  0.50249000  1.0 -0.4410115258
C  C201  1  0.89980000  0.47600000  0.34849000  1.0 0.2601672594
C  C202  1  0.10020000  0.52400000  0.84849000  1.0 0.2601672594
C  C203  1  0.39980000  0.02400000  0.40151000  1.0 0.2601672594
C  C204  1  0.60020000  0.97600000  0.90151000  1.0 0.2504557203
C  C205  1  0.52400000  0.10020000  0.15151000  1.0 0.2601672594
C  C206  1  0.47600000  0.89980000  0.65151000  1.0 0.2601672594
C  C207  1  0.97600000  0.60020000  0.09849000  1.0 0.2601672594
C  C208  1  0.02400000  0.39980000  0.59849000  1.0 0.2601672594
C  C209  1  0.95661000  0.46070000  0.33713000  1.0 -0.0608617966
C  C210  1  0.04339000  0.53930000  0.83713000  1.0 -0.0608617966
C  C211  1  0.45661000  0.03930000  0.41287000  1.0 -0.0608617966
C  C212  1  0.54339000  0.96070000  0.91287000  1.0 -0.0608617966
C  C213  1  0.53930000  0.04339000  0.16287000  1.0 -0.0608617966
C  C214  1  0.46070000  0.95661000  0.66287000  1.0 -0.0608617966
C  C215  1  0.96070000  0.54339000  0.08713000  1.0 -0.0608617966
C  C216  1  0.03930000  0.45661000  0.58713000  1.0 -0.0608617966
C  C217  1  0.92030000  0.51150000  0.10712000  1.0 0.5653080492
C  C218  1  0.07970000  0.48850000  0.60712000  1.0 0.5653080492
C  C219  1  0.42030000  0.98850000  0.64288000  1.0 0.5653080492
C  C220  1  0.57970000  0.01150000  0.14288000  1.0 0.5653080492
C  C221  1  0.48850000  0.07970000  0.39288000  1.0 0.5653080492
C  C222  1  0.51150000  0.92030000  0.89288000  1.0 0.5653080492
C  C223  1  0.01150000  0.57970000  0.85712000  1.0 0.5653080492
C  C224  1  0.98850000  0.42030000  0.35712000  1.0 0.5653080492
C  C225  1  0.90270000  0.49680000  0.37928000  1.0 -0.4589794158
C  C226  1  0.09730000  0.50320000  0.87928000  1.0 -0.4589794158
C  C227  1  0.40270000  0.00320000  0.37072000  1.0 -0.4589794158
C  C228  1  0.59730000  0.99680000  0.87072000  1.0 -0.4589794158
C  C229  1  0.50320000  0.09730000  0.12072000  1.0 -0.4589794158
C  C230  1  0.49680000  0.90270000  0.62072000  1.0 -0.4589794158
C  C231  1  0.99680000  0.59730000  0.12928000  1.0 -0.4589794158
C  C232  1  0.00320000  0.40270000  0.62928000  1.0 -0.4589794158
C  C233  1  0.85550000  0.43540000  0.34716000  1.0 -0.4500145074
C  C234  1  0.14450000  0.56460000  0.84716000  1.0 -0.4500145074
C  C235  1  0.35550000  0.06460000  0.40284000  1.0 -0.4500145074
C  C236  1  0.64450000  0.93540000  0.90284000  1.0 -0.4500145074
C  C237  1  0.56460000  0.14450000  0.15284000  1.0 -0.4500145074
C  C238  1  0.43540000  0.85550000  0.65284000  1.0 -0.4500145074
C  C239  1  0.93540000  0.64450000  0.09716000  1.0 -0.4500145074
C  C240  1  0.06460000  0.35550000  0.59716000  1.0 -0.4500145074
C  C241  1  0.69480000  0.41120000  0.28722000  1.0 0.2504557203
C  C242  1  0.30520000  0.58880000  0.78722000  1.0 0.2391660547
C  C243  1  0.19480000  0.08880000  0.46278000  1.0 0.2504557203
C  C244  1  0.80520000  0.91120000  0.96278000  1.0 0.2391660547
C  C245  1  0.58880000  0.30520000  0.21278000  1.0 0.2504557203
C  C246  1  0.41120000  0.69480000  0.71278000  1.0 0.2391660547
C  C247  1  0.91120000  0.80520000  0.03722000  1.0 0.2504557203
C  C248  1  0.08880000  0.19480000  0.53722000  1.0 0.2504557203
C  C249  1  0.70230000  0.37360000  0.31232000  1.0 -0.0903489203
C  C250  1  0.29770000  0.62640000  0.81232000  1.0 -0.0903489203
C  C251  1  0.20230000  0.12640000  0.43768000  1.0 -0.0903489203
C  C252  1  0.79770000  0.87360000  0.93768000  1.0 -0.0903489203
C  C253  1  0.62640000  0.29770000  0.18768000  1.0 -0.0903489203
C  C254  1  0.37360000  0.70230000  0.68768000  1.0 -0.0903489203
C  C255  1  0.87360000  0.79770000  0.06232000  1.0 -0.0903489203
C  C256  1  0.12640000  0.20230000  0.56232000  1.0 -0.0903489203
C  C257  1  0.68220000  0.31890000  0.30561000  1.0 0.5505981385
C  C258  1  0.31780000  0.68110000  0.80561000  1.0 0.5505981385
C  C259  1  0.18220000  0.18110000  0.44439000  1.0 0.5505981385
C  C260  1  0.81780000  0.81890000  0.94439000  1.0 0.5505981385
C  C261  1  0.68110000  0.31780000  0.19439000  1.0 0.5505981385
C  C262  1  0.31890000  0.68220000  0.69439000  1.0 0.5505981385
C  C263  1  0.81890000  0.81780000  0.05561000  1.0 0.5505981385
C  C264  1  0.18110000  0.18220000  0.55561000  1.0 0.5505981385
C  C265  1  0.63246000  0.41850000  0.27989000  1.0 -0.4500145074
C  C266  1  0.36754000  0.58150000  0.77989000  1.0 -0.4500145074
C  C267  1  0.13246000  0.08150000  0.47011000  1.0 -0.4500145074
C  C268  1  0.86754000  0.91850000  0.97011000  1.0 -0.4500145074
C  C269  1  0.58150000  0.36754000  0.22011000  1.0 -0.4500145074
C  C270  1  0.41850000  0.63246000  0.72011000  1.0 -0.4500145074
C  C271  1  0.91850000  0.86754000  0.02989000  1.0 -0.4500145074
C  C272  1  0.08150000  0.13246000  0.52989000  1.0 -0.4500145074
C  C273  1  0.72450000  0.39800000  0.26160000  1.0 -0.4410115258
C  C274  1  0.27550000  0.60200000  0.76160000  1.0 -0.4410115258
C  C275  1  0.22450000  0.10200000  0.48840000  1.0 -0.4410115258
C  C276  1  0.77550000  0.89800000  0.98840000  1.0 -0.4410115258
C  C277  1  0.60200000  0.27550000  0.23840000  1.0 -0.4410115258
C  C278  1  0.39800000  0.72450000  0.73840000  1.0 -0.4410115258
C  C279  1  0.89800000  0.77550000  0.01160000  1.0 -0.4410115258
C  C280  1  0.10200000  0.22450000  0.51160000  1.0 -0.4410115258
C  C281  1  0.70850000  0.55190000  0.39841000  1.0 0.2391660547
C  C282  1  0.29150000  0.44810000  0.89841000  1.0 0.2391660547
C  C283  1  0.20850000  0.94810000  0.35159000  1.0 0.2391660547
C  C284  1  0.79150000  0.05190000  0.85159000  1.0 0.2391660547
C  C285  1  0.44810000  0.29150000  0.10159000  1.0 0.2391660547
C  C286  1  0.55190000  0.70850000  0.60159000  1.0 0.2391660547
C  C287  1  0.05190000  0.79150000  0.14841000  1.0 0.2391660547
C  C288  1  0.94810000  0.20850000  0.64841000  1.0 0.2391660547
C  C289  1  0.66140000  0.51670000  0.40296000  1.0 -0.0511087159
C  C290  1  0.33860000  0.48330000  0.90296000  1.0 -0.0511087159
C  C291  1  0.16140000  0.98330000  0.34704000  1.0 -0.0511087159
C  C292  1  0.83860000  0.01670000  0.84704000  1.0 -0.0511087159
C  C293  1  0.48330000  0.33860000  0.09704000  1.0 -0.0511087159
C  C294  1  0.51670000  0.66140000  0.59704000  1.0 -0.0511087159
C  C295  1  0.01670000  0.83860000  0.15296000  1.0 -0.0511087159
C  C296  1  0.98330000  0.16140000  0.65296000  1.0 -0.0511087159
C  C297  1  0.65660000  0.49210000  0.43467000  1.0 0.5391989638
C  C298  1  0.34340000  0.50790000  0.93467000  1.0 0.5391989638
C  C299  1  0.15660000  0.00790000  0.31533000  1.0 0.5391989638
C  C300  1  0.84340000  0.99210000  0.81533000  1.0 0.5391989638
C  C301  1  0.50790000  0.34340000  0.06533000  1.0 0.5391989638
C  C302  1  0.49210000  0.65660000  0.56533000  1.0 0.5391989638
C  C303  1  0.99210000  0.84340000  0.18467000  1.0 0.5391989638
C  C304  1  0.00790000  0.15660000  0.68467000  1.0 0.5391989638
C  C305  1  0.76250000  0.52100000  0.40787000  1.0 -0.4589794158
C  C306  1  0.23750000  0.47900000  0.90787000  1.0 -0.4589794158
C  C307  1  0.26250000  0.97900000  0.34213000  1.0 -0.4589794158
C  C308  1  0.73750000  0.02100000  0.84213000  1.0 -0.4589794158
C  C309  1  0.47900000  0.23750000  0.09213000  1.0 -0.4589794158
C  C310  1  0.52100000  0.76250000  0.59213000  1.0 -0.4589794158
C  C311  1  0.02100000  0.73750000  0.15787000  1.0 -0.4589794158
C  C312  1  0.97900000  0.26250000  0.65787000  1.0 -0.4589794158
C  C313  1  0.70420000  0.60559000  0.41046000  1.0 -0.4500145074
C  C314  1  0.29580000  0.39441000  0.91046000  1.0 -0.4500145074
C  C315  1  0.20420000  0.89441000  0.33954000  1.0 -0.4500145074
C  C316  1  0.79580000  0.10559000  0.83954000  1.0 -0.4500145074
C  C317  1  0.39441000  0.29580000  0.08954000  1.0 -0.4500145074
C  C318  1  0.60559000  0.70420000  0.58954000  1.0 -0.4500145074
C  C319  1  0.10559000  0.79580000  0.16046000  1.0 -0.4500145074
C  C320  1  0.89441000  0.20420000  0.66046000  1.0 -0.4500145074
C  C321  1  0.54190000  0.57850000  0.30341000  1.0 0.2601672594
C  C322  1  0.45810000  0.42150000  0.80341000  1.0 0.2601672594
C  C323  1  0.04190000  0.92150000  0.44659000  1.0 0.2601672594
C  C324  1  0.95810000  0.07850000  0.94659000  1.0 0.2601672594
C  C325  1  0.42150000  0.45810000  0.19659000  1.0 0.2601672594
C  C326  1  0.57850000  0.54190000  0.69659000  1.0 0.2601672594
C  C327  1  0.07850000  0.95810000  0.05341000  1.0 0.2601672594
C  C328  1  0.92150000  0.04190000  0.55341000  1.0 0.2601672594
C  C329  1  0.50040000  0.62010000  0.31009000  1.0 -0.1284496472
C  C330  1  0.49960000  0.37990000  0.81009000  1.0 -0.1284496472
C  C331  1  0.00040000  0.87990000  0.43991000  1.0 -0.1284496472
C  C332  1  0.99960000  0.12010000  0.93991000  1.0 -0.1284496472
C  C333  1  0.37990000  0.49960000  0.18991000  1.0 -0.1284496472
C  C334  1  0.62010000  0.50040000  0.68991000  1.0 -0.1284496472
C  C335  1  0.12010000  0.99960000  0.06009000  1.0 -0.1284496472
C  C336  1  0.87990000  0.00040000  0.56009000  1.0 -0.1284496472
C  C337  1  0.44770000  0.59880000  0.31619000  1.0 0.5391989638
C  C338  1  0.55230000  0.40120000  0.81619000  1.0 0.5391989638
C  C339  1  0.94770000  0.90120000  0.43381000  1.0 0.5391989638
C  C340  1  0.05230000  0.09880000  0.93381000  1.0 0.5391989638
C  C341  1  0.40120000  0.55230000  0.18381000  1.0 0.5391989638
C  C342  1  0.59880000  0.44770000  0.68381000  1.0 0.5391989638
C  C343  1  0.09880000  0.05230000  0.06619000  1.0 0.5391989638
C  C344  1  0.90120000  0.94770000  0.56619000  1.0 0.5391989638
C  C345  1  0.52890000  0.54340000  0.27777000  1.0 -0.4589794158
C  C346  1  0.47110000  0.45660000  0.77777000  1.0 -0.4589794158
C  C347  1  0.02890000  0.95660000  0.47223000  1.0 -0.4589794158
C  C348  1  0.97110000  0.04340000  0.97223000  1.0 -0.4589794158
C  C349  1  0.45660000  0.47110000  0.22223000  1.0 -0.4589794158
C  C350  1  0.54340000  0.52890000  0.72223000  1.0 -0.4589794158
C  C351  1  0.04340000  0.97110000  0.02777000  1.0 -0.4589794158
C  C352  1  0.95660000  0.02890000  0.52777000  1.0 -0.4589794158
C  C353  1  0.55140000  0.54280000  0.33043000  1.0 -0.4327870134
C  C354  1  0.44860000  0.45720000  0.83043000  1.0 -0.4327870134
C  C355  1  0.05140000  0.95720000  0.41957000  1.0 -0.4327870134
C  C356  1  0.94860000  0.04280000  0.91957000  1.0 -0.4327870134
C  C357  1  0.45720000  0.44860000  0.16957000  1.0 -0.4327870134
C  C358  1  0.54280000  0.55140000  0.66957000  1.0 -0.4327870134
C  C359  1  0.04280000  0.94860000  0.08043000  1.0 -0.4327870134
C  C360  1  0.95720000  0.05140000  0.58043000  1.0 -0.4327870134
C  C361  1  0.63273000  0.77460000  0.23286000  1.0 0.2307841761
C  C362  1  0.36727000  0.22540000  0.73286000  1.0 0.2307841761
C  C363  1  0.13273000  0.72540000  0.51714000  1.0 0.2307841761
C  C364  1  0.86727000  0.27460000  0.01714000  1.0 0.2307841761
C  C365  1  0.22540000  0.36727000  0.26714000  1.0 0.2307841761
C  C366  1  0.77460000  0.63273000  0.76714000  1.0 0.2307841761
C  C367  1  0.27460000  0.86727000  0.98286000  1.0 0.2307841761
C  C368  1  0.72540000  0.13273000  0.48286000  1.0 0.2307841761
C  C369  1  0.57980000  0.75690000  0.21911000  1.0 -0.0800109068
C  C370  1  0.42020000  0.24310000  0.71911000  1.0 -0.0800109068
C  C371  1  0.07980000  0.74310000  0.53089000  1.0 -0.0800109068
C  C372  1  0.92020000  0.25690000  0.03089000  1.0 -0.0800109068
C  C373  1  0.24310000  0.42020000  0.28089000  1.0 -0.0800109068
C  C374  1  0.75690000  0.57980000  0.78089000  1.0 -0.0800109068
C  C375  1  0.25690000  0.92020000  0.96911000  1.0 -0.0800109068
C  C376  1  0.74310000  0.07980000  0.46911000  1.0 -0.0800109068
C  C377  1  0.94610000  0.29850000  0.04958000  1.0 0.5989753527
C  C378  1  0.05390000  0.70150000  0.54958000  1.0 0.6050987034
C  C379  1  0.44610000  0.20150000  0.70042000  1.0 0.6050987034
C  C380  1  0.55390000  0.79850000  0.20042000  1.0 0.6050987034
C  C381  1  0.70150000  0.05390000  0.45042000  1.0 0.6050987034
C  C382  1  0.29850000  0.94610000  0.95042000  1.0 0.6050987034
C  C383  1  0.79850000  0.55390000  0.79958000  1.0 0.6050987034
C  C384  1  0.20150000  0.44610000  0.29958000  1.0 0.6050987034
C  C385  1  0.62530000  0.82200000  0.25126000  1.0 -0.4500145074
C  C386  1  0.37470000  0.17800000  0.75126000  1.0 -0.4500145074
C  C387  1  0.12530000  0.67800000  0.49874000  1.0 -0.4500145074
C  C388  1  0.87470000  0.32200000  0.99874000  1.0 -0.4500145074
C  C389  1  0.17800000  0.37470000  0.24874000  1.0 -0.4500145074
C  C390  1  0.82200000  0.62530000  0.74874000  1.0 -0.4500145074
C  C391  1  0.32200000  0.87470000  0.00126000  1.0 -0.4500145074
C  C392  1  0.67800000  0.12530000  0.50126000  1.0 -0.4500145074
C  C393  1  0.67390000  0.78090000  0.21169000  1.0 -0.4410115258
C  C394  1  0.32610000  0.21910000  0.71169000  1.0 -0.4410115258
C  C395  1  0.17390000  0.71910000  0.53831000  1.0 -0.4410115258
C  C396  1  0.82610000  0.28090000  0.03831000  1.0 -0.4410115258
C  C397  1  0.21910000  0.32610000  0.28831000  1.0 -0.4410115258
C  C398  1  0.78090000  0.67390000  0.78831000  1.0 -0.4410115258
C  C399  1  0.28090000  0.82610000  0.96169000  1.0 -0.4410115258
C  C400  1  0.71910000  0.17390000  0.46169000  1.0 -0.4410115258
C  C401  1  0.65487000  0.78730000  0.34878000  1.0 0.2504557203
C  C402  1  0.34513000  0.21270000  0.84878000  1.0 0.2504557203
C  C403  1  0.15487000  0.71270000  0.40122000  1.0 0.2504557203
C  C404  1  0.84513000  0.28730000  0.90122000  1.0 0.2504557203
C  C405  1  0.21270000  0.34513000  0.15122000  1.0 0.2504557203
C  C406  1  0.78730000  0.65487000  0.65122000  1.0 0.2504557203
C  C407  1  0.28730000  0.84513000  0.09878000  1.0 0.2504557203
C  C408  1  0.71270000  0.15487000  0.59878000  1.0 0.2504557203
C  C409  1  0.65250000  0.79500000  0.38020000  1.0 -0.1179986805
C  C410  1  0.34750000  0.20500000  0.88020000  1.0 -0.1179986805
C  C411  1  0.15250000  0.70500000  0.36980000  1.0 -0.1179986805
C  C412  1  0.84750000  0.29500000  0.86980000  1.0 -0.1179986805
C  C413  1  0.20500000  0.34750000  0.11980000  1.0 -0.1179986805
C  C414  1  0.79500000  0.65250000  0.61980000  1.0 -0.1179986805
C  C415  1  0.29500000  0.84750000  0.13020000  1.0 -0.1179986805
C  C416  1  0.70500000  0.15250000  0.63020000  1.0 -0.1179986805
C  C417  1  0.61550000  0.83820000  0.38930000  1.0 0.5391989638
C  C418  1  0.38450000  0.16180000  0.88930000  1.0 0.5391989638
C  C419  1  0.11550000  0.66180000  0.36070000  1.0 0.5391989638
C  C420  1  0.88450000  0.33820000  0.86070000  1.0 0.5391989638
C  C421  1  0.16180000  0.38450000  0.11070000  1.0 0.5391989638
C  C422  1  0.83820000  0.61550000  0.61070000  1.0 0.5391989638
C  C423  1  0.33820000  0.88450000  0.13930000  1.0 0.5391989638
C  C424  1  0.66180000  0.11550000  0.63930000  1.0 0.5391989638
C  C425  1  0.67750000  0.84090000  0.33454000  1.0 -0.4589794158
C  C426  1  0.32250000  0.15910000  0.83454000  1.0 -0.4589794158
C  C427  1  0.17750000  0.65910000  0.41546000  1.0 -0.4589794158
C  C428  1  0.82250000  0.34090000  0.91546000  1.0 -0.4589794158
C  C429  1  0.15910000  0.32250000  0.16546000  1.0 -0.4589794158
C  C430  1  0.84090000  0.67750000  0.66546000  1.0 -0.4589794158
C  C431  1  0.34090000  0.82250000  0.08454000  1.0 -0.4589794158
C  C432  1  0.65910000  0.17750000  0.58454000  1.0 -0.4589794158
C  C433  1  0.59830000  0.77390000  0.33577000  1.0 -0.4589794158
C  C434  1  0.40170000  0.22610000  0.83577000  1.0 -0.4589794158
C  C435  1  0.09830000  0.72610000  0.41423000  1.0 -0.4589794158
C  C436  1  0.90170000  0.27390000  0.91423000  1.0 -0.4589794158
C  C437  1  0.22610000  0.40170000  0.16423000  1.0 -0.4589794158
C  C438  1  0.77390000  0.59830000  0.66423000  1.0 -0.4589794158
C  C439  1  0.27390000  0.90170000  0.08577000  1.0 -0.4589794158
C  C440  1  0.72610000  0.09830000  0.58577000  1.0 -0.4589794158
C  C441  1  0.87510000  0.68845000  0.38650000  1.0 0.2307841761
C  C442  1  0.12490000  0.31155000  0.88650000  1.0 0.2307841761
C  C443  1  0.37510000  0.81155000  0.36350000  1.0 0.2307841761
C  C444  1  0.62490000  0.18845000  0.86350000  1.0 0.2307841761
C  C445  1  0.31155000  0.12490000  0.11350000  1.0 0.2307841761
C  C446  1  0.68845000  0.87510000  0.61350000  1.0 0.2307841761
C  C447  1  0.18845000  0.62490000  0.13650000  1.0 0.2307841761
C  C448  1  0.81155000  0.37510000  0.63650000  1.0 0.2307841761
C  C449  1  0.88030000  0.74540000  0.39597000  1.0 -0.0997540541
C  C450  1  0.11970000  0.25460000  0.89597000  1.0 -0.0997540541
C  C451  1  0.38030000  0.75460000  0.35403000  1.0 -0.0997540541
C  C452  1  0.61970000  0.24540000  0.85403000  1.0 -0.0997540541
C  C453  1  0.25460000  0.11970000  0.10403000  1.0 -0.0997540541
C  C454  1  0.74540000  0.88030000  0.60403000  1.0 -0.0997540541
C  C455  1  0.24540000  0.61970000  0.14597000  1.0 -0.0997540541
C  C456  1  0.75460000  0.38030000  0.64597000  1.0 -0.0997540541
C  C457  1  0.91950000  0.75850000  0.42118000  1.0 0.56244154
C  C458  1  0.08050000  0.24150000  0.92118000  1.0 0.56244154
C  C459  1  0.41950000  0.74150000  0.32882000  1.0 0.56244154
C  C460  1  0.58050000  0.25850000  0.82882000  1.0 0.56244154
C  C461  1  0.24150000  0.08050000  0.07882000  1.0 0.56244154
C  C462  1  0.75850000  0.91950000  0.57882000  1.0 0.56244154
C  C463  1  0.25850000  0.58050000  0.17118000  1.0 0.56244154
C  C464  1  0.74150000  0.41950000  0.67118000  1.0 0.56244154
C  C465  1  0.85630000  0.65450000  0.40908000  1.0 -0.4589794158
C  C466  1  0.14370000  0.34550000  0.90908000  1.0 -0.4589794158
C  C467  1  0.35630000  0.84550000  0.34092000  1.0 -0.4589794158
C  C468  1  0.64370000  0.15450000  0.84092000  1.0 -0.4589794158
C  C469  1  0.34550000  0.14370000  0.09092000  1.0 -0.4589794158
C  C470  1  0.65450000  0.85630000  0.59092000  1.0 -0.4589794158
C  C471  1  0.15450000  0.64370000  0.15908000  1.0 -0.4589794158
C  C472  1  0.84550000  0.35630000  0.65908000  1.0 -0.4589794158
C  C473  1  0.93560000  0.67300000  0.37461000  1.0 -0.4695408703
C  C474  1  0.06440000  0.32700000  0.87461000  1.0 -0.4695408703
C  C475  1  0.43560000  0.82700000  0.37539000  1.0 -0.4695408703
C  C476  1  0.56440000  0.17300000  0.87539000  1.0 -0.4695408703
C  C477  1  0.32700000  0.06440000  0.12539000  1.0 -0.4695408703
C  C478  1  0.67300000  0.93560000  0.62539000  1.0 -0.4695408703
C  C479  1  0.17300000  0.56440000  0.12461000  1.0 -0.4695408703
C  C480  1  0.82700000  0.43560000  0.62461000  1.0 -0.4695408703
C  C481  1  0.86919000  0.43340000  0.06382000  1.0 0.6768307477
C  C482  1  0.13081000  0.56660000  0.56382000  1.0 0.6768307477
C  C483  1  0.36919000  0.06660000  0.68618000  1.0 0.6768307477
C  C484  1  0.63081000  0.93340000  0.18618000  1.0 0.6768307477
C  C485  1  0.56660000  0.13081000  0.43618000  1.0 0.6768307477
C  C486  1  0.43340000  0.86919000  0.93618000  1.0 0.6768307477
C  C487  1  0.93340000  0.63081000  0.81382000  1.0 0.6768307477
C  C488  1  0.06660000  0.36919000  0.31382000  1.0 0.6768307477
C  C489  1  0.83650000  0.45370000  0.03574000  1.0 -0.5796346129
C  C490  1  0.16350000  0.54630000  0.53574000  1.0 -0.5796346129
C  C491  1  0.33650000  0.04630000  0.71426000  1.0 -0.5796346129
C  C492  1  0.66350000  0.95370000  0.21426000  1.0 -0.5796346129
C  C493  1  0.54630000  0.16350000  0.46426000  1.0 -0.5796346129
C  C494  1  0.45370000  0.83650000  0.96426000  1.0 -0.5796346129
C  C495  1  0.95370000  0.66350000  0.78574000  1.0 -0.5796346129
C  C496  1  0.04630000  0.33650000  0.28574000  1.0 -0.5796346129
S  S1  1  0.69884000  0.55792000  0.21961000  1.0 -0.2813760947
S  S2  1  0.30116000  0.44208000  0.71961000  1.0 -0.2813760947
S  S3  1  0.19884000  0.94208000  0.53039000  1.0 -0.2813760947
S  S4  1  0.80116000  0.05792000  0.03039000  1.0 -0.2813760947
S  S5  1  0.44208000  0.30116000  0.28039000  1.0 -0.2813760947
S  S6  1  0.55792000  0.69884000  0.78039000  1.0 -0.2813760947
S  S7  1  0.05792000  0.80116000  0.96961000  1.0 -0.2813760947
S  S8  1  0.94208000  0.19884000  0.46961000  1.0 -0.2813760947
S  S9  1  0.82666000  0.51457000  0.23504000  1.0 -0.2917796825
S  S10  1  0.17334000  0.48543000  0.73504000  1.0 -0.2917796825
S  S11  1  0.32666000  0.98543000  0.51496000  1.0 -0.2917796825
S  S12  1  0.67334000  0.01457000  0.01496000  1.0 -0.2917796825
S  S13  1  0.48543000  0.17334000  0.26496000  1.0 -0.2917796825
S  S14  1  0.51457000  0.82666000  0.76496000  1.0 -0.2917796825
S  S15  1  0.01457000  0.67334000  0.98504000  1.0 -0.2917796825
S  S16  1  0.98543000  0.32666000  0.48504000  1.0 -0.2917796825
S  S17  1  0.81102000  0.68665000  0.22005000  1.0 -0.2691845224
S  S18  1  0.18898000  0.31335000  0.72005000  1.0 -0.2691845224
S  S19  1  0.31102000  0.81335000  0.52995000  1.0 -0.2691845224
S  S20  1  0.68898000  0.18665000  0.02995000  1.0 -0.2691845224
S  S21  1  0.31335000  0.18898000  0.27995000  1.0 -0.2691845224
S  S22  1  0.68665000  0.81102000  0.77995000  1.0 -0.2691845224
S  S23  1  0.18665000  0.68898000  0.97005000  1.0 -0.2691845224
S  S24  1  0.81335000  0.31102000  0.47005000  1.0 -0.2691845224
S  S25  1  0.81984000  0.77179000  0.27609000  1.0 -0.2574962252
S  S26  1  0.18016000  0.22821000  0.77609000  1.0 -0.2574962252
S  S27  1  0.31984000  0.72821000  0.47391000  1.0 -0.2574962252
S  S28  1  0.68016000  0.27179000  0.97391000  1.0 -0.2574962252
S  S29  1  0.22821000  0.18016000  0.22391000  1.0 -0.2574962252
S  S30  1  0.77179000  0.81984000  0.72391000  1.0 -0.2574962252
S  S31  1  0.27179000  0.68016000  0.02609000  1.0 -0.2574962252
S  S32  1  0.72821000  0.31984000  0.52609000  1.0 -0.2574962252
S  S33  1  0.91983000  0.63660000  0.28442000  1.0 -0.2434630846
S  S34  1  0.08017000  0.36340000  0.78442000  1.0 -0.2434630846
S  S35  1  0.41983000  0.86340000  0.46558000  1.0 -0.2434630846
S  S36  1  0.58017000  0.13660000  0.96558000  1.0 -0.2434630846
S  S37  1  0.36340000  0.08017000  0.21558000  1.0 -0.2434630846
S  S38  1  0.63660000  0.91983000  0.71558000  1.0 -0.2434630846
S  S39  1  0.13660000  0.58017000  0.03442000  1.0 -0.2434630846
S  S40  1  0.86340000  0.41983000  0.53442000  1.0 -0.2434630846
S  S41  1  0.87538000  0.53139000  0.32450000  1.0 -0.2691845224
S  S42  1  0.12462000  0.46861000  0.82450000  1.0 -0.2691845224
S  S43  1  0.37538000  0.96861000  0.42550000  1.0 -0.2691845224
S  S44  1  0.62462000  0.03139000  0.92550000  1.0 -0.2691845224
S  S45  1  0.46861000  0.12462000  0.17550000  1.0 -0.2691845224
S  S46  1  0.53139000  0.87538000  0.67550000  1.0 -0.2691845224
S  S47  1  0.03139000  0.62462000  0.07450000  1.0 -0.2691845224
S  S48  1  0.96861000  0.37538000  0.57450000  1.0 -0.2691845224
S  S49  1  0.71752000  0.48007000  0.30061000  1.0 -0.2691845224
S  S50  1  0.28248000  0.51993000  0.80061000  1.0 -0.2691845224
S  S51  1  0.21752000  0.01993000  0.44939000  1.0 -0.2691845224
S  S52  1  0.78248000  0.98007000  0.94939000  1.0 -0.2691845224
S  S53  1  0.51993000  0.28248000  0.19939000  1.0 -0.2691845224
S  S54  1  0.48007000  0.71752000  0.69939000  1.0 -0.2691845224
S  S55  1  0.98007000  0.78248000  0.05061000  1.0 -0.2691845224
S  S56  1  0.01993000  0.21752000  0.55061000  1.0 -0.2691845224
S  S57  1  0.71050000  0.56002000  0.35898000  1.0 -0.2691845224
S  S58  1  0.28950000  0.43998000  0.85898000  1.0 -0.2691845224
S  S59  1  0.21050000  0.93998000  0.39102000  1.0 -0.2691845224
S  S60  1  0.78950000  0.06002000  0.89102000  1.0 -0.2691845224
S  S61  1  0.43998000  0.28950000  0.14102000  1.0 -0.2691845224
S  S62  1  0.56002000  0.71050000  0.64102000  1.0 -0.2691845224
S  S63  1  0.06002000  0.78950000  0.10898000  1.0 -0.2691845224
S  S64  1  0.93998000  0.21050000  0.60898000  1.0 -0.2691845224
S  S65  1  0.60691000  0.61563000  0.29694000  1.0 -0.2691845224
S  S66  1  0.39309000  0.38437000  0.79694000  1.0 -0.2691845224
S  S67  1  0.10691000  0.88437000  0.45306000  1.0 -0.2691845224
S  S68  1  0.89309000  0.11563000  0.95306000  1.0 -0.2691845224
S  S69  1  0.38437000  0.39309000  0.20306000  1.0 -0.2691845224
S  S70  1  0.61563000  0.60691000  0.70306000  1.0 -0.2691845224
S  S71  1  0.11563000  0.89309000  0.04694000  1.0 -0.2691845224
S  S72  1  0.88437000  0.10691000  0.54694000  1.0 -0.2691845224
S  S73  1  0.65390000  0.71516000  0.25406000  1.0 -0.2574962252
S  S74  1  0.34610000  0.28484000  0.75406000  1.0 -0.2574962252
S  S75  1  0.15390000  0.78484000  0.49594000  1.0 -0.2574962252
S  S76  1  0.84610000  0.21516000  0.99594000  1.0 -0.2574962252
S  S77  1  0.28484000  0.34610000  0.24594000  1.0 -0.2574962252
S  S78  1  0.71516000  0.65390000  0.74594000  1.0 -0.2574962252
S  S79  1  0.21516000  0.84610000  0.00406000  1.0 -0.2574962252
S  S80  1  0.78484000  0.15390000  0.50406000  1.0 -0.2574962252
S  S81  1  0.69945000  0.73043000  0.34033000  1.0 -0.2813760947
S  S82  1  0.30055000  0.26957000  0.84033000  1.0 -0.2813760947
S  S83  1  0.19945000  0.76957000  0.40967000  1.0 -0.2813760947
S  S84  1  0.80055000  0.23043000  0.90967000  1.0 -0.2813760947
S  S85  1  0.26957000  0.30055000  0.15967000  1.0 -0.2813760947
S  S86  1  0.73043000  0.69945000  0.65967000  1.0 -0.2813760947
S  S87  1  0.23043000  0.80055000  0.09033000  1.0 -0.2813760947
S  S88  1  0.76957000  0.19945000  0.59033000  1.0 -0.2813760947
S  S89  1  0.82713000  0.68834000  0.35653000  1.0 -0.2813760947
S  S90  1  0.17287000  0.31166000  0.85653000  1.0 -0.2813760947
S  S91  1  0.32713000  0.81166000  0.39347000  1.0 -0.2813760947
S  S92  1  0.67287000  0.18834000  0.89347000  1.0 -0.2813760947
S  S93  1  0.31166000  0.17287000  0.14347000  1.0 -0.2813760947
S  S94  1  0.68834000  0.82713000  0.64347000  1.0 -0.2813760947
S  S95  1  0.18834000  0.67287000  0.10653000  1.0 -0.2813760947
S  S96  1  0.81166000  0.32713000  0.60653000  1.0 -0.2813760947
Br  Br1  1  0.76445000  0.62435000  0.28905000  1.0 -0.4114317756
Br  Br2  1  0.23555000  0.37565000  0.78905000  1.0 -0.4114317756
Br  Br3  1  0.26445000  0.87565000  0.46095000  1.0 -0.4114317756
Br  Br4  1  0.73555000  0.12435000  0.96095000  1.0 -0.4114317756
Br  Br5  1  0.37565000  0.23555000  0.21095000  1.0 -0.4114317756
Br  Br6  1  0.62435000  0.76445000  0.71095000  1.0 -0.4114317756
Br  Br7  1  0.12435000  0.73555000  0.03905000  1.0 -0.4114317756
Br  Br8  1  0.87565000  0.26445000  0.53905000  1.0 -0.4114317756
N  N1  1  0.70476000  0.48150000  0.17427000  1.0 -0.3782123239
N  N2  1  0.29524000  0.51850000  0.67427000  1.0 -0.3782123239
N  N3  1  0.20476000  0.01850000  0.57573000  1.0 -0.3782123239
N  N4  1  0.79524000  0.98150000  0.07573000  1.0 -0.3782123239
N  N5  1  0.51850000  0.29524000  0.32573000  1.0 -0.3782123239
N  N6  1  0.48150000  0.70476000  0.82573000  1.0 -0.3782123239
N  N7  1  0.98150000  0.79524000  0.92427000  1.0 -0.3782123239
N  N8  1  0.01850000  0.20476000  0.42427000  1.0 -0.3782123239
N  N9  1  0.80879000  0.43568000  0.18961000  1.0 -0.4028244337
N  N10  1  0.19121000  0.56432000  0.68961000  1.0 -0.4028244337
N  N11  1  0.30879000  0.06432000  0.56039000  1.0 -0.4028244337
N  N12  1  0.69121000  0.93568000  0.06039000  1.0 -0.4028244337
N  N13  1  0.56432000  0.19121000  0.31039000  1.0 -0.4028244337
N  N14  1  0.43568000  0.80879000  0.81039000  1.0 -0.4028244337
N  N15  1  0.93568000  0.69121000  0.93961000  1.0 -0.4028244337
N  N16  1  0.06432000  0.30879000  0.43961000  1.0 -0.4028244337
N  N17  1  0.84110000  0.78008000  0.18453000  1.0 -0.4181666186
N  N18  1  0.15890000  0.21992000  0.68453000  1.0 -0.4181666186
N  N19  1  0.34110000  0.71992000  0.56547000  1.0 -0.4181666186
N  N20  1  0.65890000  0.28008000  0.06547000  1.0 -0.4181666186
N  N21  1  0.21992000  0.15890000  0.31547000  1.0 -0.4181666186
N  N22  1  0.78008000  0.84110000  0.81547000  1.0 -0.4181666186
N  N23  1  0.28008000  0.65890000  0.93453000  1.0 -0.4181666186
N  N24  1  0.71992000  0.34110000  0.43453000  1.0 -0.4181666186
N  N25  1  0.86780000  0.84940000  0.23499000  1.0 -0.4327870134
N  N26  1  0.13220000  0.15060000  0.73499000  1.0 -0.4327870134
N  N27  1  0.36780000  0.65060000  0.51501000  1.0 -0.4327870134
N  N28  1  0.63220000  0.34940000  0.01501000  1.0 -0.4327870134
N  N29  1  0.15060000  0.13220000  0.26501000  1.0 -0.4327870134
N  N30  1  0.84940000  0.86780000  0.76501000  1.0 -0.4327870134
N  N31  1  0.34940000  0.63220000  0.98499000  1.0 -0.4327870134
N  N32  1  0.65060000  0.36780000  0.48499000  1.0 -0.4327870134
N  N33  1  0.02647000  0.60522000  0.30435000  1.0 -0.3782123239
N  N34  1  0.97353000  0.39478000  0.80435000  1.0 -0.3782123239
N  N35  1  0.52647000  0.89478000  0.44565000  1.0 -0.3782123239
N  N36  1  0.47353000  0.10522000  0.94565000  1.0 -0.3782123239
N  N37  1  0.39478000  0.97353000  0.19565000  1.0 -0.3782123239
N  N38  1  0.60522000  0.02647000  0.69565000  1.0 -0.3782123239
N  N39  1  0.10522000  0.47353000  0.05435000  1.0 -0.3782123239
N  N40  1  0.89478000  0.52647000  0.55435000  1.0 -0.3782123239
N  N41  1  0.98829000  0.50938000  0.33561000  1.0 -0.4181666186
N  N42  1  0.01171000  0.49062000  0.83561000  1.0 -0.4181666186
N  N43  1  0.48829000  0.99062000  0.41439000  1.0 -0.4181666186
N  N44  1  0.51171000  0.00938000  0.91439000  1.0 -0.4181666186
N  N45  1  0.49062000  0.01171000  0.16439000  1.0 -0.4181666186
N  N46  1  0.50938000  0.98829000  0.66439000  1.0 -0.4181666186
N  N47  1  0.00938000  0.51171000  0.08561000  1.0 -0.4181666186
N  N48  1  0.99062000  0.48829000  0.58561000  1.0 -0.4181666186
N  N49  1  0.67230000  0.39723000  0.33746000  1.0 -0.4028244337
N  N50  1  0.32770000  0.60277000  0.83746000  1.0 -0.4028244337
N  N51  1  0.17230000  0.10277000  0.41254000  1.0 -0.4028244337
N  N52  1  0.82770000  0.89723000  0.91254000  1.0 -0.4028244337
N  N53  1  0.60277000  0.32770000  0.16254000  1.0 -0.4028244337
N  N54  1  0.39723000  0.67230000  0.66254000  1.0 -0.4028244337
N  N55  1  0.89723000  0.82770000  0.08746000  1.0 -0.4028244337
N  N56  1  0.10277000  0.17230000  0.58746000  1.0 -0.4028244337
N  N57  1  0.66300000  0.46735000  0.38764000  1.0 -0.4114317756
N  N58  1  0.33700000  0.53265000  0.88764000  1.0 -0.4114317756
N  N59  1  0.16300000  0.03265000  0.36236000  1.0 -0.4114317756
N  N60  1  0.83700000  0.96735000  0.86236000  1.0 -0.4114317756
N  N61  1  0.53265000  0.33700000  0.11236000  1.0 -0.4114317756
N  N62  1  0.46735000  0.66300000  0.61236000  1.0 -0.4114317756
N  N63  1  0.96735000  0.83700000  0.13764000  1.0 -0.4114317756
N  N64  1  0.03265000  0.16300000  0.63764000  1.0 -0.4114317756
N  N65  1  0.49744000  0.65968000  0.28462000  1.0 -0.4028244337
N  N66  1  0.50256000  0.34032000  0.78462000  1.0 -0.4028244337
N  N67  1  0.99744000  0.84032000  0.46538000  1.0 -0.4114317756
N  N68  1  0.00256000  0.15968000  0.96538000  1.0 -0.4028244337
N  N69  1  0.34032000  0.50256000  0.21538000  1.0 -0.4028244337
N  N70  1  0.65968000  0.49744000  0.71538000  1.0 -0.4028244337
N  N71  1  0.15968000  0.00256000  0.03462000  1.0 -0.4114317756
N  N72  1  0.84032000  0.99744000  0.53462000  1.0 -0.4028244337
N  N73  1  0.53962000  0.73893000  0.24009000  1.0 -0.4181666186
N  N74  1  0.46038000  0.26107000  0.74009000  1.0 -0.4181666186
N  N75  1  0.03962000  0.76107000  0.50991000  1.0 -0.4181666186
N  N76  1  0.96038000  0.23893000  0.00991000  1.0 -0.4181666186
N  N77  1  0.26107000  0.46038000  0.25991000  1.0 -0.4181666186
N  N78  1  0.73893000  0.53962000  0.75991000  1.0 -0.4181666186
N  N79  1  0.23893000  0.96038000  0.99009000  1.0 -0.4181666186
N  N80  1  0.76107000  0.03962000  0.49009000  1.0 -0.4181666186
N  N81  1  0.70986000  0.79601000  0.39037000  1.0 -0.3782123239
N  N82  1  0.29014000  0.20399000  0.89037000  1.0 -0.3782123239
N  N83  1  0.20986000  0.70399000  0.35963000  1.0 -0.3782123239
N  N84  1  0.79014000  0.29601000  0.85963000  1.0 -0.3782123239
N  N85  1  0.20399000  0.29014000  0.10963000  1.0 -0.3782123239
N  N86  1  0.79601000  0.70986000  0.60963000  1.0 -0.3782123239
N  N87  1  0.29601000  0.79014000  0.14037000  1.0 -0.3782123239
N  N88  1  0.70399000  0.20986000  0.64037000  1.0 -0.3782123239
N  N89  1  0.82013000  0.76826000  0.40166000  1.0 -0.3896665783
N  N90  1  0.17987000  0.23174000  0.90166000  1.0 -0.3896665783
N  N91  1  0.32013000  0.73174000  0.34834000  1.0 -0.3896665783
N  N92  1  0.67987000  0.26826000  0.84834000  1.0 -0.3896665783
N  N93  1  0.23174000  0.17987000  0.09834000  1.0 -0.3896665783
N  N94  1  0.76826000  0.82013000  0.59834000  1.0 -0.3896665783
N  N95  1  0.26826000  0.67987000  0.15166000  1.0 -0.3896665783
N  N96  1  0.73174000  0.32013000  0.65166000  1.0 -0.3896665783
O  O1  1  0.60915000  0.45147000  0.14951000  1.0 -0.5242771035
O  O2  1  0.39085000  0.54853000  0.64951000  1.0 -0.5242771035
O  O3  1  0.10915000  0.04853000  0.60049000  1.0 -0.5242771035
O  O4  1  0.89085000  0.95147000  0.10049000  1.0 -0.5242771035
O  O5  1  0.54853000  0.39085000  0.35049000  1.0 -0.5242771035
O  O6  1  0.45147000  0.60915000  0.85049000  1.0 -0.5242771035
O  O7  1  0.95147000  0.89085000  0.89951000  1.0 -0.5326884135
O  O8  1  0.04853000  0.10915000  0.39951000  1.0 -0.5242771035
O  O9  1  0.59377000  0.53560000  0.13321000  1.0 -0.5683556036
O  O10  1  0.40623000  0.46440000  0.63321000  1.0 -0.5683556036
O  O11  1  0.09377000  0.96440000  0.61679000  1.0 -0.5683556036
O  O12  1  0.90623000  0.03560000  0.11679000  1.0 -0.5683556036
O  O13  1  0.46440000  0.40623000  0.36679000  1.0 -0.5683556036
O  O14  1  0.53560000  0.59377000  0.86679000  1.0 -0.5683556036
O  O15  1  0.03560000  0.90623000  0.88321000  1.0 -0.5683556036
O  O16  1  0.96440000  0.09377000  0.38321000  1.0 -0.5683556036
O  O17  1  0.88725000  0.39273000  0.16169000  1.0 -0.616665578
O  O18  1  0.11275000  0.60727000  0.66169000  1.0 -0.616665578
O  O19  1  0.38725000  0.10727000  0.58831000  1.0 -0.616665578
O  O20  1  0.61275000  0.89273000  0.08831000  1.0 -0.616665578
O  O21  1  0.60727000  0.11275000  0.33831000  1.0 -0.616665578
O  O22  1  0.39273000  0.88725000  0.83831000  1.0 -0.616665578
O  O23  1  0.89273000  0.61275000  0.91169000  1.0 -0.616665578
O  O24  1  0.10727000  0.38725000  0.41169000  1.0 -0.616665578
O  O25  1  0.93570000  0.37410000  0.19827000  1.0 -0.5129294009
O  O26  1  0.06430000  0.62590000  0.69827000  1.0 -0.5129294009
O  O27  1  0.43570000  0.12590000  0.55173000  1.0 -0.5129294009
O  O28  1  0.56430000  0.87410000  0.05173000  1.0 -0.5129294009
O  O29  1  0.62590000  0.06430000  0.30173000  1.0 -0.5129294009
O  O30  1  0.37410000  0.93570000  0.80173000  1.0 -0.5129294009
O  O31  1  0.87410000  0.56430000  0.94827000  1.0 -0.5129294009
O  O32  1  0.12590000  0.43570000  0.44827000  1.0 -0.5129294009
O  O33  1  0.87497000  0.76248000  0.13081000  1.0 -0.4695408703
O  O34  1  0.12503000  0.23752000  0.63081000  1.0 -0.4695408703
O  O35  1  0.37497000  0.73752000  0.61919000  1.0 -0.4695408703
O  O36  1  0.62503000  0.26248000  0.11919000  1.0 -0.4695408703
O  O37  1  0.23752000  0.12503000  0.36919000  1.0 -0.4695408703
O  O38  1  0.76248000  0.87497000  0.86919000  1.0 -0.4695408703
O  O39  1  0.26248000  0.62503000  0.88081000  1.0 -0.4695408703
O  O40  1  0.73752000  0.37497000  0.38081000  1.0 -0.4695408703
O  O41  1  0.79790000  0.72280000  0.12279000  1.0 -0.5419315589
O  O42  1  0.20210000  0.27720000  0.62279000  1.0 -0.5419315589
O  O43  1  0.29790000  0.77720000  0.62721000  1.0 -0.5419315589
O  O44  1  0.70210000  0.22280000  0.12721000  1.0 -0.5419315589
O  O45  1  0.27720000  0.20210000  0.37721000  1.0 -0.5419315589
O  O46  1  0.72280000  0.79790000  0.87721000  1.0 -0.5419315589
O  O47  1  0.22280000  0.70210000  0.87279000  1.0 -0.5419315589
O  O48  1  0.77720000  0.29790000  0.37279000  1.0 -0.5419315589
O  O49  1  0.85910000  0.95630000  0.24383000  1.0 -0.5326884135
O  O50  1  0.14090000  0.04370000  0.74383000  1.0 -0.5326884135
O  O51  1  0.35910000  0.54370000  0.50617000  1.0 -0.5326884135
O  O52  1  0.64090000  0.45630000  0.00617000  1.0 -0.5326884135
O  O53  1  0.04370000  0.14090000  0.25617000  1.0 -0.5326884135
O  O54  1  0.95630000  0.85910000  0.75617000  1.0 -0.5326884135
O  O55  1  0.45630000  0.64090000  0.99383000  1.0 -0.5326884135
O  O56  1  0.54370000  0.35910000  0.49383000  1.0 -0.5326884135
O  O57  1  0.90230000  0.94200000  0.28835000  1.0 -0.5419315589
O  O58  1  0.09770000  0.05800000  0.78835000  1.0 -0.5419315589
O  O59  1  0.40230000  0.55800000  0.46165000  1.0 -0.5419315589
O  O60  1  0.59770000  0.44200000  0.96165000  1.0 -0.5419315589
O  O61  1  0.05800000  0.09770000  0.21165000  1.0 -0.5419315589
O  O62  1  0.94200000  0.90230000  0.71165000  1.0 -0.5419315589
O  O63  1  0.44200000  0.59770000  0.03835000  1.0 -0.5419315589
O  O64  1  0.55800000  0.40230000  0.53835000  1.0 -0.5419315589
O  O65  1  0.11343000  0.63900000  0.27443000  1.0 -0.4695408703
O  O66  1  0.88657000  0.36100000  0.77443000  1.0 -0.4695408703
O  O67  1  0.61343000  0.86100000  0.47557000  1.0 -0.4695408703
O  O68  1  0.38657000  0.13900000  0.97557000  1.0 -0.4695408703
O  O69  1  0.36100000  0.88657000  0.22557000  1.0 -0.4695408703
O  O70  1  0.63900000  0.11343000  0.72557000  1.0 -0.4695408703
O  O71  1  0.13900000  0.38657000  0.02443000  1.0 -0.4695408703
O  O72  1  0.86100000  0.61343000  0.52443000  1.0 -0.4695408703
O  O73  1  0.08910000  0.72040000  0.27661000  1.0 -0.4773650143
O  O74  1  0.91090000  0.27960000  0.77661000  1.0 -0.4773650143
O  O75  1  0.58910000  0.77960000  0.47339000  1.0 -0.4773650143
O  O76  1  0.41090000  0.22040000  0.97339000  1.0 -0.4773650143
O  O77  1  0.27960000  0.91090000  0.22339000  1.0 -0.4773650143
O  O78  1  0.72040000  0.08910000  0.72339000  1.0 -0.4773650143
O  O79  1  0.22040000  0.41090000  0.02661000  1.0 -0.4773650143
O  O80  1  0.77960000  0.58910000  0.52661000  1.0 -0.4773650143
O  O81  1  0.93372000  0.47495000  0.11867000  1.0 -0.4930900098
O  O82  1  0.06628000  0.52505000  0.61867000  1.0 -0.4930900098
O  O83  1  0.43372000  0.02505000  0.63133000  1.0 -0.4930900098
O  O84  1  0.56628000  0.97495000  0.13133000  1.0 -0.4930900098
O  O85  1  0.52505000  0.06628000  0.38133000  1.0 -0.4930900098
O  O86  1  0.47495000  0.93372000  0.88133000  1.0 -0.4930900098
O  O87  1  0.97495000  0.56628000  0.86867000  1.0 -0.4930900098
O  O88  1  0.02505000  0.43372000  0.36867000  1.0 -0.4930900098
O  O89  1  0.87236000  0.53607000  0.10655000  1.0 -0.5604116604
O  O90  1  0.12764000  0.46393000  0.60655000  1.0 -0.5604116604
O  O91  1  0.37236000  0.96393000  0.64345000  1.0 -0.5604116604
O  O92  1  0.62764000  0.03607000  0.14345000  1.0 -0.5604116604
O  O93  1  0.46393000  0.12764000  0.39345000  1.0 -0.5604116604
O  O94  1  0.53607000  0.87236000  0.89345000  1.0 -0.5604116604
O  O95  1  0.03607000  0.62764000  0.85655000  1.0 -0.5604116604
O  O96  1  0.96393000  0.37236000  0.35655000  1.0 -0.5604116604
O  O97  1  0.63752000  0.30215000  0.31473000  1.0 -0.5683556036
O  O98  1  0.36248000  0.69785000  0.81473000  1.0 -0.5683556036
O  O99  1  0.13752000  0.19785000  0.43527000  1.0 -0.5683556036
O  O100  1  0.86248000  0.80215000  0.93527000  1.0 -0.5683556036
O  O101  1  0.69785000  0.36248000  0.18527000  1.0 -0.5683556036
O  O102  1  0.30215000  0.63752000  0.68527000  1.0 -0.5683556036
O  O103  1  0.80215000  0.86248000  0.06473000  1.0 -0.5683556036
O  O104  1  0.19785000  0.13752000  0.56473000  1.0 -0.5683556036
O  O105  1  0.71346000  0.29044000  0.29289000  1.0 -0.4695408703
O  O106  1  0.28654000  0.70956000  0.79289000  1.0 -0.4695408703
O  O107  1  0.21346000  0.20956000  0.45711000  1.0 -0.4695408703
O  O108  1  0.78654000  0.79044000  0.95711000  1.0 -0.4695408703
O  O109  1  0.70956000  0.28654000  0.20711000  1.0 -0.4695408703
O  O110  1  0.29044000  0.71346000  0.70711000  1.0 -0.4695408703
O  O111  1  0.79044000  0.78654000  0.04289000  1.0 -0.4695408703
O  O112  1  0.20956000  0.21346000  0.54289000  1.0 -0.4695408703
O  O113  1  0.67186000  0.45215000  0.44223000  1.0 -0.4773650143
O  O114  1  0.32814000  0.54785000  0.94223000  1.0 -0.4773650143
O  O115  1  0.17186000  0.04785000  0.30777000  1.0 -0.4773650143
O  O116  1  0.82814000  0.95215000  0.80777000  1.0 -0.4773650143
O  O117  1  0.54785000  0.32814000  0.05777000  1.0 -0.4773650143
O  O118  1  0.45215000  0.67186000  0.55777000  1.0 -0.4773650143
O  O119  1  0.95215000  0.82814000  0.19223000  1.0 -0.4773650143
O  O120  1  0.04785000  0.17186000  0.69223000  1.0 -0.4773650143
O  O121  1  0.63590000  0.53071000  0.45142000  1.0 -0.5604116604
O  O122  1  0.36410000  0.46929000  0.95142000  1.0 -0.5604116604
O  O123  1  0.13590000  0.96929000  0.29858000  1.0 -0.5604116604
O  O124  1  0.86410000  0.03071000  0.79858000  1.0 -0.5604116604
O  O125  1  0.46929000  0.36410000  0.04858000  1.0 -0.5604116604
O  O126  1  0.53071000  0.63590000  0.54858000  1.0 -0.5604116604
O  O127  1  0.03071000  0.86410000  0.20142000  1.0 -0.5604116604
O  O128  1  0.96929000  0.13590000  0.70142000  1.0 -0.5604116604
O  O129  1  0.41544000  0.58910000  0.29581000  1.0 -0.5419315589
O  O130  1  0.58456000  0.41090000  0.79581000  1.0 -0.5419315589
O  O131  1  0.91544000  0.91090000  0.45419000  1.0 -0.5419315589
O  O132  1  0.08456000  0.08910000  0.95419000  1.0 -0.5419315589
O  O133  1  0.41090000  0.58456000  0.20419000  1.0 -0.5419315589
O  O134  1  0.58910000  0.41544000  0.70419000  1.0 -0.5419315589
O  O135  1  0.08910000  0.08456000  0.04581000  1.0 -0.5419315589
O  O136  1  0.91090000  0.91544000  0.54581000  1.0 -0.5419315589
O  O137  1  0.43810000  0.58580000  0.34010000  1.0 -0.4773650143
O  O138  1  0.56190000  0.41420000  0.84010000  1.0 -0.4773650143
O  O139  1  0.93810000  0.91420000  0.40990000  1.0 -0.4773650143
O  O140  1  0.06190000  0.08580000  0.90990000  1.0 -0.4773650143
O  O141  1  0.41420000  0.56190000  0.15990000  1.0 -0.4773650143
O  O142  1  0.58580000  0.43810000  0.65990000  1.0 -0.4773650143
O  O143  1  0.08580000  0.06190000  0.09010000  1.0 -0.4773650143
O  O144  1  0.91420000  0.93810000  0.59010000  1.0 -0.4773650143
O  O145  1  0.98894000  0.32184000  0.04124000  1.0 -0.5419315589
O  O146  1  0.01106000  0.67816000  0.54124000  1.0 -0.5419315589
O  O147  1  0.48894000  0.17816000  0.70876000  1.0 -0.5419315589
O  O148  1  0.51106000  0.82184000  0.20876000  1.0 -0.5419315589
O  O149  1  0.67816000  0.01106000  0.45876000  1.0 -0.5419315589
O  O150  1  0.32184000  0.98894000  0.95876000  1.0 -0.5419315589
O  O151  1  0.82184000  0.51106000  0.79124000  1.0 -0.5419315589
O  O152  1  0.17816000  0.48894000  0.29124000  1.0 -0.5419315589
O  O153  1  0.92279000  0.31006000  0.07270000  1.0 -0.6553281159
O  O154  1  0.07721000  0.68994000  0.57270000  1.0 -0.6553281159
O  O155  1  0.42279000  0.18994000  0.67730000  1.0 -0.6553281159
O  O156  1  0.57721000  0.81006000  0.17730000  1.0 -0.6553281159
O  O157  1  0.68994000  0.07721000  0.42730000  1.0 -0.6553281159
O  O158  1  0.31006000  0.92279000  0.92730000  1.0 -0.6553281159
O  O159  1  0.81006000  0.57721000  0.82270000  1.0 -0.6553281159
O  O160  1  0.18994000  0.42279000  0.32270000  1.0 -0.6553281159
O  O161  1  0.64279000  0.88188000  0.39687000  1.0 -0.5796346129
O  O162  1  0.35721000  0.11812000  0.89687000  1.0 -0.5796346129
O  O163  1  0.14279000  0.61812000  0.35313000  1.0 -0.5796346129
O  O164  1  0.85721000  0.38188000  0.85313000  1.0 -0.5796346129
O  O165  1  0.11812000  0.35721000  0.10313000  1.0 -0.5796346129
O  O166  1  0.88188000  0.64279000  0.60313000  1.0 -0.5796346129
O  O167  1  0.38188000  0.85721000  0.14687000  1.0 -0.5796346129
O  O168  1  0.61812000  0.14279000  0.64687000  1.0 -0.5796346129
O  O169  1  0.56780000  0.83844000  0.38992000  1.0 -0.5031960071
O  O170  1  0.43220000  0.16156000  0.88992000  1.0 -0.5031960071
O  O171  1  0.06780000  0.66156000  0.36008000  1.0 -0.5031960071
O  O172  1  0.93220000  0.33844000  0.86008000  1.0 -0.5031960071
O  O173  1  0.16156000  0.43220000  0.11008000  1.0 -0.5031960071
O  O174  1  0.83844000  0.56780000  0.61008000  1.0 -0.5031960071
O  O175  1  0.33844000  0.93220000  0.13992000  1.0 -0.5031960071
O  O176  1  0.66156000  0.06780000  0.63992000  1.0 -0.5031960071
O  O177  1  0.89461000  0.76500000  0.44436000  1.0 -0.5500634597
O  O178  1  0.10539000  0.23500000  0.94436000  1.0 -0.5500634597
O  O179  1  0.39461000  0.73500000  0.30564000  1.0 -0.5500634597
O  O180  1  0.60539000  0.26500000  0.80564000  1.0 -0.5500634597
O  O181  1  0.23500000  0.10539000  0.05564000  1.0 -0.5500634597
O  O182  1  0.76500000  0.89461000  0.55564000  1.0 -0.5500634597
O  O183  1  0.26500000  0.60539000  0.19436000  1.0 -0.5500634597
O  O184  1  0.73500000  0.39461000  0.69436000  1.0 -0.5500634597
O  O185  1  0.96566000  0.75589000  0.41880000  1.0 -0.4695408703
O  O186  1  0.03434000  0.24411000  0.91880000  1.0 -0.4695408703
O  O187  1  0.46566000  0.74411000  0.33120000  1.0 -0.4695408703
O  O188  1  0.53434000  0.25589000  0.83120000  1.0 -0.4695408703
O  O189  1  0.24411000  0.03434000  0.08120000  1.0 -0.4695408703
O  O190  1  0.75589000  0.96566000  0.58120000  1.0 -0.4695408703
O  O191  1  0.25589000  0.53434000  0.16880000  1.0 -0.4695408703
O  O192  1  0.74411000  0.46566000  0.66880000  1.0 -0.4695408703
O  O193  1  0.91877000  0.42999000  0.06318000  1.0 -0.6099697561
O  O194  1  0.08123000  0.57001000  0.56318000  1.0 -0.6099697561
O  O195  1  0.41877000  0.07001000  0.68682000  1.0 -0.6099697561
O  O196  1  0.58123000  0.92999000  0.18682000  1.0 -0.6099697561
O  O197  1  0.57001000  0.08123000  0.43682000  1.0 -0.6099697561
O  O198  1  0.42999000  0.91877000  0.93682000  1.0 -0.6099697561
O  O199  1  0.92999000  0.58123000  0.81318000  1.0 -0.6099697561
O  O200  1  0.07001000  0.41877000  0.31318000  1.0 -0.6099697561
O  O201  1  0.84090000  0.40910000  0.08476000  1.0 -0.7185221524
O  O202  1  0.15910000  0.59090000  0.58476000  1.0 -0.7185221524
O  O203  1  0.34090000  0.09090000  0.66524000  1.0 -0.7185221524
O  O204  1  0.65910000  0.90910000  0.16524000  1.0 -0.7185221524
O  O205  1  0.59090000  0.15910000  0.41524000  1.0 -0.7185221524
O  O206  1  0.40910000  0.84090000  0.91524000  1.0 -0.7185221524
O  O207  1  0.90910000  0.65910000  0.83476000  1.0 -0.7185221524
O  O208  1  0.09090000  0.34090000  0.33476000  1.0 -0.7185221524
O  O209  1  0.94610000  0.12800000  0.26850000  1.0 -0.5907978476
O  O210  1  0.05390000  0.87200000  0.76850000  1.0 -0.5907978476
O  O211  1  0.44610000  0.37200000  0.48150000  1.0 -0.5907978476
O  O212  1  0.55390000  0.62800000  0.98150000  1.0 -0.5907978476
O  O213  1  0.87200000  0.05390000  0.23150000  1.0 -0.5907978476
O  O214  1  0.12800000  0.94610000  0.73150000  1.0 -0.5907978476
O  O215  1  0.62800000  0.55390000  0.01850000  1.0 -0.5907978476
O  O216  1  0.37200000  0.44610000  0.51850000  1.0 -0.5907978476
O  O217  1  0.85400000  0.01030000  0.32674000  1.0 -0.2917796825
O  O218  1  0.14600000  0.98970000  0.82674000  1.0 -0.2917796825
O  O219  1  0.35400000  0.48970000  0.42326000  1.0 -0.2917796825
O  O220  1  0.64600000  0.51030000  0.92326000  1.0 -0.2917796825
O  O221  1  0.98970000  0.14600000  0.17326000  1.0 -0.2917796825
O  O222  1  0.01030000  0.85400000  0.67326000  1.0 -0.2917796825
O  O223  1  0.51030000  0.64600000  0.07674000  1.0 -0.2917796825
O  O224  1  0.48970000  0.35400000  0.57674000  1.0 -0.2917796825
