# DDEC6 charges by PACMAN v1.1 (https://github.com/mtap-research/PACMAN-charge/)
data_BARZOL_ion_pacman
_symmetry_space_group_name_H-M   'P 1'
_cell_length_a   18.79700000
_cell_length_b   18.88300000
_cell_length_c   36.85990000
_cell_angle_alpha   90.00000000
_cell_angle_beta   119.96900000
_cell_angle_gamma   90.00000000
_symmetry_Int_Tables_number   1
_chemical_formula_structural   Ag5B4H80C80(N3F)16
_chemical_formula_sum   'Ag20 B16 H320 C320 N192 F64'
_cell_volume   11333.91359884
_cell_formula_units_Z   4
loop_
 _symmetry_equiv_pos_site_id
 _symmetry_equiv_pos_as_xyz
  1  'x, y, z'
loop_
 _atom_site_type_symbol
 _atom_site_label
 _atom_site_symmetry_multiplicity
 _atom_site_fract_x
 _atom_site_fract_y
 _atom_site_fract_z
 _atom_site_occupancy
 _atom_site_charge
Ag  Ag1  1  0.08888000  0.82413000  0.62504000  1.0 0.2813873466
Ag  Ag2  1  0.91112000  0.32413000  0.87496000  1.0 0.2813873466
Ag  Ag3  1  0.91112000  0.17587000  0.37496000  1.0 0.2813873466
Ag  Ag4  1  0.08888000  0.67587000  0.12504000  1.0 0.2813873466
Ag  Ag5  1  0.48886000  0.78671000  0.52410000  1.0 0.2813873466
Ag  Ag6  1  0.51114000  0.28671000  0.97590000  1.0 0.2813873466
Ag  Ag7  1  0.51114000  0.21329000  0.47590000  1.0 0.2813873466
Ag  Ag8  1  0.48886000  0.71329000  0.02410000  1.0 0.2813873466
Ag  Ag9  1  0.89311000  0.71766000  0.32630000  1.0 0.288481702
Ag  Ag10  1  0.10689000  0.21766000  0.17370000  1.0 0.288481702
Ag  Ag11  1  0.10689000  0.28234000  0.67370000  1.0 0.288481702
Ag  Ag12  1  0.89311000  0.78234000  0.82630000  1.0 0.288481702
Ag  Ag13  1  0.50135000  0.95730000  0.70484000  1.0 0.2813873466
Ag  Ag14  1  0.49865000  0.45730000  0.79516000  1.0 0.2813873466
Ag  Ag15  1  0.49865000  0.04270000  0.29516000  1.0 0.2813873466
Ag  Ag16  1  0.50135000  0.54270000  0.20484000  1.0 0.2813873466
Ag  Ag17  1  0.50320000  0.78910000  0.52440000  1.0 0.2813873466
Ag  Ag18  1  0.49680000  0.28910000  0.97560000  1.0 0.2813873466
Ag  Ag19  1  0.49680000  0.21090000  0.47560000  1.0 0.2813873466
Ag  Ag20  1  0.50320000  0.71090000  0.02440000  1.0 0.2813873466
B  B1  1  0.16050000  0.13320000  0.33320000  1.0 0.9904224814
B  B2  1  0.83950000  0.63320000  0.16680000  1.0 0.9904224814
B  B3  1  0.83950000  0.86680000  0.66680000  1.0 0.9904224814
B  B4  1  0.16050000  0.36680000  0.83320000  1.0 0.9904224814
B  B5  1  0.82300000  0.48690000  0.33333333  1.0 1.0369159296
B  B6  1  0.17700000  0.98690000  0.16670000  1.0 1.0369159296
B  B7  1  0.17700000  0.51310000  0.66666667  1.0 1.0369159296
B  B8  1  0.82300000  0.01310000  0.83330000  1.0 1.0369159296
B  B9  1  0.18170000  0.60860000  0.50320000  1.0 0.9904224814
B  B10  1  0.81830000  0.10860000  0.99680000  1.0 0.9904224814
B  B11  1  0.81830000  0.39140000  0.49680000  1.0 0.9904224814
B  B12  1  0.18170000  0.89140000  0.00320000  1.0 0.9904224814
B  B13  1  0.80840000  0.98210000  0.31410000  1.0 1.0258058623
B  B14  1  0.19160000  0.48210000  0.18590000  1.0 1.024136058
B  B15  1  0.19160000  0.01790000  0.68590000  1.0 1.024136058
B  B16  1  0.80840000  0.51790000  0.81410000  1.0 1.024136058
H  H1  1  0.93060000  0.64490000  0.40650000  1.0 0.1287151317
H  H2  1  0.06940000  0.14490000  0.09350000  1.0 0.1287151317
H  H3  1  0.06940000  0.35510000  0.59350000  1.0 0.1287151317
H  H4  1  0.93060000  0.85510000  0.90650000  1.0 0.1287151317
H  H5  1  0.91090000  0.84750000  0.38660000  1.0 0.1287151317
H  H6  1  0.08910000  0.34750000  0.11340000  1.0 0.1287151317
H  H7  1  0.08910000  0.15250000  0.61340000  1.0 0.1287151317
H  H8  1  0.91090000  0.65250000  0.88660000  1.0 0.1287151317
H  H9  1  0.89650000  0.99280000  0.44480000  1.0 0.1287151317
H  H10  1  0.10350000  0.49280000  0.05520000  1.0 0.1287151317
H  H11  1  0.10350000  0.00720000  0.55520000  1.0 0.1287151317
H  H12  1  0.89650000  0.50720000  0.94480000  1.0 0.1287151317
H  H13  1  0.94760000  0.95670000  0.42690000  1.0 0.1401197068
H  H14  1  0.05240000  0.45670000  0.07310000  1.0 0.1401197068
H  H15  1  0.05240000  0.04330000  0.57310000  1.0 0.1401197068
H  H16  1  0.94760000  0.54330000  0.92690000  1.0 0.1401197068
H  H17  1  0.85200000  0.94770000  0.40370000  1.0 0.1401197068
H  H18  1  0.14800000  0.44770000  0.09630000  1.0 0.1401197068
H  H19  1  0.14800000  0.05230000  0.59630000  1.0 0.1401197068
H  H20  1  0.85200000  0.55230000  0.90370000  1.0 0.1401197068
H  H21  1  0.02910000  0.88140000  0.53230000  1.0 0.1199854255
H  H22  1  0.97090000  0.38140000  0.96770000  1.0 0.1199854255
H  H23  1  0.97090000  0.11860000  0.46770000  1.0 0.1199854255
H  H24  1  0.02910000  0.61860000  0.03230000  1.0 0.1199854255
H  H25  1  0.90290000  0.89950000  0.58920000  1.0 0.1287151317
H  H26  1  0.09710000  0.39950000  0.91080000  1.0 0.1287151317
H  H27  1  0.09710000  0.10050000  0.41080000  1.0 0.1287151317
H  H28  1  0.90290000  0.60050000  0.08920000  1.0 0.1287151317
H  H29  1  0.65160000  0.96840000  0.49730000  1.0 0.1287151317
H  H30  1  0.34840000  0.46840000  0.00270000  1.0 0.1287151317
H  H31  1  0.34840000  0.03160000  0.50270000  1.0 0.1287151317
H  H32  1  0.65160000  0.53160000  0.99730000  1.0 0.1287151317
H  H33  1  0.72600000  0.01350000  0.50230000  1.0 0.1287151317
H  H34  1  0.27400000  0.51350000  0.99770000  1.0 0.1287151317
H  H35  1  0.27400000  0.98650000  0.49770000  1.0 0.1287151317
H  H36  1  0.72600000  0.48650000  0.00230000  1.0 0.1287151317
H  H37  1  0.68660000  0.95580000  0.46710000  1.0 0.1287151317
H  H38  1  0.31340000  0.45580000  0.03290000  1.0 0.1287151317
H  H39  1  0.31340000  0.04420000  0.53290000  1.0 0.1287151317
H  H40  1  0.68660000  0.54420000  0.96710000  1.0 0.1287151317
H  H41  1  0.61650000  0.89250000  0.52380000  1.0 0.1199854255
H  H42  1  0.38350000  0.39250000  0.97620000  1.0 0.1199854255
H  H43  1  0.38350000  0.10750000  0.47620000  1.0 0.1199854255
H  H44  1  0.61650000  0.60750000  0.02380000  1.0 0.1199854255
H  H45  1  0.64010000  0.68890000  0.54590000  1.0 0.1137319805
H  H46  1  0.35990000  0.18890000  0.95410000  1.0 0.1137319805
H  H47  1  0.35990000  0.31110000  0.45410000  1.0 0.1137319805
H  H48  1  0.64010000  0.81110000  0.04590000  1.0 0.1199854255
H  H49  1  0.68930000  0.60300000  0.53550000  1.0 0.1287151317
H  H50  1  0.31070000  0.10300000  0.96450000  1.0 0.1287151317
H  H51  1  0.31070000  0.39700000  0.46450000  1.0 0.1287151317
H  H52  1  0.68930000  0.89700000  0.03550000  1.0 0.1287151317
H  H53  1  0.72770000  0.59460000  0.50650000  1.0 0.1401197068
H  H54  1  0.27230000  0.09460000  0.99350000  1.0 0.1401197068
H  H55  1  0.27230000  0.40540000  0.49350000  1.0 0.1401197068
H  H56  1  0.72770000  0.90540000  0.00650000  1.0 0.1401197068
H  H57  1  0.77460000  0.56560000  0.55250000  1.0 0.1473489335
H  H58  1  0.22540000  0.06560000  0.94750000  1.0 0.1473489335
H  H59  1  0.22540000  0.43440000  0.44750000  1.0 0.1473489335
H  H60  1  0.77460000  0.93440000  0.05250000  1.0 0.1473489335
H  H61  1  0.92340000  0.72380000  0.60800000  1.0 0.1199854255
H  H62  1  0.07660000  0.22380000  0.89200000  1.0 0.1199854255
H  H63  1  0.07660000  0.27620000  0.39200000  1.0 0.1199854255
H  H64  1  0.92340000  0.77620000  0.10800000  1.0 0.1199854255
H  H65  1  0.05150000  0.69620000  0.55170000  1.0 0.1287151317
H  H66  1  0.94850000  0.19620000  0.94830000  1.0 0.1287151317
H  H67  1  0.94850000  0.30380000  0.44830000  1.0 0.1287151317
H  H68  1  0.05150000  0.80380000  0.05170000  1.0 0.1287151317
H  H69  1  0.94710000  0.56920000  0.44760000  1.0 0.1401197068
H  H70  1  0.05290000  0.06920000  0.05240000  1.0 0.1401197068
H  H71  1  0.05290000  0.43080000  0.55240000  1.0 0.1401197068
H  H72  1  0.94710000  0.93080000  0.94760000  1.0 0.1401197068
H  H73  1  0.99240000  0.55440000  0.49590000  1.0 0.1401197068
H  H74  1  0.00760000  0.05440000  0.00410000  1.0 0.1401197068
H  H75  1  0.00760000  0.44560000  0.50410000  1.0 0.1401197068
H  H76  1  0.99240000  0.94560000  0.99590000  1.0 0.1401197068
H  H77  1  0.89650000  0.54740000  0.46910000  1.0 0.1401197068
H  H78  1  0.10350000  0.04740000  0.03090000  1.0 0.1401197068
H  H79  1  0.10350000  0.45260000  0.53090000  1.0 0.1401197068
H  H80  1  0.89650000  0.95260000  0.96910000  1.0 0.1401197068
H  H81  1  0.20550000  0.71410000  0.61970000  1.0 0.1199854255
H  H82  1  0.79450000  0.21410000  0.88030000  1.0 0.1199854255
H  H83  1  0.79450000  0.28590000  0.38030000  1.0 0.1199854255
H  H84  1  0.20550000  0.78590000  0.11970000  1.0 0.1199854255
H  H85  1  0.21900000  0.91810000  0.61470000  1.0 0.1287151317
H  H86  1  0.78100000  0.41810000  0.88530000  1.0 0.1287151317
H  H87  1  0.78100000  0.08190000  0.38530000  1.0 0.1287151317
H  H88  1  0.21900000  0.58190000  0.11470000  1.0 0.1287151317
H  H89  1  0.36630000  0.03240000  0.61140000  1.0 0.1401197068
H  H90  1  0.63370000  0.53240000  0.88860000  1.0 0.1401197068
H  H91  1  0.63370000  0.96760000  0.38860000  1.0 0.1401197068
H  H92  1  0.36630000  0.46760000  0.11140000  1.0 0.1401197068
H  H93  1  0.27400000  0.00880000  0.58650000  1.0 0.1401197068
H  H94  1  0.72600000  0.50880000  0.91350000  1.0 0.1401197068
H  H95  1  0.72600000  0.99120000  0.41350000  1.0 0.1401197068
H  H96  1  0.27400000  0.49120000  0.08650000  1.0 0.1401197068
H  H97  1  0.32210000  0.00620000  0.63550000  1.0 0.1401197068
H  H98  1  0.67790000  0.50620000  0.86450000  1.0 0.1401197068
H  H99  1  0.67790000  0.99380000  0.36450000  1.0 0.1401197068
H  H100  1  0.32210000  0.49380000  0.13550000  1.0 0.1401197068
H  H101  1  0.37510000  0.88230000  0.54840000  1.0 0.1199854255
H  H102  1  0.62490000  0.38230000  0.95160000  1.0 0.1199854255
H  H103  1  0.62490000  0.11770000  0.45160000  1.0 0.1199854255
H  H104  1  0.37510000  0.61770000  0.04840000  1.0 0.1199854255
H  H105  1  0.61650000  0.87750000  0.61000000  1.0 0.1287151317
H  H106  1  0.38350000  0.37750000  0.89000000  1.0 0.1287151317
H  H107  1  0.38350000  0.12250000  0.39000000  1.0 0.1287151317
H  H108  1  0.61650000  0.62250000  0.11000000  1.0 0.1287151317
H  H109  1  0.64730000  0.02440000  0.67880000  1.0 0.1287151317
H  H110  1  0.35270000  0.52440000  0.82120000  1.0 0.1287151317
H  H111  1  0.35270000  0.97560000  0.32120000  1.0 0.1287151317
H  H112  1  0.64730000  0.47560000  0.17880000  1.0 0.1287151317
H  H113  1  0.69780000  0.99700000  0.72500000  1.0 0.1287151317
H  H114  1  0.30220000  0.49700000  0.77500000  1.0 0.1287151317
H  H115  1  0.30220000  0.00300000  0.27500000  1.0 0.1287151317
H  H116  1  0.69780000  0.50300000  0.22500000  1.0 0.1287151317
H  H117  1  0.73190000  0.98660000  0.69430000  1.0 0.1401197068
H  H118  1  0.26810000  0.48660000  0.80570000  1.0 0.1401197068
H  H119  1  0.26810000  0.01340000  0.30570000  1.0 0.1401197068
H  H120  1  0.73190000  0.51340000  0.19430000  1.0 0.1401197068
H  H121  1  0.77770000  0.89860000  0.75500000  1.0 0.1287151317
H  H122  1  0.22230000  0.39860000  0.74500000  1.0 0.1287151317
H  H123  1  0.22230000  0.10140000  0.24500000  1.0 0.1287151317
H  H124  1  0.77770000  0.60140000  0.25500000  1.0 0.1287151317
H  H125  1  0.76510000  0.69220000  0.75990000  1.0 0.1287151317
H  H126  1  0.23490000  0.19220000  0.74010000  1.0 0.1287151317
H  H127  1  0.23490000  0.30780000  0.24010000  1.0 0.1287151317
H  H128  1  0.76510000  0.80780000  0.25990000  1.0 0.1287151317
H  H129  1  0.60490000  0.57410000  0.69320000  1.0 0.1287151317
H  H130  1  0.39510000  0.07410000  0.80680000  1.0 0.1287151317
H  H131  1  0.39510000  0.42590000  0.30680000  1.0 0.1287151317
H  H132  1  0.60490000  0.92590000  0.19320000  1.0 0.1287151317
H  H133  1  0.69550000  0.59510000  0.72560000  1.0 0.1401197068
H  H134  1  0.30450000  0.09510000  0.77440000  1.0 0.1401197068
H  H135  1  0.30450000  0.40490000  0.27440000  1.0 0.1401197068
H  H136  1  0.69550000  0.90490000  0.22560000  1.0 0.1401197068
H  H137  1  0.62330000  0.62020000  0.73230000  1.0 0.1401197068
H  H138  1  0.37670000  0.12020000  0.76770000  1.0 0.1401197068
H  H139  1  0.37670000  0.37980000  0.26770000  1.0 0.1401197068
H  H140  1  0.62330000  0.87980000  0.23230000  1.0 0.1401197068
H  H141  1  0.60320000  0.70540000  0.61320000  1.0 0.1199854255
H  H142  1  0.39680000  0.20540000  0.88680000  1.0 0.1199854255
H  H143  1  0.39680000  0.29460000  0.38680000  1.0 0.1199854255
H  H144  1  0.60320000  0.79460000  0.11320000  1.0 0.1199854255
H  H145  1  0.36520000  0.70780000  0.55330000  1.0 0.1287151317
H  H146  1  0.63480000  0.20780000  0.94670000  1.0 0.1287151317
H  H147  1  0.63480000  0.29220000  0.44670000  1.0 0.1287151317
H  H148  1  0.36520000  0.79220000  0.05330000  1.0 0.1287151317
H  H149  1  0.26460000  0.62670000  0.62900000  1.0 0.1401197068
H  H150  1  0.73540000  0.12670000  0.87100000  1.0 0.1401197068
H  H151  1  0.73540000  0.37330000  0.37100000  1.0 0.1401197068
H  H152  1  0.26460000  0.87330000  0.12900000  1.0 0.1401197068
H  H153  1  0.31360000  0.57980000  0.61390000  1.0 0.1287151317
H  H154  1  0.68640000  0.07980000  0.88610000  1.0 0.1287151317
H  H155  1  0.68640000  0.42020000  0.38610000  1.0 0.1287151317
H  H156  1  0.31360000  0.92020000  0.11390000  1.0 0.1287151317
H  H157  1  0.35850000  0.61260000  0.65900000  1.0 0.1287151317
H  H158  1  0.64150000  0.11260000  0.84100000  1.0 0.1287151317
H  H159  1  0.64150000  0.38740000  0.34100000  1.0 0.1287151317
H  H160  1  0.35850000  0.88740000  0.15900000  1.0 0.1287151317
H  H161  1  0.33140000  0.61930000  0.96060000  1.0 0.1137319805
H  H162  1  0.66860000  0.11930000  0.53940000  1.0 0.1137319805
H  H163  1  0.66860000  0.38070000  0.03940000  1.0 0.1137319805
H  H164  1  0.33140000  0.88070000  0.46060000  1.0 0.1137319805
H  H165  1  0.36620000  0.82680000  0.97130000  1.0 0.1137319805
H  H166  1  0.63380000  0.32680000  0.52870000  1.0 0.1137319805
H  H167  1  0.63380000  0.17320000  0.02870000  1.0 0.1137319805
H  H168  1  0.36620000  0.67320000  0.47130000  1.0 0.1137319805
H  H169  1  0.33190000  0.91470000  0.94620000  1.0 0.1287151317
H  H170  1  0.66810000  0.41470000  0.55380000  1.0 0.1287151317
H  H171  1  0.66810000  0.08530000  0.05380000  1.0 0.1287151317
H  H172  1  0.33190000  0.58530000  0.44620000  1.0 0.1287151317
H  H173  1  0.29310000  0.94170000  0.89990000  1.0 0.1287151317
H  H174  1  0.70690000  0.44170000  0.60010000  1.0 0.1287151317
H  H175  1  0.70690000  0.05830000  0.10010000  1.0 0.1287151317
H  H176  1  0.29310000  0.55830000  0.39990000  1.0 0.1287151317
H  H177  1  0.25600000  0.96570000  0.92770000  1.0 0.1401197068
H  H178  1  0.74400000  0.46570000  0.57230000  1.0 0.1401197068
H  H179  1  0.74400000  0.03430000  0.07230000  1.0 0.1401197068
H  H180  1  0.25600000  0.53430000  0.42770000  1.0 0.1401197068
H  H181  1  0.07940000  0.83170000  0.89380000  1.0 0.1287151317
H  H182  1  0.92060000  0.33170000  0.60620000  1.0 0.1287151317
H  H183  1  0.92060000  0.16830000  0.10620000  1.0 0.1287151317
H  H184  1  0.07940000  0.66830000  0.39380000  1.0 0.1287151317
H  H185  1  0.94950000  0.88820000  0.77750000  1.0 0.1287151317
H  H186  1  0.05050000  0.38820000  0.72250000  1.0 0.1287151317
H  H187  1  0.05050000  0.11180000  0.22250000  1.0 0.1287151317
H  H188  1  0.94950000  0.61180000  0.27750000  1.0 0.1287151317
H  H189  1  0.06390000  0.01610000  0.77070000  1.0 0.1401197068
H  H190  1  0.93610000  0.51610000  0.72930000  1.0 0.1401197068
H  H191  1  0.93610000  0.98390000  0.22930000  1.0 0.1401197068
H  H192  1  0.06390000  0.48390000  0.27070000  1.0 0.1401197068
H  H193  1  0.11010000  0.99670000  0.74650000  1.0 0.1473489335
H  H194  1  0.88990000  0.49670000  0.75350000  1.0 0.1473489335
H  H195  1  0.88990000  0.00330000  0.25350000  1.0 0.1473489335
H  H196  1  0.11010000  0.50330000  0.24650000  1.0 0.1473489335
H  H197  1  0.01390000  0.99350000  0.72350000  1.0 0.1401197068
H  H198  1  0.98610000  0.49350000  0.77650000  1.0 0.1401197068
H  H199  1  0.98610000  0.00650000  0.27650000  1.0 0.1401197068
H  H200  1  0.01390000  0.50650000  0.22350000  1.0 0.1401197068
H  H201  1  0.06700000  0.91010000  0.68920000  1.0 0.1287151317
H  H202  1  0.93300000  0.41010000  0.81080000  1.0 0.1287151317
H  H203  1  0.93300000  0.08990000  0.31080000  1.0 0.1287151317
H  H204  1  0.06700000  0.58990000  0.18920000  1.0 0.1287151317
H  H205  1  0.06630000  0.70390000  0.67820000  1.0 0.1199854255
H  H206  1  0.93370000  0.20390000  0.82180000  1.0 0.1199854255
H  H207  1  0.93370000  0.29610000  0.32180000  1.0 0.1199854255
H  H208  1  0.06630000  0.79610000  0.17820000  1.0 0.1199854255
H  H209  1  0.10120000  0.61620000  0.71230000  1.0 0.1287151317
H  H210  1  0.89880000  0.11620000  0.78770000  1.0 0.1401197068
H  H211  1  0.89880000  0.38380000  0.28770000  1.0 0.1401197068
H  H212  1  0.10120000  0.88380000  0.21230000  1.0 0.1287151317
H  H213  1  0.15530000  0.59890000  0.76010000  1.0 0.1473489335
H  H214  1  0.84470000  0.09890000  0.73990000  1.0 0.1473489335
H  H215  1  0.84470000  0.40110000  0.23990000  1.0 0.1473489335
H  H216  1  0.15530000  0.90110000  0.26010000  1.0 0.1473489335
H  H217  1  0.06720000  0.56620000  0.73410000  1.0 0.1401197068
H  H218  1  0.93280000  0.06620000  0.76590000  1.0 0.1401197068
H  H219  1  0.93280000  0.43380000  0.26590000  1.0 0.1401197068
H  H220  1  0.06720000  0.93380000  0.23410000  1.0 0.1401197068
H  H221  1  0.94980000  0.71810000  0.76050000  1.0 0.1287151317
H  H222  1  0.05020000  0.21810000  0.73950000  1.0 0.1287151317
H  H223  1  0.05020000  0.28190000  0.23950000  1.0 0.1287151317
H  H224  1  0.94980000  0.78190000  0.26050000  1.0 0.1287151317
H  H225  1  0.03840000  0.65980000  0.87700000  1.0 0.1287151317
H  H226  1  0.96160000  0.15980000  0.62300000  1.0 0.1287151317
H  H227  1  0.96160000  0.34020000  0.12300000  1.0 0.1287151317
H  H228  1  0.03840000  0.84020000  0.37700000  1.0 0.1287151317
H  H229  1  0.17190000  0.51580000  0.88130000  1.0 0.1473489335
H  H230  1  0.82810000  0.01580000  0.61870000  1.0 0.1473489335
H  H231  1  0.82810000  0.48420000  0.11870000  1.0 0.1473489335
H  H232  1  0.17190000  0.98420000  0.38130000  1.0 0.1473489335
H  H233  1  0.25770000  0.54640000  0.89190000  1.0 0.1401197068
H  H234  1  0.74230000  0.04640000  0.60810000  1.0 0.1401197068
H  H235  1  0.74230000  0.45360000  0.10810000  1.0 0.1401197068
H  H236  1  0.25770000  0.95360000  0.39190000  1.0 0.1401197068
H  H237  1  0.23690000  0.53470000  0.92770000  1.0 0.1199854255
H  H238  1  0.76310000  0.03470000  0.57230000  1.0 0.1199854255
H  H239  1  0.76310000  0.46530000  0.07230000  1.0 0.1199854255
H  H240  1  0.23690000  0.96530000  0.42770000  1.0 0.1199854255
H  H241  1  0.38400000  0.08520000  0.69430000  1.0 0.1199854255
H  H242  1  0.61600000  0.58520000  0.80570000  1.0 0.1199854255
H  H243  1  0.61600000  0.91480000  0.30570000  1.0 0.1199854255
H  H244  1  0.38400000  0.41480000  0.19430000  1.0 0.1199854255
H  H245  1  0.62330000  0.08590000  0.75270000  1.0 0.1287151317
H  H246  1  0.37670000  0.58590000  0.74730000  1.0 0.1287151317
H  H247  1  0.37670000  0.91410000  0.24730000  1.0 0.1287151317
H  H248  1  0.62330000  0.41410000  0.25270000  1.0 0.1287151317
H  H249  1  0.72040000  0.14400000  0.77320000  1.0 0.1401197068
H  H250  1  0.27960000  0.64400000  0.72680000  1.0 0.1401197068
H  H251  1  0.27960000  0.85600000  0.22680000  1.0 0.1401197068
H  H252  1  0.72040000  0.35600000  0.27320000  1.0 0.1401197068
H  H253  1  0.72320000  0.20480000  0.74500000  1.0 0.1401197068
H  H254  1  0.27680000  0.70480000  0.75500000  1.0 0.1401197068
H  H255  1  0.27680000  0.79520000  0.25500000  1.0 0.1401197068
H  H256  1  0.72320000  0.29520000  0.24500000  1.0 0.1401197068
H  H257  1  0.76540000  0.21520000  0.79360000  1.0 0.1401197068
H  H258  1  0.23460000  0.71520000  0.70640000  1.0 0.1401197068
H  H259  1  0.23460000  0.78480000  0.20640000  1.0 0.1401197068
H  H260  1  0.76540000  0.28480000  0.29360000  1.0 0.1401197068
H  H261  1  0.60140000  0.31370000  0.80250000  1.0 0.1199854255
H  H262  1  0.39860000  0.81370000  0.69750000  1.0 0.1199854255
H  H263  1  0.39860000  0.68630000  0.19750000  1.0 0.1199854255
H  H264  1  0.60140000  0.18630000  0.30250000  1.0 0.1199854255
H  H265  1  0.58680000  0.48220000  0.73950000  1.0 0.1199854255
H  H266  1  0.41320000  0.98220000  0.76050000  1.0 0.1199854255
H  H267  1  0.41320000  0.51780000  0.26050000  1.0 0.1199854255
H  H268  1  0.58680000  0.01780000  0.23950000  1.0 0.1199854255
H  H269  1  0.75060000  0.40410000  0.71440000  1.0 0.1401197068
H  H270  1  0.24940000  0.90410000  0.78560000  1.0 0.1401197068
H  H271  1  0.24940000  0.59590000  0.28560000  1.0 0.1401197068
H  H272  1  0.75060000  0.09590000  0.21440000  1.0 0.1401197068
H  H273  1  0.69750000  0.38400000  0.66690000  1.0 0.1401197068
H  H274  1  0.30250000  0.88400000  0.83310000  1.0 0.1401197068
H  H275  1  0.30250000  0.61600000  0.33310000  1.0 0.1401197068
H  H276  1  0.69750000  0.11600000  0.16690000  1.0 0.1401197068
H  H277  1  0.72290000  0.46300000  0.68000000  1.0 0.1287151317
H  H278  1  0.27710000  0.96300000  0.82000000  1.0 0.1287151317
H  H279  1  0.27710000  0.53700000  0.32000000  1.0 0.1287151317
H  H280  1  0.72290000  0.03700000  0.18000000  1.0 0.1287151317
H  H281  1  0.60870000  0.49710000  0.62200000  1.0 0.1199854255
H  H282  1  0.39130000  0.99710000  0.87800000  1.0 0.1199854255
H  H283  1  0.39130000  0.50290000  0.37800000  1.0 0.1199854255
H  H284  1  0.60870000  0.00290000  0.12200000  1.0 0.1199854255
H  H285  1  0.36820000  0.51020000  0.56380000  1.0 0.1199854255
H  H286  1  0.63180000  0.01020000  0.93620000  1.0 0.1199854255
H  H287  1  0.63180000  0.48980000  0.43620000  1.0 0.1199854255
H  H288  1  0.36820000  0.98980000  0.06380000  1.0 0.1199854255
H  H289  1  0.22860000  0.40940000  0.58610000  1.0 0.1401197068
H  H290  1  0.77140000  0.90940000  0.91390000  1.0 0.1401197068
H  H291  1  0.77140000  0.59060000  0.41390000  1.0 0.1401197068
H  H292  1  0.22860000  0.09060000  0.08610000  1.0 0.1401197068
H  H293  1  0.25800000  0.46780000  0.56630000  1.0 0.1401197068
H  H294  1  0.74200000  0.96780000  0.93370000  1.0 0.1401197068
H  H295  1  0.74200000  0.53220000  0.43370000  1.0 0.1401197068
H  H296  1  0.25800000  0.03220000  0.06630000  1.0 0.1401197068
H  H297  1  0.28080000  0.38820000  0.56540000  1.0 0.1401197068
H  H298  1  0.71920000  0.88820000  0.93460000  1.0 0.1401197068
H  H299  1  0.71920000  0.61180000  0.43460000  1.0 0.1401197068
H  H300  1  0.28080000  0.11180000  0.06540000  1.0 0.1401197068
H  H301  1  0.39320000  0.48450000  0.69570000  1.0 0.1287151317
H  H302  1  0.60680000  0.98450000  0.80430000  1.0 0.1287151317
H  H303  1  0.60680000  0.51550000  0.30430000  1.0 0.1287151317
H  H304  1  0.39320000  0.01550000  0.19570000  1.0 0.1287151317
H  H305  1  0.40460000  0.30900000  0.75340000  1.0 0.1199854255
H  H306  1  0.59540000  0.80900000  0.74660000  1.0 0.1199854255
H  H307  1  0.59540000  0.69100000  0.24660000  1.0 0.1199854255
H  H308  1  0.40460000  0.19100000  0.25340000  1.0 0.1199854255
H  H309  1  0.28640000  0.13930000  0.66140000  1.0 0.1401197068
H  H310  1  0.71360000  0.63930000  0.83860000  1.0 0.1401197068
H  H311  1  0.71360000  0.86070000  0.33860000  1.0 0.1401197068
H  H312  1  0.28640000  0.36070000  0.16140000  1.0 0.1401197068
H  H313  1  0.23640000  0.20800000  0.65790000  1.0 0.1287151317
H  H314  1  0.76360000  0.70800000  0.84210000  1.0 0.1287151317
H  H315  1  0.76360000  0.79200000  0.34210000  1.0 0.1287151317
H  H316  1  0.23640000  0.29200000  0.15790000  1.0 0.1287151317
H  H317  1  0.27830000  0.19990000  0.63050000  1.0 0.1401197068
H  H318  1  0.72170000  0.69990000  0.86950000  1.0 0.1401197068
H  H319  1  0.72170000  0.80010000  0.36950000  1.0 0.1401197068
H  H320  1  0.27830000  0.30010000  0.13050000  1.0 0.1401197068
C  C1  1  0.93000000  0.70000000  0.45460000  1.0 0.3095060829
C  C2  1  0.07000000  0.20000000  0.04540000  1.0 0.3095060829
C  C3  1  0.07000000  0.30000000  0.54540000  1.0 0.3095060829
C  C4  1  0.93000000  0.80000000  0.95460000  1.0 0.3095060829
C  C5  1  0.92800000  0.69020000  0.41560000  1.0 -0.0599672756
C  C6  1  0.07200000  0.19020000  0.08440000  1.0 -0.0599672756
C  C7  1  0.07200000  0.30980000  0.58440000  1.0 -0.0599672756
C  C8  1  0.92800000  0.80980000  0.91560000  1.0 -0.0599672756
C  C9  1  0.91700000  0.80960000  0.40400000  1.0 -0.0892330542
C  C10  1  0.08300000  0.30960000  0.09600000  1.0 -0.0892330542
C  C11  1  0.08300000  0.19040000  0.59600000  1.0 -0.0892330542
C  C12  1  0.91700000  0.69040000  0.90400000  1.0 -0.0892330542
C  C13  1  0.92040000  0.82120000  0.44260000  1.0 0.3000574723
C  C14  1  0.07960000  0.32120000  0.05740000  1.0 0.3000574723
C  C15  1  0.07960000  0.17880000  0.55740000  1.0 0.3000574723
C  C16  1  0.92040000  0.67880000  0.94260000  1.0 0.3000574723
C  C17  1  0.90080000  0.95190000  0.43060000  1.0 -0.3286283262
C  C18  1  0.09920000  0.45190000  0.06940000  1.0 -0.3286283262
C  C19  1  0.09920000  0.04810000  0.56940000  1.0 -0.3286283262
C  C20  1  0.90080000  0.54810000  0.93060000  1.0 -0.3286283262
C  C21  1  0.90870000  0.89510000  0.49340000  1.0 0.288481702
C  C22  1  0.09130000  0.39510000  0.00660000  1.0 0.288481702
C  C23  1  0.09130000  0.10490000  0.50660000  1.0 0.288481702
C  C24  1  0.90870000  0.60490000  0.99340000  1.0 0.288481702
C  C25  1  0.97940000  0.88630000  0.53180000  1.0 -0.1014451444
C  C26  1  0.02060000  0.38630000  0.96820000  1.0 -0.1014451444
C  C27  1  0.02060000  0.11370000  0.46820000  1.0 -0.1014451444
C  C28  1  0.97940000  0.61370000  0.03180000  1.0 -0.1014451444
C  C29  1  0.90630000  0.89690000  0.56490000  1.0 -0.0723457662
C  C30  1  0.09370000  0.39690000  0.93510000  1.0 -0.0723457662
C  C31  1  0.09370000  0.10310000  0.43510000  1.0 -0.0723457662
C  C32  1  0.90630000  0.60310000  0.06490000  1.0 -0.0723457662
C  C33  1  0.83710000  0.90590000  0.52750000  1.0 0.2535697237
C  C34  1  0.16290000  0.40590000  0.97250000  1.0 0.2535697237
C  C35  1  0.16290000  0.09410000  0.47250000  1.0 0.2535697237
C  C36  1  0.83710000  0.59410000  0.02750000  1.0 0.2535697237
C  C37  1  0.70060000  0.96770000  0.49530000  1.0 -0.3203078915
C  C38  1  0.29940000  0.46770000  0.00470000  1.0 -0.3203078915
C  C39  1  0.29940000  0.03230000  0.50470000  1.0 -0.3203078915
C  C40  1  0.70060000  0.53230000  0.99530000  1.0 -0.3203078915
C  C41  1  0.72400000  0.85300000  0.53220000  1.0 0.3095060829
C  C42  1  0.27600000  0.35300000  0.96780000  1.0 0.3095060829
C  C43  1  0.27600000  0.14700000  0.46780000  1.0 0.3095060829
C  C44  1  0.72400000  0.64700000  0.03220000  1.0 0.3095060829
C  C45  1  0.64680000  0.85110000  0.52920000  1.0 -0.1584242018
C  C46  1  0.35320000  0.35110000  0.97080000  1.0 -0.1584242018
C  C47  1  0.35320000  0.14890000  0.47080000  1.0 -0.1584242018
C  C48  1  0.64680000  0.64890000  0.02920000  1.0 -0.1584242018
C  C49  1  0.66030000  0.73120000  0.54170000  1.0 -0.1506871893
C  C50  1  0.33970000  0.23120000  0.95830000  1.0 -0.1506871893
C  C51  1  0.33970000  0.26880000  0.45830000  1.0 -0.1506871893
C  C52  1  0.66030000  0.76880000  0.04170000  1.0 -0.1506871893
C  C53  1  0.73910000  0.73140000  0.54350000  1.0 0.3428325743
C  C54  1  0.26090000  0.23140000  0.95650000  1.0 0.3428325743
C  C55  1  0.26090000  0.26860000  0.45650000  1.0 0.3428325743
C  C56  1  0.73910000  0.76860000  0.04350000  1.0 0.3428325743
C  C57  1  0.73960000  0.60270000  0.53470000  1.0 -0.3203078915
C  C58  1  0.26040000  0.10270000  0.96530000  1.0 -0.3203078915
C  C59  1  0.26040000  0.39730000  0.46530000  1.0 -0.3203078915
C  C60  1  0.73960000  0.89730000  0.03470000  1.0 -0.3203078915
C  C61  1  0.85900000  0.67800000  0.55020000  1.0 0.2813873466
C  C62  1  0.14100000  0.17800000  0.94980000  1.0 0.2813873466
C  C63  1  0.14100000  0.32200000  0.44980000  1.0 0.2813873466
C  C64  1  0.85900000  0.82200000  0.05020000  1.0 0.2813873466
C  C65  1  0.92770000  0.70920000  0.58510000  1.0 -0.0493394481
C  C66  1  0.07230000  0.20920000  0.91490000  1.0 -0.0493394481
C  C67  1  0.07230000  0.29080000  0.41490000  1.0 -0.0493394481
C  C68  1  0.92770000  0.79080000  0.08510000  1.0 -0.0493394481
C  C69  1  0.00220000  0.69380000  0.55180000  1.0 -0.0773387511
C  C70  1  0.99780000  0.19380000  0.94820000  1.0 -0.0773387511
C  C71  1  0.99780000  0.30620000  0.44820000  1.0 -0.0773387511
C  C72  1  0.00220000  0.80620000  0.05180000  1.0 -0.0773387511
C  C73  1  0.92960000  0.66430000  0.51620000  1.0 0.3204146597
C  C74  1  0.07040000  0.16430000  0.98380000  1.0 0.3204146597
C  C75  1  0.07040000  0.33570000  0.48380000  1.0 0.3204146597
C  C76  1  0.92960000  0.83570000  0.01620000  1.0 0.3095060829
C  C77  1  0.94350000  0.57330000  0.47260000  1.0 -0.3203078915
C  C78  1  0.05650000  0.07330000  0.02740000  1.0 -0.3203078915
C  C79  1  0.05650000  0.42670000  0.52740000  1.0 -0.3203078915
C  C80  1  0.94350000  0.92670000  0.97260000  1.0 -0.3203078915
C  C81  1  0.30100000  0.74800000  0.61320000  1.0 0.3000574723
C  C82  1  0.69900000  0.24800000  0.88680000  1.0 0.3000574723
C  C83  1  0.69900000  0.25200000  0.38680000  1.0 0.3000574723
C  C84  1  0.30100000  0.75200000  0.11320000  1.0 0.3000574723
C  C85  1  0.23030000  0.75460000  0.61680000  1.0 -0.0493394481
C  C86  1  0.76970000  0.25460000  0.88320000  1.0 -0.0493394481
C  C87  1  0.76970000  0.24540000  0.38320000  1.0 -0.0493394481
C  C88  1  0.23030000  0.74540000  0.11680000  1.0 -0.0493394481
C  C89  1  0.23940000  0.87360000  0.61380000  1.0 -0.1506871893
C  C90  1  0.76060000  0.37360000  0.88620000  1.0 -0.1506871893
C  C91  1  0.76060000  0.12640000  0.38620000  1.0 -0.1506871893
C  C92  1  0.23940000  0.62640000  0.11380000  1.0 -0.1506871893
C  C93  1  0.30790000  0.86940000  0.61000000  1.0 0.2705291935
C  C94  1  0.69210000  0.36940000  0.89000000  1.0 0.2705291935
C  C95  1  0.69210000  0.13060000  0.39000000  1.0 0.2705291935
C  C96  1  0.30790000  0.63060000  0.11000000  1.0 0.2705291935
C  C97  1  0.32640000  0.99990000  0.61080000  1.0 -0.3376247152
C  C98  1  0.67360000  0.49990000  0.88920000  1.0 -0.3376247152
C  C99  1  0.67360000  0.00010000  0.38920000  1.0 -0.3376247152
C  C100  1  0.32640000  0.50010000  0.11080000  1.0 -0.3376247152
C  C101  1  0.42500000  0.91390000  0.61000000  1.0 0.2813873466
C  C102  1  0.57500000  0.41390000  0.89000000  1.0 0.2813873466
C  C103  1  0.57500000  0.08610000  0.39000000  1.0 0.2813873466
C  C104  1  0.42500000  0.58610000  0.11000000  1.0 0.2813873466
C  C105  1  0.42500000  0.89050000  0.57260000  1.0 -0.1067808008
C  C106  1  0.57500000  0.39050000  0.92740000  1.0 -0.1067808008
C  C107  1  0.57500000  0.10950000  0.42740000  1.0 -0.1067808008
C  C108  1  0.42500000  0.60950000  0.07260000  1.0 -0.1067808008
C  C109  1  0.56700000  0.88790000  0.60880000  1.0 -0.1297321728
C  C110  1  0.43300000  0.38790000  0.89120000  1.0 -0.1297321728
C  C111  1  0.43300000  0.11210000  0.39120000  1.0 -0.1297321728
C  C112  1  0.56700000  0.61210000  0.10880000  1.0 -0.1297321728
C  C113  1  0.56730000  0.91160000  0.64620000  1.0 0.3288131744
C  C114  1  0.43270000  0.41160000  0.85380000  1.0 0.3288131744
C  C115  1  0.43270000  0.08840000  0.35380000  1.0 0.3288131744
C  C116  1  0.56730000  0.58840000  0.14620000  1.0 0.3288131744
C  C117  1  0.68310000  0.98770000  0.69650000  1.0 -0.3203078915
C  C118  1  0.31690000  0.48770000  0.80350000  1.0 -0.3203078915
C  C119  1  0.31690000  0.01230000  0.30350000  1.0 -0.3203078915
C  C120  1  0.68310000  0.51230000  0.19650000  1.0 -0.3203078915
C  C121  1  0.68060000  0.85480000  0.70490000  1.0 0.2600395956
C  C122  1  0.31940000  0.35480000  0.79510000  1.0 0.2600395956
C  C123  1  0.31940000  0.14520000  0.29510000  1.0 0.2600395956
C  C124  1  0.68060000  0.64520000  0.20490000  1.0 0.2600395956
C  C125  1  0.75220000  0.85570000  0.74340000  1.0 -0.0305216032
C  C126  1  0.24780000  0.35570000  0.75660000  1.0 -0.0305216032
C  C127  1  0.24780000  0.14430000  0.25660000  1.0 -0.0305216032
C  C128  1  0.75220000  0.64430000  0.24340000  1.0 -0.0305216032
C  C129  1  0.74430000  0.73480000  0.74590000  1.0 -0.1506871893
C  C130  1  0.25570000  0.23480000  0.75410000  1.0 -0.1506871893
C  C131  1  0.25570000  0.26520000  0.25410000  1.0 -0.1506871893
C  C132  1  0.74430000  0.76520000  0.24590000  1.0 -0.1506871893
C  C133  1  0.67260000  0.73610000  0.70700000  1.0 0.3000574723
C  C134  1  0.32740000  0.23610000  0.79300000  1.0 0.3000574723
C  C135  1  0.32740000  0.26390000  0.29300000  1.0 0.3000574723
C  C136  1  0.67260000  0.76390000  0.20700000  1.0 0.3000574723
C  C137  1  0.63940000  0.61050000  0.71180000  1.0 -0.3376247152
C  C138  1  0.36060000  0.11050000  0.78820000  1.0 -0.3376247152
C  C139  1  0.36060000  0.38950000  0.28820000  1.0 -0.3376247152
C  C140  1  0.63940000  0.88950000  0.21180000  1.0 -0.3376247152
C  C141  1  0.55180000  0.68320000  0.64880000  1.0 0.2705291935
C  C142  1  0.44820000  0.18320000  0.85120000  1.0 0.2705291935
C  C143  1  0.44820000  0.31680000  0.35120000  1.0 0.2705291935
C  C144  1  0.55180000  0.81680000  0.14880000  1.0 0.2705291935
C  C145  1  0.55350000  0.70100000  0.61280000  1.0 -0.0723457662
C  C146  1  0.44650000  0.20100000  0.88720000  1.0 -0.0723457662
C  C147  1  0.44650000  0.29900000  0.38720000  1.0 -0.0723457662
C  C148  1  0.55350000  0.79900000  0.11280000  1.0 -0.0723457662
C  C149  1  0.41450000  0.70240000  0.57820000  1.0 -0.0599672756
C  C150  1  0.58550000  0.20240000  0.92180000  1.0 -0.0599672756
C  C151  1  0.58550000  0.29760000  0.42180000  1.0 -0.0599672756
C  C152  1  0.41450000  0.79760000  0.07820000  1.0 -0.0599672756
C  C153  1  0.41300000  0.68520000  0.61390000  1.0 0.2600395956
C  C154  1  0.58700000  0.18520000  0.88610000  1.0 0.2600395956
C  C155  1  0.58700000  0.31480000  0.38610000  1.0 0.2600395956
C  C156  1  0.41300000  0.81480000  0.11390000  1.0 0.2600395956
C  C157  1  0.31650000  0.62020000  0.63040000  1.0 -0.3286283262
C  C158  1  0.68350000  0.12020000  0.86960000  1.0 -0.3286283262
C  C159  1  0.68350000  0.37980000  0.36960000  1.0 -0.3286283262
C  C160  1  0.31650000  0.87980000  0.13040000  1.0 -0.3286283262
C  C161  1  0.23390000  0.67780000  0.91500000  1.0 0.3095060829
C  C162  1  0.76610000  0.17780000  0.58500000  1.0 0.3095060829
C  C163  1  0.76610000  0.32220000  0.08500000  1.0 0.3095060829
C  C164  1  0.23390000  0.82220000  0.41500000  1.0 0.3095060829
C  C165  1  0.31310000  0.66520000  0.95160000  1.0 -0.1297321728
C  C166  1  0.68690000  0.16520000  0.54840000  1.0 -0.1297321728
C  C167  1  0.68690000  0.33480000  0.04840000  1.0 -0.1297321728
C  C168  1  0.31310000  0.83480000  0.45160000  1.0 -0.1297321728
C  C169  1  0.33290000  0.78790000  0.95790000  1.0 -0.1506871893
C  C170  1  0.66710000  0.28790000  0.54210000  1.0 -0.1506871893
C  C171  1  0.66710000  0.21210000  0.04210000  1.0 -0.1506871893
C  C172  1  0.33290000  0.71210000  0.45790000  1.0 -0.1506871893
C  C173  1  0.25470000  0.79730000  0.92280000  1.0 0.3288131744
C  C174  1  0.74530000  0.29730000  0.57720000  1.0 0.3288131744
C  C175  1  0.74530000  0.20270000  0.07720000  1.0 0.3288131744
C  C176  1  0.25470000  0.70270000  0.42280000  1.0 0.3288131744
C  C177  1  0.28160000  0.92730000  0.92140000  1.0 -0.3203078915
C  C178  1  0.71840000  0.42730000  0.57860000  1.0 -0.3203078915
C  C179  1  0.71840000  0.07270000  0.07860000  1.0 -0.3203078915
C  C180  1  0.28160000  0.57270000  0.42140000  1.0 -0.3203078915
C  C181  1  0.14640000  0.87170000  0.87050000  1.0 0.288481702
C  C182  1  0.85360000  0.37170000  0.62950000  1.0 0.288481702
C  C183  1  0.85360000  0.12830000  0.12950000  1.0 0.288481702
C  C184  1  0.14640000  0.62830000  0.37050000  1.0 0.288481702
C  C185  1  0.07560000  0.85150000  0.86980000  1.0 -0.0723457662
C  C186  1  0.92440000  0.35150000  0.63020000  1.0 -0.0723457662
C  C187  1  0.92440000  0.14850000  0.13020000  1.0 -0.0723457662
C  C188  1  0.07560000  0.64850000  0.36980000  1.0 -0.0723457662
C  C189  1  0.00030000  0.88230000  0.80160000  1.0 -0.0493394481
C  C190  1  0.99970000  0.38230000  0.69840000  1.0 -0.0493394481
C  C191  1  0.99970000  0.11770000  0.19840000  1.0 -0.0493394481
C  C192  1  0.00030000  0.61770000  0.30160000  1.0 -0.0493394481
C  C193  1  0.06700000  0.89780000  0.79940000  1.0 0.225334318
C  C194  1  0.93300000  0.39780000  0.70060000  1.0 0.225334318
C  C195  1  0.93300000  0.10220000  0.20060000  1.0 0.225334318
C  C196  1  0.06700000  0.60220000  0.29940000  1.0 0.225334318
C  C197  1  0.06350000  0.98590000  0.74960000  1.0 -0.3124573923
C  C198  1  0.93650000  0.48590000  0.75040000  1.0 -0.3124573923
C  C199  1  0.93650000  0.01410000  0.25040000  1.0 -0.3124573923
C  C200  1  0.06350000  0.51410000  0.24960000  1.0 -0.3124573923
C  C201  1  0.06860000  0.85790000  0.73950000  1.0 0.3204146597
C  C202  1  0.93140000  0.35790000  0.76050000  1.0 0.3204146597
C  C203  1  0.93140000  0.14210000  0.26050000  1.0 0.3204146597
C  C204  1  0.06860000  0.64210000  0.23950000  1.0 0.3204146597
C  C205  1  0.06900000  0.86540000  0.70030000  1.0 -0.0493394481
C  C206  1  0.93100000  0.36540000  0.79970000  1.0 -0.0493394481
C  C207  1  0.93100000  0.13460000  0.29970000  1.0 -0.0493394481
C  C208  1  0.06900000  0.63460000  0.20030000  1.0 -0.0493394481
C  C209  1  0.06790000  0.74350000  0.69360000  1.0 -0.1014451444
C  C210  1  0.93210000  0.24350000  0.80640000  1.0 -0.1014451444
C  C211  1  0.93210000  0.25650000  0.30640000  1.0 -0.1014451444
C  C212  1  0.06790000  0.75650000  0.19360000  1.0 -0.1014451444
C  C213  1  0.06550000  0.73630000  0.73160000  1.0 0.3000574723
C  C214  1  0.93450000  0.23630000  0.76840000  1.0 0.3000574723
C  C215  1  0.93450000  0.26370000  0.26840000  1.0 0.3000574723
C  C216  1  0.06550000  0.76370000  0.23160000  1.0 0.3000574723
C  C217  1  0.10030000  0.60720000  0.73770000  1.0 -0.3203078915
C  C218  1  0.89970000  0.10720000  0.76230000  1.0 -0.3203078915
C  C219  1  0.89970000  0.39280000  0.26230000  1.0 -0.3203078915
C  C220  1  0.10030000  0.89280000  0.23770000  1.0 -0.3203078915
C  C221  1  0.05760000  0.66730000  0.78370000  1.0 0.2705291935
C  C222  1  0.94240000  0.16730000  0.71630000  1.0 0.2705291935
C  C223  1  0.94240000  0.33270000  0.21630000  1.0 0.2705291935
C  C224  1  0.05760000  0.83270000  0.28370000  1.0 0.2705291935
C  C225  1  0.99010000  0.69600000  0.78460000  1.0 -0.0305216032
C  C226  1  0.00990000  0.19600000  0.71540000  1.0 -0.0305216032
C  C227  1  0.00990000  0.30400000  0.21540000  1.0 -0.0305216032
C  C228  1  0.99010000  0.80400000  0.28460000  1.0 -0.0305216032
C  C229  1  0.04380000  0.66380000  0.85340000  1.0 -0.1506871893
C  C230  1  0.95620000  0.16380000  0.64660000  1.0 -0.1506871893
C  C231  1  0.95620000  0.33620000  0.14660000  1.0 -0.1506871893
C  C232  1  0.04380000  0.83620000  0.35340000  1.0 -0.1506871893
C  C233  1  0.11410000  0.64030000  0.85450000  1.0 0.288481702
C  C234  1  0.88590000  0.14030000  0.64550000  1.0 0.288481702
C  C235  1  0.88590000  0.35970000  0.14550000  1.0 0.288481702
C  C236  1  0.11410000  0.85970000  0.35450000  1.0 0.288481702
C  C237  1  0.21490000  0.54800000  0.89890000  1.0 -0.3124573923
C  C238  1  0.78510000  0.04800000  0.60110000  1.0 -0.3124573923
C  C239  1  0.78510000  0.45200000  0.10110000  1.0 -0.3124573923
C  C240  1  0.21490000  0.95200000  0.39890000  1.0 -0.3124573923
C  C241  1  0.43320000  0.18290000  0.70920000  1.0 0.288481702
C  C242  1  0.56680000  0.68290000  0.79080000  1.0 0.288481702
C  C243  1  0.56680000  0.81710000  0.29080000  1.0 0.288481702
C  C244  1  0.43320000  0.31710000  0.20920000  1.0 0.288481702
C  C245  1  0.43340000  0.10980000  0.70730000  1.0 -0.1297321728
C  C246  1  0.56660000  0.60980000  0.79270000  1.0 -0.1297321728
C  C247  1  0.56660000  0.89020000  0.29270000  1.0 -0.1297321728
C  C248  1  0.43340000  0.39020000  0.20730000  1.0 -0.1297321728
C  C249  1  0.57370000  0.11000000  0.74200000  1.0 -0.1014451444
C  C250  1  0.42630000  0.61000000  0.75800000  1.0 -0.1014451444
C  C251  1  0.42630000  0.89000000  0.25800000  1.0 -0.1014451444
C  C252  1  0.57370000  0.39000000  0.24200000  1.0 -0.1014451444
C  C253  1  0.57330000  0.18490000  0.74520000  1.0 0.3095060829
C  C254  1  0.42670000  0.68490000  0.75480000  1.0 0.3095060829
C  C255  1  0.42670000  0.81510000  0.25480000  1.0 0.3095060829
C  C256  1  0.57330000  0.31510000  0.24520000  1.0 0.3095060829
C  C257  1  0.71960000  0.19430000  0.76950000  1.0 -0.3376247152
C  C258  1  0.28040000  0.69430000  0.73050000  1.0 -0.3376247152
C  C259  1  0.28040000  0.80570000  0.23050000  1.0 -0.3376247152
C  C260  1  0.71960000  0.30570000  0.26950000  1.0 -0.3376247152
C  C261  1  0.63420000  0.29780000  0.75960000  1.0 0.2414535448
C  C262  1  0.36580000  0.79780000  0.74040000  1.0 0.2414535448
C  C263  1  0.36580000  0.70220000  0.24040000  1.0 0.2414535448
C  C264  1  0.63420000  0.20220000  0.25960000  1.0 0.2414535448
C  C265  1  0.60880000  0.33650000  0.78220000  1.0 -0.0892330542
C  C266  1  0.39120000  0.83650000  0.71780000  1.0 -0.0892330542
C  C267  1  0.39120000  0.66350000  0.21780000  1.0 -0.0892330542
C  C268  1  0.60880000  0.16350000  0.28220000  1.0 -0.0892330542
C  C269  1  0.60060000  0.43470000  0.74600000  1.0 -0.0396854583
C  C270  1  0.39940000  0.93470000  0.75400000  1.0 -0.0396854583
C  C271  1  0.39940000  0.56530000  0.25400000  1.0 -0.0396854583
C  C272  1  0.60060000  0.06530000  0.24600000  1.0 -0.0396854583
C  C273  1  0.62780000  0.39620000  0.72280000  1.0 0.3095060829
C  C274  1  0.37220000  0.89620000  0.77720000  1.0 0.3095060829
C  C275  1  0.37220000  0.60380000  0.27720000  1.0 0.3095060829
C  C276  1  0.62780000  0.10380000  0.22280000  1.0 0.3095060829
C  C277  1  0.70720000  0.41950000  0.68750000  1.0 -0.301833494
C  C278  1  0.29280000  0.91950000  0.81250000  1.0 -0.301833494
C  C279  1  0.29280000  0.58050000  0.31250000  1.0 -0.301833494
C  C280  1  0.70720000  0.08050000  0.18750000  1.0 -0.301833494
C  C281  1  0.55770000  0.45250000  0.65320000  1.0 0.2813873466
C  C282  1  0.44230000  0.95250000  0.84680000  1.0 0.2813873466
C  C283  1  0.44230000  0.54750000  0.34680000  1.0 0.2813873466
C  C284  1  0.55770000  0.04750000  0.15320000  1.0 0.2813873466
C  C285  1  0.55920000  0.48710000  0.62090000  1.0 -0.1584242018
C  C286  1  0.44080000  0.98710000  0.87910000  1.0 -0.1584242018
C  C287  1  0.44080000  0.51290000  0.37910000  1.0 -0.1584242018
C  C288  1  0.55920000  0.01290000  0.12090000  1.0 -0.1584242018
C  C289  1  0.41740000  0.49420000  0.58630000  1.0 -0.0493394481
C  C290  1  0.58260000  0.99420000  0.91370000  1.0 -0.0493394481
C  C291  1  0.58260000  0.50580000  0.41370000  1.0 -0.0493394481
C  C292  1  0.41740000  0.00580000  0.08630000  1.0 -0.0493394481
C  C293  1  0.41670000  0.45460000  0.62100000  1.0 0.3000574723
C  C294  1  0.58330000  0.95460000  0.87900000  1.0 0.3000574723
C  C295  1  0.58330000  0.54540000  0.37900000  1.0 0.3000574723
C  C296  1  0.41670000  0.04540000  0.12100000  1.0 0.3000574723
C  C297  1  0.27230000  0.42380000  0.58140000  1.0 -0.3286283262
C  C298  1  0.72770000  0.92380000  0.91860000  1.0 -0.3286283262
C  C299  1  0.72770000  0.57620000  0.41860000  1.0 -0.3286283262
C  C300  1  0.27230000  0.07620000  0.08140000  1.0 -0.3286283262
C  C301  1  0.35970000  0.39910000  0.65740000  1.0 0.3000574723
C  C302  1  0.64030000  0.89910000  0.84260000  1.0 0.3000574723
C  C303  1  0.64030000  0.60090000  0.34260000  1.0 0.3000574723
C  C304  1  0.35970000  0.10090000  0.15740000  1.0 0.3000574723
C  C305  1  0.38720000  0.43560000  0.69530000  1.0 -0.0396854583
C  C306  1  0.61280000  0.93560000  0.80470000  1.0 -0.0396854583
C  C307  1  0.61280000  0.56440000  0.30470000  1.0 -0.0396854583
C  C308  1  0.38720000  0.06440000  0.19530000  1.0 -0.0396854583
C  C309  1  0.39470000  0.33310000  0.72930000  1.0 -0.0723457662
C  C310  1  0.60530000  0.83310000  0.77070000  1.0 -0.0723457662
C  C311  1  0.60530000  0.66690000  0.27070000  1.0 -0.0723457662
C  C312  1  0.39470000  0.16690000  0.22930000  1.0 -0.0723457662
C  C313  1  0.36940000  0.29730000  0.69240000  1.0 0.2705291935
C  C314  1  0.63060000  0.79730000  0.80760000  1.0 0.2705291935
C  C315  1  0.63060000  0.70270000  0.30760000  1.0 0.2705291935
C  C316  1  0.36940000  0.20270000  0.19240000  1.0 0.2705291935
C  C317  1  0.28340000  0.18970000  0.65720000  1.0 -0.3376247152
C  C318  1  0.71660000  0.68970000  0.84280000  1.0 -0.3376247152
C  C319  1  0.71660000  0.81030000  0.34280000  1.0 -0.3376247152
C  C320  1  0.28340000  0.31030000  0.15720000  1.0 -0.3376247152
N  N1  1  0.92190000  0.76720000  0.46560000  1.0 -0.4115371024
N  N2  1  0.07810000  0.26720000  0.03440000  1.0 -0.4115371024
N  N3  1  0.07810000  0.23280000  0.53440000  1.0 -0.4115371024
N  N4  1  0.92190000  0.73280000  0.96560000  1.0 -0.4115371024
N  N5  1  0.92250000  0.74530000  0.39280000  1.0 -0.1189074236
N  N6  1  0.07750000  0.24530000  0.10720000  1.0 -0.1189074236
N  N7  1  0.07750000  0.25470000  0.60720000  1.0 -0.1189074236
N  N8  1  0.92250000  0.75470000  0.89280000  1.0 -0.1189074236
N  N9  1  0.91040000  0.88730000  0.45590000  1.0 -0.1067808008
N  N10  1  0.08960000  0.38730000  0.04410000  1.0 -0.1067808008
N  N11  1  0.08960000  0.11270000  0.54410000  1.0 -0.1067808008
N  N12  1  0.91040000  0.61270000  0.95590000  1.0 -0.1067808008
N  N13  1  0.83640000  0.90390000  0.49050000  1.0 -0.3781782915
N  N14  1  0.16360000  0.40390000  0.00950000  1.0 -0.3781782915
N  N15  1  0.16360000  0.09610000  0.50950000  1.0 -0.3781782915
N  N16  1  0.83640000  0.59610000  0.99050000  1.0 -0.3781782915
N  N17  1  0.97940000  0.88440000  0.56830000  1.0 -0.1297321728
N  N18  1  0.02060000  0.38440000  0.93170000  1.0 -0.1297321728
N  N19  1  0.02060000  0.11560000  0.43170000  1.0 -0.1297321728
N  N20  1  0.97940000  0.61560000  0.06830000  1.0 -0.1297321728
N  N21  1  0.75860000  0.91390000  0.52470000  1.0 -0.1189074236
N  N22  1  0.24140000  0.41390000  0.97530000  1.0 -0.1189074236
N  N23  1  0.24140000  0.08610000  0.47530000  1.0 -0.1189074236
N  N24  1  0.75860000  0.58610000  0.02470000  1.0 -0.1189074236
N  N25  1  0.77150000  0.79210000  0.54060000  1.0 -0.450691241
N  N26  1  0.22850000  0.29210000  0.95940000  1.0 -0.450691241
N  N27  1  0.22850000  0.20790000  0.45940000  1.0 -0.450691241
N  N28  1  0.77150000  0.70790000  0.04060000  1.0 -0.450691241
N  N29  1  0.61640000  0.78980000  0.53420000  1.0 -0.1067808008
N  N30  1  0.38360000  0.28980000  0.96580000  1.0 -0.1067808008
N  N31  1  0.38360000  0.21020000  0.46580000  1.0 -0.1067808008
N  N32  1  0.61640000  0.71020000  0.03420000  1.0 -0.1067808008
N  N33  1  0.78140000  0.67150000  0.54950000  1.0 -0.0892330542
N  N34  1  0.21860000  0.17150000  0.95050000  1.0 -0.1014451444
N  N35  1  0.21860000  0.32850000  0.45050000  1.0 -0.0892330542
N  N36  1  0.78140000  0.82850000  0.04950000  1.0 -0.1014451444
N  N37  1  0.85940000  0.65660000  0.51580000  1.0 -0.3585771009
N  N38  1  0.14060000  0.15660000  0.98420000  1.0 -0.3585771009
N  N39  1  0.14060000  0.34340000  0.48420000  1.0 -0.3585771009
N  N40  1  0.85940000  0.84340000  0.01580000  1.0 -0.3585771009
N  N41  1  0.99740000  0.71780000  0.58520000  1.0 -0.1584242018
N  N42  1  0.00260000  0.21780000  0.91480000  1.0 -0.1584242018
N  N43  1  0.00260000  0.28220000  0.41480000  1.0 -0.1584242018
N  N44  1  0.99740000  0.78220000  0.08520000  1.0 -0.1584242018
N  N45  1  0.93490000  0.64810000  0.48040000  1.0 -0.0773387511
N  N46  1  0.06510000  0.14810000  0.01960000  1.0 -0.0773387511
N  N47  1  0.06510000  0.35190000  0.51960000  1.0 -0.0773387511
N  N48  1  0.93490000  0.85190000  0.98040000  1.0 -0.0773387511
N  N49  1  0.34060000  0.80500000  0.61010000  1.0 -0.4402971811
N  N50  1  0.65940000  0.30500000  0.88990000  1.0 -0.4402971811
N  N51  1  0.65940000  0.19500000  0.38990000  1.0 -0.4402971811
N  N52  1  0.34060000  0.69500000  0.11010000  1.0 -0.4402971811
N  N53  1  0.19980000  0.81500000  0.61630000  1.0 -0.1297321728
N  N54  1  0.80020000  0.31500000  0.88370000  1.0 -0.1297321728
N  N55  1  0.80020000  0.18500000  0.38370000  1.0 -0.1297321728
N  N56  1  0.19980000  0.68500000  0.11630000  1.0 -0.1297321728
N  N57  1  0.35190000  0.92730000  0.60940000  1.0 -0.1189074236
N  N58  1  0.64810000  0.42730000  0.89060000  1.0 -0.1189074236
N  N59  1  0.64810000  0.07270000  0.39060000  1.0 -0.1189074236
N  N60  1  0.35190000  0.57270000  0.10940000  1.0 -0.1189074236
N  N61  1  0.49760000  0.92480000  0.64470000  1.0 -0.3286283262
N  N62  1  0.50240000  0.42480000  0.85530000  1.0 -0.3286283262
N  N63  1  0.50240000  0.07520000  0.35530000  1.0 -0.3286283262
N  N64  1  0.49760000  0.57520000  0.14470000  1.0 -0.3286283262
N  N65  1  0.49480000  0.88030000  0.57170000  1.0 -0.1831382926
N  N66  1  0.50520000  0.38030000  0.92830000  1.0 -0.1831382926
N  N67  1  0.50520000  0.11970000  0.42830000  1.0 -0.1831382926
N  N68  1  0.49480000  0.61970000  0.07170000  1.0 -0.1831382926
N  N69  1  0.64090000  0.91890000  0.68340000  1.0 -0.1386899423
N  N70  1  0.35910000  0.41890000  0.81660000  1.0 -0.1386899423
N  N71  1  0.35910000  0.08110000  0.31660000  1.0 -0.1386899423
N  N72  1  0.64090000  0.58110000  0.18340000  1.0 -0.1386899423
N  N73  1  0.63770000  0.79620000  0.68650000  1.0 -0.4115371024
N  N74  1  0.36230000  0.29620000  0.81350000  1.0 -0.4115371024
N  N75  1  0.36230000  0.20380000  0.31350000  1.0 -0.4115371024
N  N76  1  0.63770000  0.70380000  0.18650000  1.0 -0.4115371024
N  N77  1  0.78360000  0.79740000  0.76310000  1.0 -0.1297321728
N  N78  1  0.21640000  0.29740000  0.73690000  1.0 -0.1297321728
N  N79  1  0.21640000  0.20260000  0.23690000  1.0 -0.1297321728
N  N80  1  0.78360000  0.70260000  0.26310000  1.0 -0.1297321728
N  N81  1  0.63070000  0.67620000  0.68740000  1.0 -0.0892330542
N  N82  1  0.36930000  0.17620000  0.81260000  1.0 -0.0892330542
N  N83  1  0.36930000  0.32380000  0.31260000  1.0 -0.0892330542
N  N84  1  0.63070000  0.82380000  0.18740000  1.0 -0.0892330542
N  N85  1  0.48370000  0.67400000  0.65010000  1.0 -0.3485605165
N  N86  1  0.51630000  0.17400000  0.84990000  1.0 -0.3485605165
N  N87  1  0.51630000  0.32600000  0.34990000  1.0 -0.3485605165
N  N88  1  0.48370000  0.82600000  0.15010000  1.0 -0.3485605165
N  N89  1  0.48380000  0.71160000  0.57830000  1.0 -0.1701725408
N  N90  1  0.51620000  0.21160000  0.92170000  1.0 -0.1701725408
N  N91  1  0.51620000  0.28840000  0.42170000  1.0 -0.1701725408
N  N92  1  0.48380000  0.78840000  0.07830000  1.0 -0.1701725408
N  N93  1  0.33640000  0.68340000  0.61410000  1.0 -0.1189074236
N  N94  1  0.66360000  0.18340000  0.88590000  1.0 -0.1189074236
N  N95  1  0.66360000  0.31660000  0.38590000  1.0 -0.1189074236
N  N96  1  0.33640000  0.81660000  0.11410000  1.0 -0.1189074236
N  N97  1  0.20760000  0.74470000  0.90190000  1.0 -0.4021196563
N  N98  1  0.79240000  0.24470000  0.59810000  1.0 -0.4021196563
N  N99  1  0.79240000  0.25530000  0.09810000  1.0 -0.4021196563
N  N100  1  0.20760000  0.75530000  0.40190000  1.0 -0.4021196563
N  N101  1  0.35970000  0.72130000  0.97240000  1.0 -0.1584242018
N  N102  1  0.64030000  0.22130000  0.52760000  1.0 -0.1584242018
N  N103  1  0.64030000  0.27870000  0.02760000  1.0 -0.1506871893
N  N104  1  0.35970000  0.77870000  0.47240000  1.0 -0.1584242018
N  N105  1  0.22390000  0.86360000  0.90630000  1.0 -0.1014451444
N  N106  1  0.77610000  0.36360000  0.59370000  1.0 -0.1014451444
N  N107  1  0.77610000  0.13640000  0.09370000  1.0 -0.1014451444
N  N108  1  0.22390000  0.63640000  0.40630000  1.0 -0.1014451444
N  N109  1  0.14660000  0.89220000  0.83550000  1.0 -0.4194100372
N  N110  1  0.85340000  0.39220000  0.66450000  1.0 -0.4194100372
N  N111  1  0.85340000  0.10780000  0.16450000  1.0 -0.4194100372
N  N112  1  0.14660000  0.60780000  0.33550000  1.0 -0.4194100372
N  N113  1  0.00100000  0.85910000  0.83570000  1.0 -0.1297321728
N  N114  1  0.99900000  0.35910000  0.66430000  1.0 -0.1297321728
N  N115  1  0.99900000  0.14090000  0.16430000  1.0 -0.1297321728
N  N116  1  0.00100000  0.64090000  0.33570000  1.0 -0.1297321728
N  N117  1  0.06760000  0.91340000  0.76190000  1.0 -0.0773387511
N  N118  1  0.93240000  0.41340000  0.73810000  1.0 -0.0773387511
N  N119  1  0.93240000  0.08660000  0.23810000  1.0 -0.0773387511
N  N120  1  0.06760000  0.58660000  0.26190000  1.0 -0.0773387511
N  N121  1  0.06710000  0.79360000  0.75350000  1.0 -0.4115371024
N  N122  1  0.93290000  0.29360000  0.74650000  1.0 -0.4021196563
N  N123  1  0.93290000  0.20640000  0.24650000  1.0 -0.4021196563
N  N124  1  0.06710000  0.70640000  0.25350000  1.0 -0.4021196563
N  N125  1  0.07230000  0.80840000  0.68100000  1.0 -0.1189074236
N  N126  1  0.92770000  0.30840000  0.81900000  1.0 -0.1189074236
N  N127  1  0.92770000  0.19160000  0.31900000  1.0 -0.1189074236
N  N128  1  0.07230000  0.69160000  0.18100000  1.0 -0.1189074236
N  N129  1  0.06550000  0.66900000  0.74780000  1.0 -0.0892330542
N  N130  1  0.93450000  0.16900000  0.75220000  1.0 -0.0892330542
N  N131  1  0.93450000  0.33100000  0.25220000  1.0 -0.0892330542
N  N132  1  0.06550000  0.83100000  0.24780000  1.0 -0.0892330542
N  N133  1  0.12380000  0.64020000  0.82000000  1.0 -0.4252698704
N  N134  1  0.87620000  0.14020000  0.68000000  1.0 -0.4252698704
N  N135  1  0.87620000  0.35980000  0.18000000  1.0 -0.4252698704
N  N136  1  0.12380000  0.85980000  0.32000000  1.0 -0.4252698704
N  N137  1  0.97980000  0.69380000  0.81660000  1.0 -0.1506871893
N  N138  1  0.02020000  0.19380000  0.68340000  1.0 -0.1506871893
N  N139  1  0.02020000  0.30620000  0.18340000  1.0 -0.1506871893
N  N140  1  0.97980000  0.80620000  0.31660000  1.0 -0.1506871893
N  N141  1  0.18160000  0.62050000  0.89250000  1.0 -0.1067808008
N  N142  1  0.81840000  0.12050000  0.60750000  1.0 -0.1067808008
N  N143  1  0.81840000  0.37950000  0.10750000  1.0 -0.1067808008
N  N144  1  0.18160000  0.87950000  0.39250000  1.0 -0.1014451444
N  N145  1  0.50270000  0.21950000  0.72890000  1.0 -0.3930305451
N  N146  1  0.49730000  0.71950000  0.77110000  1.0 -0.3930305451
N  N147  1  0.49730000  0.78050000  0.27110000  1.0 -0.3930305451
N  N148  1  0.50270000  0.28050000  0.22890000  1.0 -0.3930305451
N  N149  1  0.50410000  0.07460000  0.72400000  1.0 -0.1297321728
N  N150  1  0.49590000  0.57460000  0.77600000  1.0 -0.1297321728
N  N151  1  0.49590000  0.92540000  0.27600000  1.0 -0.1297321728
N  N152  1  0.50410000  0.42540000  0.22400000  1.0 -0.1297321728
N  N153  1  0.64140000  0.22390000  0.76440000  1.0 -0.0773387511
N  N154  1  0.35860000  0.72390000  0.73560000  1.0 -0.0773387511
N  N155  1  0.35860000  0.77610000  0.23560000  1.0 -0.0773387511
N  N156  1  0.64140000  0.27610000  0.26440000  1.0 -0.0723457662
N  N157  1  0.64450000  0.32970000  0.72890000  1.0 -0.3376247152
N  N158  1  0.35550000  0.82970000  0.77110000  1.0 -0.3376247152
N  N159  1  0.35550000  0.67030000  0.27110000  1.0 -0.3376247152
N  N160  1  0.64450000  0.17030000  0.22890000  1.0 -0.3376247152
N  N161  1  0.59410000  0.40660000  0.77640000  1.0 -0.1584242018
N  N162  1  0.40590000  0.90660000  0.72360000  1.0 -0.1584242018
N  N163  1  0.40590000  0.59340000  0.22360000  1.0 -0.1584242018
N  N164  1  0.59410000  0.09340000  0.27640000  1.0 -0.1584242018
N  N165  1  0.63260000  0.43050000  0.68950000  1.0 -0.1386899423
N  N166  1  0.36740000  0.93050000  0.81050000  1.0 -0.1386899423
N  N167  1  0.36740000  0.56950000  0.31050000  1.0 -0.1386899423
N  N168  1  0.63260000  0.06950000  0.18950000  1.0 -0.1386899423
N  N169  1  0.49010000  0.43750000  0.65370000  1.0 -0.4115371024
N  N170  1  0.50990000  0.93750000  0.84630000  1.0 -0.4115371024
N  N171  1  0.50990000  0.56250000  0.34630000  1.0 -0.4115371024
N  N172  1  0.49010000  0.06250000  0.15370000  1.0 -0.4115371024
N  N173  1  0.48600000  0.50660000  0.58710000  1.0 -0.1831382926
N  N174  1  0.51400000  0.00660000  0.91290000  1.0 -0.1831382926
N  N175  1  0.51400000  0.49340000  0.41290000  1.0 -0.1831382926
N  N176  1  0.48600000  0.99340000  0.08710000  1.0 -0.1831382926
N  N177  1  0.34900000  0.43330000  0.62240000  1.0 -0.0723457662
N  N178  1  0.65100000  0.93330000  0.87760000  1.0 -0.0723457662
N  N179  1  0.65100000  0.56670000  0.37760000  1.0 -0.0723457662
N  N180  1  0.34900000  0.06670000  0.12240000  1.0 -0.0723457662
N  N181  1  0.34870000  0.32890000  0.65560000  1.0 -0.3585771009
N  N182  1  0.65130000  0.82890000  0.84440000  1.0 -0.3585771009
N  N183  1  0.65130000  0.67110000  0.34440000  1.0 -0.3585771009
N  N184  1  0.34870000  0.17110000  0.15560000  1.0 -0.3485605165
N  N185  1  0.40480000  0.40280000  0.73000000  1.0 -0.1386899423
N  N186  1  0.59520000  0.90280000  0.77000000  1.0 -0.1386899423
N  N187  1  0.59520000  0.59720000  0.27000000  1.0 -0.1386899423
N  N188  1  0.40480000  0.09720000  0.23000000  1.0 -0.1386899423
N  N189  1  0.35920000  0.22330000  0.69100000  1.0 -0.1067808008
N  N190  1  0.64080000  0.72330000  0.80900000  1.0 -0.1067808008
N  N191  1  0.64080000  0.77670000  0.30900000  1.0 -0.1067808008
N  N192  1  0.35920000  0.27670000  0.19100000  1.0 -0.1067808008
F  F1  1  0.15580000  0.06840000  0.31760000  1.0 -0.3781782915
F  F2  1  0.12810000  0.14530000  0.35730000  1.0 -0.450691241
F  F3  1  0.24190000  0.13150000  0.35720000  1.0 -0.3781782915
F  F4  1  0.13110000  0.17660000  0.29990000  1.0 -0.4402971811
F  F5  1  0.84420000  0.56840000  0.18240000  1.0 -0.3781782915
F  F6  1  0.87190000  0.64530000  0.14270000  1.0 -0.450691241
F  F7  1  0.75810000  0.63150000  0.14280000  1.0 -0.3781782915
F  F8  1  0.86890000  0.67660000  0.20010000  1.0 -0.4402971811
F  F9  1  0.84420000  0.93160000  0.68240000  1.0 -0.3781782915
F  F10  1  0.87190000  0.85470000  0.64270000  1.0 -0.450691241
F  F11  1  0.75810000  0.86850000  0.64280000  1.0 -0.3781782915
F  F12  1  0.86890000  0.82340000  0.70010000  1.0 -0.4402971811
F  F13  1  0.15580000  0.43160000  0.81760000  1.0 -0.3742876634
F  F14  1  0.12810000  0.35470000  0.85730000  1.0 -0.450691241
F  F15  1  0.24190000  0.36850000  0.85720000  1.0 -0.3781782915
F  F16  1  0.13110000  0.32340000  0.79990000  1.0 -0.4402971811
F  F17  1  0.82960000  0.53340000  0.36170000  1.0 -0.450691241
F  F18  1  0.85600000  0.41930000  0.35010000  1.0 -0.4786524459
F  F19  1  0.86290000  0.50910000  0.31320000  1.0 -0.4402971811
F  F20  1  0.74140000  0.47470000  0.30220000  1.0 -0.4715703859
F  F21  1  0.17040000  0.03340000  0.13830000  1.0 -0.450691241
F  F22  1  0.14400000  0.91930000  0.14990000  1.0 -0.4786524459
F  F23  1  0.13710000  0.00910000  0.18680000  1.0 -0.4402971811
F  F24  1  0.25860000  0.97470000  0.19780000  1.0 -0.4715703859
F  F25  1  0.17040000  0.46660000  0.63830000  1.0 -0.450691241
F  F26  1  0.14400000  0.58070000  0.64990000  1.0 -0.4786524459
F  F27  1  0.13710000  0.49090000  0.68680000  1.0 -0.4402971811
F  F28  1  0.25860000  0.52530000  0.69780000  1.0 -0.4715703859
F  F29  1  0.82960000  0.96660000  0.86170000  1.0 -0.450691241
F  F30  1  0.85600000  0.08070000  0.85010000  1.0 -0.4786524459
F  F31  1  0.86290000  0.99090000  0.81320000  1.0 -0.4402971811
F  F32  1  0.74140000  0.02530000  0.80220000  1.0 -0.4715703859
F  F33  1  0.24420000  0.63570000  0.51050000  1.0 -0.3585771009
F  F34  1  0.18600000  0.53920000  0.50050000  1.0 -0.4194100372
F  F35  1  0.15830000  0.62540000  0.53230000  1.0 -0.4593653092
F  F36  1  0.11560000  0.62790000  0.46470000  1.0 -0.4402971811
F  F37  1  0.75580000  0.13570000  0.98950000  1.0 -0.3585771009
F  F38  1  0.81400000  0.03920000  0.99950000  1.0 -0.4194100372
F  F39  1  0.84170000  0.12540000  0.96770000  1.0 -0.4593653092
F  F40  1  0.88440000  0.12790000  0.03530000  1.0 -0.4402971811
F  F41  1  0.75580000  0.36430000  0.48950000  1.0 -0.3585771009
F  F42  1  0.81400000  0.46080000  0.49950000  1.0 -0.4194100372
F  F43  1  0.84170000  0.37460000  0.46770000  1.0 -0.4593653092
F  F44  1  0.88440000  0.37210000  0.53530000  1.0 -0.4402971811
F  F45  1  0.24420000  0.86430000  0.01050000  1.0 -0.3585771009
F  F46  1  0.18600000  0.96080000  0.00050000  1.0 -0.4194100372
F  F47  1  0.15830000  0.87460000  0.03230000  1.0 -0.4593653092
F  F48  1  0.11560000  0.87210000  0.96470000  1.0 -0.4402971811
F  F49  1  0.83900000  0.91310000  0.31450000  1.0 -0.4593653092
F  F50  1  0.87440000  0.01850000  0.34450000  1.0 -0.450691241
F  F51  1  0.78610000  0.01240000  0.27660000  1.0 -0.450691241
F  F52  1  0.74650000  0.97410000  0.32280000  1.0 -0.4593653092
F  F53  1  0.16100000  0.41310000  0.18550000  1.0 -0.4593653092
F  F54  1  0.12560000  0.51850000  0.15550000  1.0 -0.450691241
F  F55  1  0.21390000  0.51240000  0.22340000  1.0 -0.450691241
F  F56  1  0.25350000  0.47410000  0.17720000  1.0 -0.4593653092
F  F57  1  0.16100000  0.08690000  0.68550000  1.0 -0.4593653092
F  F58  1  0.12560000  0.98150000  0.65550000  1.0 -0.450691241
F  F59  1  0.21390000  0.98760000  0.72340000  1.0 -0.450691241
F  F60  1  0.25350000  0.02590000  0.67720000  1.0 -0.4593653092
F  F61  1  0.83900000  0.58690000  0.81450000  1.0 -0.4593653092
F  F62  1  0.87440000  0.48150000  0.84450000  1.0 -0.450691241
F  F63  1  0.78610000  0.48760000  0.77660000  1.0 -0.450691241
F  F64  1  0.74650000  0.52590000  0.82280000  1.0 -0.4593653092
