# DDEC6 charges by PACMAN v1.1 (https://github.com/mtap-research/PACMAN-charge/)
data_BASTAS_ASR_pacman
_symmetry_space_group_name_H-M   'P 1'
_cell_length_a   8.55250000
_cell_length_b   17.82700000
_cell_length_c   25.28700000
_cell_angle_alpha   90.00000000
_cell_angle_beta   90.00000000
_cell_angle_gamma   90.00000000
_symmetry_Int_Tables_number   1
_chemical_formula_structural   GdAgH10C18N4O9
_chemical_formula_sum   'Gd8 Ag8 H80 C144 N32 O72'
_cell_volume   3855.39301232
_cell_formula_units_Z   8
loop_
 _symmetry_equiv_pos_site_id
 _symmetry_equiv_pos_as_xyz
  1  'x, y, z'
loop_
 _atom_site_type_symbol
 _atom_site_label
 _atom_site_symmetry_multiplicity
 _atom_site_fract_x
 _atom_site_fract_y
 _atom_site_fract_z
 _atom_site_occupancy
 _atom_site_charge
Gd  Gd1  1  0.66435000  0.21692000  0.47638000  1.0 2.0566574947
Gd  Gd2  1  0.16435000  0.28308000  0.52362000  1.0 2.0566574947
Gd  Gd3  1  0.16435000  0.78308000  0.97638000  1.0 2.0566574947
Gd  Gd4  1  0.66435000  0.71692000  0.02362000  1.0 2.0566574947
Gd  Gd5  1  0.83565000  0.21692000  0.02362000  1.0 2.0566574947
Gd  Gd6  1  0.33565000  0.28308000  0.97638000  1.0 2.0566574947
Gd  Gd7  1  0.33565000  0.78308000  0.52362000  1.0 2.0566574947
Gd  Gd8  1  0.83565000  0.71692000  0.47638000  1.0 2.0566574947
Ag  Ag1  1  0.96123000  0.04865000  0.77310000  1.0 0.2766252474
Ag  Ag2  1  0.46123000  0.45135000  0.22690000  1.0 0.2766252474
Ag  Ag3  1  0.46123000  0.95135000  0.27310000  1.0 0.2766252474
Ag  Ag4  1  0.96123000  0.54865000  0.72690000  1.0 0.2766252474
Ag  Ag5  1  0.53877000  0.04865000  0.72690000  1.0 0.2766252474
Ag  Ag6  1  0.03877000  0.45135000  0.27310000  1.0 0.2766252474
Ag  Ag7  1  0.03877000  0.95135000  0.22690000  1.0 0.2766252474
Ag  Ag8  1  0.53877000  0.54865000  0.77310000  1.0 0.2766252474
H  H1  1  0.89910000  0.41890000  0.64040000  1.0 0.1386778917
H  H2  1  0.39910000  0.08110000  0.35960000  1.0 0.1386778917
H  H3  1  0.39910000  0.58110000  0.14040000  1.0 0.1386778917
H  H4  1  0.89910000  0.91890000  0.85960000  1.0 0.1386778917
H  H5  1  0.18340000  0.15960000  0.70290000  1.0 0.1386778917
H  H6  1  0.68340000  0.34040000  0.29710000  1.0 0.1386778917
H  H7  1  0.68340000  0.84040000  0.20290000  1.0 0.1386778917
H  H8  1  0.18340000  0.65960000  0.79710000  1.0 0.1386778917
H  H9  1  0.56220000  0.64330000  0.59660000  1.0 0.3168150464
H  H10  1  0.06220000  0.85670000  0.40340000  1.0 0.3168150464
H  H11  1  0.06220000  0.35670000  0.09660000  1.0 0.3168150464
H  H12  1  0.56220000  0.14330000  0.90340000  1.0 0.3168150464
H  H13  1  0.74600000  0.67310000  0.66290000  1.0 0.1191407607
H  H14  1  0.24600000  0.82690000  0.33710000  1.0 0.1191407607
H  H15  1  0.24600000  0.32690000  0.16290000  1.0 0.1191407607
H  H16  1  0.74600000  0.17310000  0.83710000  1.0 0.1191407607
H  H17  1  0.38240000  0.00400000  0.56860000  1.0 0.1615595573
H  H18  1  0.88240000  0.49600000  0.43140000  1.0 0.1615595573
H  H19  1  0.88240000  0.99600000  0.06860000  1.0 0.1615595573
H  H20  1  0.38240000  0.50400000  0.93140000  1.0 0.1615595573
H  H21  1  0.46650000  0.50810000  0.54550000  1.0 0.1386778917
H  H22  1  0.96650000  0.99190000  0.45450000  1.0 0.1386778917
H  H23  1  0.96650000  0.49190000  0.04550000  1.0 0.1386778917
H  H24  1  0.46650000  0.00810000  0.95450000  1.0 0.1386778917
H  H25  1  0.05740000  0.89970000  0.70630000  1.0 0.1251566873
H  H26  1  0.55740000  0.60030000  0.29370000  1.0 0.1251566873
H  H27  1  0.55740000  0.10030000  0.20630000  1.0 0.1251566873
H  H28  1  0.05740000  0.39970000  0.79370000  1.0 0.1251566873
H  H29  1  0.22070000  0.89440000  0.63140000  1.0 0.3168150464
H  H30  1  0.72070000  0.60560000  0.36860000  1.0 0.3168150464
H  H31  1  0.72070000  0.10560000  0.13140000  1.0 0.3168150464
H  H32  1  0.22070000  0.39440000  0.86860000  1.0 0.3168150464
H  H33  1  0.87110000  0.73080000  0.76900000  1.0 0.3685476051
H  H34  1  0.37110000  0.76920000  0.23100000  1.0 0.3685476051
H  H35  1  0.37110000  0.26920000  0.26900000  1.0 0.3685476051
H  H36  1  0.87110000  0.23080000  0.73100000  1.0 0.3685476051
H  H37  1  0.94450000  0.65910000  0.75410000  1.0 0.3006878064
H  H38  1  0.44450000  0.84090000  0.24590000  1.0 0.3006878064
H  H39  1  0.44450000  0.34090000  0.25410000  1.0 0.3006878064
H  H40  1  0.94450000  0.15910000  0.74590000  1.0 0.3006878064
H  H41  1  0.60090000  0.41890000  0.85960000  1.0 0.1386778917
H  H42  1  0.10090000  0.08110000  0.14040000  1.0 0.1386778917
H  H43  1  0.10090000  0.58110000  0.35960000  1.0 0.1386778917
H  H44  1  0.60090000  0.91890000  0.64040000  1.0 0.1386778917
H  H45  1  0.31660000  0.15960000  0.79710000  1.0 0.1386778917
H  H46  1  0.81660000  0.34040000  0.20290000  1.0 0.1386778917
H  H47  1  0.81660000  0.84040000  0.29710000  1.0 0.1386778917
H  H48  1  0.31660000  0.65960000  0.70290000  1.0 0.1386778917
H  H49  1  0.93780000  0.64330000  0.90340000  1.0 0.3168150464
H  H50  1  0.43780000  0.85670000  0.09660000  1.0 0.3168150464
H  H51  1  0.43780000  0.35670000  0.40340000  1.0 0.3168150464
H  H52  1  0.93780000  0.14330000  0.59660000  1.0 0.3168150464
H  H53  1  0.75400000  0.67310000  0.83710000  1.0 0.1191407607
H  H54  1  0.25400000  0.82690000  0.16290000  1.0 0.1191407607
H  H55  1  0.25400000  0.32690000  0.33710000  1.0 0.1191407607
H  H56  1  0.75400000  0.17310000  0.66290000  1.0 0.1191407607
H  H57  1  0.11760000  0.00400000  0.93140000  1.0 0.1615595573
H  H58  1  0.61760000  0.49600000  0.06860000  1.0 0.1615595573
H  H59  1  0.61760000  0.99600000  0.43140000  1.0 0.1615595573
H  H60  1  0.11760000  0.50400000  0.56860000  1.0 0.1615595573
H  H61  1  0.03350000  0.50810000  0.95450000  1.0 0.1386778917
H  H62  1  0.53350000  0.99190000  0.04550000  1.0 0.1386778917
H  H63  1  0.53350000  0.49190000  0.45450000  1.0 0.1386778917
H  H64  1  0.03350000  0.00810000  0.54550000  1.0 0.1386778917
H  H65  1  0.44260000  0.89970000  0.79370000  1.0 0.1251566873
H  H66  1  0.94260000  0.60030000  0.20630000  1.0 0.1251566873
H  H67  1  0.94260000  0.10030000  0.29370000  1.0 0.1251566873
H  H68  1  0.44260000  0.39970000  0.70630000  1.0 0.1251566873
H  H69  1  0.27930000  0.89440000  0.86860000  1.0 0.3168150464
H  H70  1  0.77930000  0.60560000  0.13140000  1.0 0.3168150464
H  H71  1  0.77930000  0.10560000  0.36860000  1.0 0.3168150464
H  H72  1  0.27930000  0.39440000  0.63140000  1.0 0.3168150464
H  H73  1  0.62890000  0.73080000  0.73100000  1.0 0.3685476051
H  H74  1  0.12890000  0.76920000  0.26900000  1.0 0.3685476051
H  H75  1  0.12890000  0.26920000  0.23100000  1.0 0.3685476051
H  H76  1  0.62890000  0.23080000  0.76900000  1.0 0.3685476051
H  H77  1  0.55550000  0.65910000  0.74590000  1.0 0.3006878064
H  H78  1  0.05550000  0.84090000  0.25410000  1.0 0.3006878064
H  H79  1  0.05550000  0.34090000  0.24590000  1.0 0.3006878064
H  H80  1  0.55550000  0.15910000  0.75410000  1.0 0.3006878064
C  C1  1  0.45070000  0.14520000  0.54790000  1.0 0.6018868403
C  C2  1  0.95070000  0.35480000  0.45210000  1.0 0.6018868403
C  C3  1  0.95070000  0.85480000  0.04790000  1.0 0.6018868403
C  C4  1  0.45070000  0.64520000  0.95210000  1.0 0.6018868403
C  C5  1  0.36500000  0.11160000  0.59360000  1.0 -0.0492037612
C  C6  1  0.86500000  0.38840000  0.40640000  1.0 -0.0492037612
C  C7  1  0.86500000  0.88840000  0.09360000  1.0 -0.0492037612
C  C8  1  0.36500000  0.61160000  0.90640000  1.0 -0.0492037612
C  C9  1  0.60530000  0.41780000  0.55660000  1.0 -0.0337301534
C  C10  1  0.10530000  0.08220000  0.44340000  1.0 -0.0337301534
C  C11  1  0.10530000  0.58220000  0.05660000  1.0 -0.0337301534
C  C12  1  0.60530000  0.91780000  0.94340000  1.0 -0.0337301534
C  C13  1  0.50980000  0.37190000  0.51810000  1.0 0.6417368368
C  C14  1  0.00980000  0.12810000  0.48190000  1.0 0.6417368368
C  C15  1  0.00980000  0.62810000  0.01810000  1.0 0.6417368368
C  C16  1  0.50980000  0.87190000  0.98190000  1.0 0.6417368368
C  C17  1  0.80850000  0.31490000  0.57460000  1.0 0.6417368368
C  C18  1  0.30850000  0.18510000  0.42540000  1.0 0.6417368368
C  C19  1  0.30850000  0.68510000  0.07460000  1.0 0.6417368368
C  C20  1  0.80850000  0.81490000  0.92540000  1.0 0.6417368368
C  C21  1  0.74000000  0.39060000  0.58400000  1.0 -0.0492037612
C  C22  1  0.24000000  0.10940000  0.41600000  1.0 -0.0492037612
C  C23  1  0.24000000  0.60940000  0.08400000  1.0 -0.0492037612
C  C24  1  0.74000000  0.89060000  0.91600000  1.0 -0.0492037612
C  C25  1  0.81460000  0.43660000  0.62090000  1.0 -0.1795627216
C  C26  1  0.31460000  0.06340000  0.37910000  1.0 -0.1795627216
C  C27  1  0.31460000  0.56340000  0.12090000  1.0 -0.1795627216
C  C28  1  0.81460000  0.93660000  0.87910000  1.0 -0.1795627216
C  C29  1  0.22020000  0.12920000  0.67570000  1.0 -0.2314490222
C  C30  1  0.72020000  0.37080000  0.32430000  1.0 -0.2314490222
C  C31  1  0.72020000  0.87080000  0.17570000  1.0 -0.2314490222
C  C32  1  0.22020000  0.62920000  0.82430000  1.0 -0.2314490222
C  C33  1  0.18960000  0.05260000  0.67530000  1.0 0.1090026514
C  C34  1  0.68960000  0.44740000  0.32470000  1.0 0.1090026514
C  C35  1  0.68960000  0.94740000  0.17530000  1.0 0.1090026514
C  C36  1  0.18960000  0.55260000  0.82470000  1.0 0.1090026514
C  C37  1  0.83970000  0.25830000  0.36260000  1.0 0.6072259859
C  C38  1  0.33970000  0.24170000  0.63740000  1.0 0.6072259859
C  C39  1  0.33970000  0.74170000  0.86260000  1.0 0.6072259859
C  C40  1  0.83970000  0.75830000  0.13740000  1.0 0.6072259859
C  C41  1  0.73190000  0.62610000  0.64770000  1.0 0.1726975234
C  C42  1  0.23190000  0.87390000  0.35230000  1.0 0.1726975234
C  C43  1  0.23190000  0.37390000  0.14770000  1.0 0.1726975234
C  C44  1  0.73190000  0.12610000  0.85230000  1.0 0.1726975234
C  C45  1  0.34080000  0.03510000  0.59460000  1.0 -0.1795627216
C  C46  1  0.84080000  0.46490000  0.40540000  1.0 -0.1795627216
C  C47  1  0.84080000  0.96490000  0.09460000  1.0 -0.1795627216
C  C48  1  0.34080000  0.53510000  0.90540000  1.0 -0.1795627216
C  C49  1  0.55430000  0.49050000  0.56330000  1.0 -0.1911596938
C  C50  1  0.05430000  0.00950000  0.43670000  1.0 -0.1911596938
C  C51  1  0.05430000  0.50950000  0.06330000  1.0 -0.1911596938
C  C52  1  0.55430000  0.99050000  0.93670000  1.0 -0.1911596938
C  C53  1  0.30640000  0.15880000  0.63480000  1.0 -0.0337301534
C  C54  1  0.80640000  0.34120000  0.36520000  1.0 -0.0337301534
C  C55  1  0.80640000  0.84120000  0.13480000  1.0 -0.0337301534
C  C56  1  0.30640000  0.65880000  0.86520000  1.0 -0.0337301534
C  C57  1  0.76090000  0.50910000  0.62790000  1.0 0.1251566873
C  C58  1  0.26090000  0.99090000  0.37210000  1.0 0.1251566873
C  C59  1  0.26090000  0.49090000  0.12790000  1.0 0.1251566873
C  C60  1  0.76090000  0.00910000  0.87210000  1.0 0.1251566873
C  C61  1  0.63850000  0.53680000  0.59750000  1.0 0.151884021
C  C62  1  0.13850000  0.96320000  0.40250000  1.0 0.151884021
C  C63  1  0.13850000  0.46320000  0.09750000  1.0 0.151884021
C  C64  1  0.63850000  0.03680000  0.90250000  1.0 0.151884021
C  C65  1  0.25140000  0.00570000  0.63620000  1.0 0.1191407607
C  C66  1  0.75140000  0.49430000  0.36380000  1.0 0.1191407607
C  C67  1  0.75140000  0.99430000  0.13620000  1.0 0.1191407607
C  C68  1  0.25140000  0.50570000  0.86380000  1.0 0.1191407607
C  C69  1  0.10820000  0.94030000  0.69090000  1.0 0.1823779659
C  C70  1  0.60820000  0.55970000  0.30910000  1.0 0.1823779659
C  C71  1  0.60820000  0.05970000  0.19090000  1.0 0.1823779659
C  C72  1  0.10820000  0.44030000  0.80910000  1.0 0.1823779659
C  C73  1  0.04930000  0.14520000  0.95210000  1.0 0.6018868403
C  C74  1  0.54930000  0.35480000  0.04790000  1.0 0.6018868403
C  C75  1  0.54930000  0.85480000  0.45210000  1.0 0.6018868403
C  C76  1  0.04930000  0.64520000  0.54790000  1.0 0.6018868403
C  C77  1  0.13500000  0.11160000  0.90640000  1.0 -0.0492037612
C  C78  1  0.63500000  0.38840000  0.09360000  1.0 -0.0492037612
C  C79  1  0.63500000  0.88840000  0.40640000  1.0 -0.0492037612
C  C80  1  0.13500000  0.61160000  0.59360000  1.0 -0.0492037612
C  C81  1  0.89470000  0.41780000  0.94340000  1.0 -0.0337301534
C  C82  1  0.39470000  0.08220000  0.05660000  1.0 -0.0337301534
C  C83  1  0.39470000  0.58220000  0.44340000  1.0 -0.0337301534
C  C84  1  0.89470000  0.91780000  0.55660000  1.0 -0.0337301534
C  C85  1  0.99020000  0.37190000  0.98190000  1.0 0.6417368368
C  C86  1  0.49020000  0.12810000  0.01810000  1.0 0.6417368368
C  C87  1  0.49020000  0.62810000  0.48190000  1.0 0.6417368368
C  C88  1  0.99020000  0.87190000  0.51810000  1.0 0.6417368368
C  C89  1  0.69150000  0.31490000  0.92540000  1.0 0.6417368368
C  C90  1  0.19150000  0.18510000  0.07460000  1.0 0.6417368368
C  C91  1  0.19150000  0.68510000  0.42540000  1.0 0.6417368368
C  C92  1  0.69150000  0.81490000  0.57460000  1.0 0.6417368368
C  C93  1  0.76000000  0.39060000  0.91600000  1.0 -0.0492037612
C  C94  1  0.26000000  0.10940000  0.08400000  1.0 -0.0492037612
C  C95  1  0.26000000  0.60940000  0.41600000  1.0 -0.0492037612
C  C96  1  0.76000000  0.89060000  0.58400000  1.0 -0.0492037612
C  C97  1  0.68540000  0.43660000  0.87910000  1.0 -0.1795627216
C  C98  1  0.18540000  0.06340000  0.12090000  1.0 -0.1795627216
C  C99  1  0.18540000  0.56340000  0.37910000  1.0 -0.1795627216
C  C100  1  0.68540000  0.93660000  0.62090000  1.0 -0.1795627216
C  C101  1  0.27980000  0.12920000  0.82430000  1.0 -0.2314490222
C  C102  1  0.77980000  0.37080000  0.17570000  1.0 -0.2314490222
C  C103  1  0.77980000  0.87080000  0.32430000  1.0 -0.2314490222
C  C104  1  0.27980000  0.62920000  0.67570000  1.0 -0.2314490222
C  C105  1  0.31040000  0.05260000  0.82470000  1.0 0.1090026514
C  C106  1  0.81040000  0.44740000  0.17530000  1.0 0.1090026514
C  C107  1  0.81040000  0.94740000  0.32470000  1.0 0.1090026514
C  C108  1  0.31040000  0.55260000  0.67530000  1.0 0.1090026514
C  C109  1  0.66030000  0.25830000  0.13740000  1.0 0.6072259859
C  C110  1  0.16030000  0.24170000  0.86260000  1.0 0.6072259859
C  C111  1  0.16030000  0.74170000  0.63740000  1.0 0.6072259859
C  C112  1  0.66030000  0.75830000  0.36260000  1.0 0.6072259859
C  C113  1  0.76810000  0.62610000  0.85230000  1.0 0.1726975234
C  C114  1  0.26810000  0.87390000  0.14770000  1.0 0.1726975234
C  C115  1  0.26810000  0.37390000  0.35230000  1.0 0.1726975234
C  C116  1  0.76810000  0.12610000  0.64770000  1.0 0.1726975234
C  C117  1  0.15920000  0.03510000  0.90540000  1.0 -0.1795627216
C  C118  1  0.65920000  0.46490000  0.09460000  1.0 -0.1795627216
C  C119  1  0.65920000  0.96490000  0.40540000  1.0 -0.1795627216
C  C120  1  0.15920000  0.53510000  0.59460000  1.0 -0.1795627216
C  C121  1  0.94570000  0.49050000  0.93670000  1.0 -0.1911596938
C  C122  1  0.44570000  0.00950000  0.06330000  1.0 -0.1911596938
C  C123  1  0.44570000  0.50950000  0.43670000  1.0 -0.1911596938
C  C124  1  0.94570000  0.99050000  0.56330000  1.0 -0.1911596938
C  C125  1  0.19360000  0.15880000  0.86520000  1.0 -0.0337301534
C  C126  1  0.69360000  0.34120000  0.13480000  1.0 -0.0337301534
C  C127  1  0.69360000  0.84120000  0.36520000  1.0 -0.0337301534
C  C128  1  0.19360000  0.65880000  0.63480000  1.0 -0.0337301534
C  C129  1  0.73910000  0.50910000  0.87210000  1.0 0.1251566873
C  C130  1  0.23910000  0.99090000  0.12790000  1.0 0.1251566873
C  C131  1  0.23910000  0.49090000  0.37210000  1.0 0.1251566873
C  C132  1  0.73910000  0.00910000  0.62790000  1.0 0.1251566873
C  C133  1  0.86150000  0.53680000  0.90250000  1.0 0.151884021
C  C134  1  0.36150000  0.96320000  0.09750000  1.0 0.151884021
C  C135  1  0.36150000  0.46320000  0.40250000  1.0 0.151884021
C  C136  1  0.86150000  0.03680000  0.59750000  1.0 0.151884021
C  C137  1  0.24860000  0.00570000  0.86380000  1.0 0.1191407607
C  C138  1  0.74860000  0.49430000  0.13620000  1.0 0.1191407607
C  C139  1  0.74860000  0.99430000  0.36380000  1.0 0.1191407607
C  C140  1  0.24860000  0.50570000  0.63620000  1.0 0.1191407607
C  C141  1  0.39180000  0.94030000  0.80910000  1.0 0.1823779659
C  C142  1  0.89180000  0.55970000  0.19090000  1.0 0.1823779659
C  C143  1  0.89180000  0.05970000  0.30910000  1.0 0.1823779659
C  C144  1  0.39180000  0.44030000  0.69090000  1.0 0.1823779659
N  N1  1  0.62630000  0.61160000  0.61028000  1.0 -0.2203359141
N  N2  1  0.12630000  0.88840000  0.38972000  1.0 -0.2203359141
N  N3  1  0.12630000  0.38840000  0.11028000  1.0 -0.2203359141
N  N4  1  0.62630000  0.11160000  0.88972000  1.0 -0.2203359141
N  N5  1  0.81390000  0.56640000  0.66080000  1.0 -0.3087439298
N  N6  1  0.31390000  0.93360000  0.33920000  1.0 -0.3087439298
N  N7  1  0.31390000  0.43360000  0.16080000  1.0 -0.3087439298
N  N8  1  0.81390000  0.06640000  0.83920000  1.0 -0.3087439298
N  N9  1  0.09820000  0.00920000  0.70890000  1.0 -0.3087439298
N  N10  1  0.59820000  0.49080000  0.29110000  1.0 -0.3087439298
N  N11  1  0.59820000  0.99080000  0.20890000  1.0 -0.3087439298
N  N12  1  0.09820000  0.50920000  0.79110000  1.0 -0.3087439298
N  N13  1  0.19890000  0.93490000  0.64830000  1.0 -0.2314490222
N  N14  1  0.69890000  0.56510000  0.35170000  1.0 -0.2314490222
N  N15  1  0.69890000  0.06510000  0.14830000  1.0 -0.2314490222
N  N16  1  0.19890000  0.43490000  0.85170000  1.0 -0.2314490222
N  N17  1  0.87370000  0.61160000  0.88972000  1.0 -0.2203359141
N  N18  1  0.37370000  0.88840000  0.11028000  1.0 -0.2203359141
N  N19  1  0.37370000  0.38840000  0.38972000  1.0 -0.2203359141
N  N20  1  0.87370000  0.11160000  0.61028000  1.0 -0.2203359141
N  N21  1  0.68610000  0.56640000  0.83920000  1.0 -0.3087439298
N  N22  1  0.18610000  0.93360000  0.16080000  1.0 -0.3087439298
N  N23  1  0.18610000  0.43360000  0.33920000  1.0 -0.3087439298
N  N24  1  0.68610000  0.06640000  0.66080000  1.0 -0.3087439298
N  N25  1  0.40180000  0.00920000  0.79110000  1.0 -0.3087439298
N  N26  1  0.90180000  0.49080000  0.20890000  1.0 -0.3087439298
N  N27  1  0.90180000  0.99080000  0.29110000  1.0 -0.3087439298
N  N28  1  0.40180000  0.50920000  0.70890000  1.0 -0.3087439298
N  N29  1  0.30110000  0.93490000  0.85170000  1.0 -0.2314490222
N  N30  1  0.80110000  0.56510000  0.14830000  1.0 -0.2314490222
N  N31  1  0.80110000  0.06510000  0.35170000  1.0 -0.2314490222
N  N32  1  0.30110000  0.43490000  0.64830000  1.0 -0.2314490222
O  O1  1  0.57740000  0.34020000  0.47937000  1.0 -0.683490266
O  O2  1  0.07740000  0.15980000  0.52063000  1.0 -0.683490266
O  O3  1  0.07740000  0.65980000  0.97937000  1.0 -0.683490266
O  O4  1  0.57740000  0.84020000  0.02063000  1.0 -0.683490266
O  O5  1  0.41140000  0.21080000  0.53151000  1.0 -0.7302524133
O  O6  1  0.91140000  0.28920000  0.46849000  1.0 -0.7302524133
O  O7  1  0.91140000  0.78920000  0.03151000  1.0 -0.7302524133
O  O8  1  0.41140000  0.71080000  0.96849000  1.0 -0.7302524133
O  O9  1  0.56180000  0.11140000  0.52660000  1.0 -0.5816393553
O  O10  1  0.06180000  0.38860000  0.47340000  1.0 -0.5816393553
O  O11  1  0.06180000  0.88860000  0.02660000  1.0 -0.5816393553
O  O12  1  0.56180000  0.61140000  0.97340000  1.0 -0.5816393553
O  O13  1  0.36530000  0.37250000  0.52476000  1.0 -0.6272102876
O  O14  1  0.86530000  0.12750000  0.47524000  1.0 -0.6272102876
O  O15  1  0.86530000  0.62750000  0.02476000  1.0 -0.6272102876
O  O16  1  0.36530000  0.87250000  0.97524000  1.0 -0.6272102876
O  O17  1  0.72230000  0.26100000  0.56118000  1.0 -0.6475869699
O  O18  1  0.22230000  0.23900000  0.43882000  1.0 -0.6475869699
O  O19  1  0.22230000  0.73900000  0.06118000  1.0 -0.6475869699
O  O20  1  0.72230000  0.76100000  0.93882000  1.0 -0.6475869699
O  O21  1  0.74670000  0.21460000  0.38789000  1.0 -0.683490266
O  O22  1  0.24670000  0.28540000  0.61211000  1.0 -0.683490266
O  O23  1  0.24670000  0.78540000  0.88789000  1.0 -0.683490266
O  O24  1  0.74670000  0.71460000  0.11211000  1.0 -0.683490266
O  O25  1  0.94670000  0.23510000  0.33480000  1.0 -0.4985963984
O  O26  1  0.44670000  0.26490000  0.66520000  1.0 -0.4985963984
O  O27  1  0.44670000  0.76490000  0.83480000  1.0 -0.4985963984
O  O28  1  0.94670000  0.73510000  0.16520000  1.0 -0.4985963984
O  O29  1  0.95410000  0.30850000  0.58098000  1.0 -0.656147389
O  O30  1  0.45410000  0.19150000  0.41902000  1.0 -0.656147389
O  O31  1  0.45410000  0.69150000  0.08098000  1.0 -0.656147389
O  O32  1  0.95410000  0.80850000  0.91902000  1.0 -0.656147389
O  O33  1  0.91170000  0.70250000  0.74570000  1.0 -0.6858978553
O  O34  1  0.41170000  0.79750000  0.25430000  1.0 -0.6858978553
O  O35  1  0.41170000  0.29750000  0.24570000  1.0 -0.6858978553
O  O36  1  0.91170000  0.20250000  0.75430000  1.0 -0.6858978553
O  O37  1  0.92260000  0.34020000  0.02063000  1.0 -0.683490266
O  O38  1  0.42260000  0.15980000  0.97937000  1.0 -0.683490266
O  O39  1  0.42260000  0.65980000  0.52063000  1.0 -0.683490266
O  O40  1  0.92260000  0.84020000  0.47937000  1.0 -0.683490266
O  O41  1  0.08860000  0.21080000  0.96849000  1.0 -0.7302524133
O  O42  1  0.58860000  0.28920000  0.03151000  1.0 -0.7302524133
O  O43  1  0.58860000  0.78920000  0.46849000  1.0 -0.7302524133
O  O44  1  0.08860000  0.71080000  0.53151000  1.0 -0.7302524133
O  O45  1  0.93820000  0.11140000  0.97340000  1.0 -0.5816393553
O  O46  1  0.43820000  0.38860000  0.02660000  1.0 -0.5816393553
O  O47  1  0.43820000  0.88860000  0.47340000  1.0 -0.5816393553
O  O48  1  0.93820000  0.61140000  0.52660000  1.0 -0.5816393553
O  O49  1  0.13470000  0.37250000  0.97524000  1.0 -0.6272102876
O  O50  1  0.63470000  0.12750000  0.02476000  1.0 -0.6272102876
O  O51  1  0.63470000  0.62750000  0.47524000  1.0 -0.6272102876
O  O52  1  0.13470000  0.87250000  0.52476000  1.0 -0.6272102876
O  O53  1  0.77770000  0.26100000  0.93882000  1.0 -0.6475869699
O  O54  1  0.27770000  0.23900000  0.06118000  1.0 -0.6475869699
O  O55  1  0.27770000  0.73900000  0.43882000  1.0 -0.6475869699
O  O56  1  0.77770000  0.76100000  0.56118000  1.0 -0.6475869699
O  O57  1  0.75330000  0.21460000  0.11211000  1.0 -0.683490266
O  O58  1  0.25330000  0.28540000  0.88789000  1.0 -0.683490266
O  O59  1  0.25330000  0.78540000  0.61211000  1.0 -0.683490266
O  O60  1  0.75330000  0.71460000  0.38789000  1.0 -0.683490266
O  O61  1  0.55330000  0.23510000  0.16520000  1.0 -0.4985963984
O  O62  1  0.05330000  0.26490000  0.83480000  1.0 -0.4985963984
O  O63  1  0.05330000  0.76490000  0.66520000  1.0 -0.4985963984
O  O64  1  0.55330000  0.73510000  0.33480000  1.0 -0.4985963984
O  O65  1  0.54590000  0.30850000  0.91902000  1.0 -0.656147389
O  O66  1  0.04590000  0.19150000  0.08098000  1.0 -0.656147389
O  O67  1  0.04590000  0.69150000  0.41902000  1.0 -0.656147389
O  O68  1  0.54590000  0.80850000  0.58098000  1.0 -0.656147389
O  O69  1  0.58830000  0.70250000  0.75430000  1.0 -0.6858978553
O  O70  1  0.08830000  0.79750000  0.24570000  1.0 -0.6858978553
O  O71  1  0.08830000  0.29750000  0.25430000  1.0 -0.6858978553
O  O72  1  0.58830000  0.20250000  0.74570000  1.0 -0.683490266
