# DDEC6 charges by PACMAN v1.1 (https://github.com/mtap-research/PACMAN-charge/)
data_BATTOJ_ion_pacman
_symmetry_space_group_name_H-M   'P 1'
_cell_length_a   28.02350000
_cell_length_b   28.02350000
_cell_length_c   28.02350000
_cell_angle_alpha   117.80800000
_cell_angle_beta   117.80800000
_cell_angle_gamma   117.80800000
_symmetry_Int_Tables_number   1
_chemical_formula_structural   CeH35C30Br(NO3)3
_chemical_formula_sum   'Ce6 H210 C180 Br6 N18 O54'
_cell_volume   8352.64108555
_cell_formula_units_Z   6
loop_
 _symmetry_equiv_pos_site_id
 _symmetry_equiv_pos_as_xyz
  1  'x, y, z'
loop_
 _atom_site_type_symbol
 _atom_site_label
 _atom_site_symmetry_multiplicity
 _atom_site_fract_x
 _atom_site_fract_y
 _atom_site_fract_z
 _atom_site_occupancy
 _atom_site_charge
Ce  Ce1  1  0.59131000  0.10487000  0.52466000  1.0 1.9965653457
Ce  Ce2  1  0.10487000  0.52466000  0.59131000  1.0 1.9965653457
Ce  Ce3  1  0.52466000  0.59131000  0.10487000  1.0 1.9965653457
Ce  Ce4  1  0.40869000  0.89513000  0.47534000  1.0 1.9965653457
Ce  Ce5  1  0.89513000  0.47534000  0.40869000  1.0 1.9965653457
Ce  Ce6  1  0.47534000  0.40869000  0.89513000  1.0 1.9965653457
H  H1  1  0.42293000  0.09692000  0.61254000  1.0 0.1107700709
H  H2  1  0.54250000  0.20569000  0.58502000  1.0 0.1384542742
H  H3  1  0.55239000  0.30849000  0.64356000  1.0 0.1624881067
H  H4  1  0.48995000  0.29706000  0.67769000  1.0 0.0889149404
H  H5  1  0.16332000  0.78879000  0.38517000  1.0 0.121376931
H  H6  1  0.91427000  0.50273000  0.06052000  1.0 0.1299910722
H  H7  1  0.79727000  0.47165000  0.01419000  1.0 0.1299910722
H  H8  1  0.86465000  0.59758000  0.15447000  1.0 0.1107700709
H  H9  1  0.83146000  0.74561000  0.17490000  1.0 0.1299910722
H  H10  1  0.86648000  0.90352000  0.35294000  1.0 0.1384542742
H  H11  1  0.04546000  0.07291000  0.48620000  1.0 0.1384542742
H  H12  1  0.11416000  0.07590000  0.46289000  1.0 0.121376931
H  H13  1  0.42497000  0.23966000  0.69803000  1.0 0.1107700709
H  H14  1  0.43819000  0.19647000  0.71411000  1.0 0.1107700709
H  H15  1  0.11577000  0.81701000  0.43299000  1.0 0.121376931
H  H16  1  0.99930000  0.74599000  0.34097000  1.0 0.1299910722
H  H17  1  0.96818000  0.84378000  0.22896000  1.0 0.1299910722
H  H18  1  0.07326000  0.97490000  0.33231000  1.0 0.1299910722
H  H19  1  0.27582000  0.99857000  0.56054000  1.0 0.121376931
H  H20  1  0.97347000  0.78302000  0.27171000  1.0 0.121376931
H  H21  1  0.25079000  0.10601000  0.51155000  1.0 0.1384542742
H  H22  1  0.54062000  0.21439000  0.48645000  1.0 0.0304934197
H  H23  1  0.51837000  0.14963000  0.40739000  1.0 0.0820902879
H  H24  1  0.65250000  0.30942000  0.53236000  1.0 0.0711673859
H  H25  1  0.68123000  0.27296000  0.54061000  1.0 0.0580615005
H  H26  1  0.70378000  0.33857000  0.62071000  1.0 0.0711673859
H  H27  1  0.61143000  0.06949000  0.42035000  1.0 0.3804107048
H  H28  1  0.48974000  0.96894000  0.32442000  1.0 0.3866207936
H  H29  1  0.75751000  0.34388000  0.71170000  1.0 0.3674605626
H  H30  1  0.79905000  0.34595000  0.77032000  1.0 0.3624405303
H  H31  1  0.64323000  0.27709000  0.55983000  1.0 0.0169086457
H  H32  1  0.56303000  0.17771000  0.43883000  1.0 0.044890961
H  H33  1  0.53316000  0.24464000  0.45428000  1.0 0.0820902879
H  H34  1  0.50300000  0.21826000  0.48353000  1.0 0.0459582456
H  H35  1  0.42252000  0.11854000  0.36211000  1.0 0.0889149404
H  H36  1  0.09692000  0.61254000  0.42293000  1.0 0.1107700709
H  H37  1  0.20569000  0.58502000  0.54250000  1.0 0.1384542742
H  H38  1  0.30849000  0.64356000  0.55239000  1.0 0.1624881067
H  H39  1  0.29706000  0.67769000  0.48995000  1.0 0.0889149404
H  H40  1  0.78879000  0.38517000  0.16332000  1.0 0.121376931
H  H41  1  0.50273000  0.06052000  0.91427000  1.0 0.1299910722
H  H42  1  0.47165000  0.01419000  0.79727000  1.0 0.1299910722
H  H43  1  0.59758000  0.15447000  0.86465000  1.0 0.1107700709
H  H44  1  0.74561000  0.17490000  0.83146000  1.0 0.1299910722
H  H45  1  0.90352000  0.35294000  0.86648000  1.0 0.1384542742
H  H46  1  0.07291000  0.48620000  0.04546000  1.0 0.1384542742
H  H47  1  0.07590000  0.46289000  0.11416000  1.0 0.121376931
H  H48  1  0.23966000  0.69803000  0.42497000  1.0 0.1107700709
H  H49  1  0.19647000  0.71411000  0.43819000  1.0 0.1107700709
H  H50  1  0.81701000  0.43299000  0.11577000  1.0 0.121376931
H  H51  1  0.74599000  0.34097000  0.99930000  1.0 0.1299910722
H  H52  1  0.84378000  0.22896000  0.96818000  1.0 0.1299910722
H  H53  1  0.97490000  0.33231000  0.07326000  1.0 0.1299910722
H  H54  1  0.99857000  0.56054000  0.27582000  1.0 0.121376931
H  H55  1  0.78302000  0.27171000  0.97347000  1.0 0.121376931
H  H56  1  0.10601000  0.51155000  0.25079000  1.0 0.1384542742
H  H57  1  0.21439000  0.48645000  0.54062000  1.0 0.0304934197
H  H58  1  0.14963000  0.40739000  0.51837000  1.0 0.0820902879
H  H59  1  0.30942000  0.53236000  0.65250000  1.0 0.0711673859
H  H60  1  0.27296000  0.54061000  0.68123000  1.0 0.0580615005
H  H61  1  0.33857000  0.62071000  0.70378000  1.0 0.0711673859
H  H62  1  0.06949000  0.42035000  0.61143000  1.0 0.3804107048
H  H63  1  0.96894000  0.32442000  0.48974000  1.0 0.3866207936
H  H64  1  0.34388000  0.71170000  0.75751000  1.0 0.3674605626
H  H65  1  0.34595000  0.77032000  0.79905000  1.0 0.3624405303
H  H66  1  0.27709000  0.55983000  0.64323000  1.0 0.0169086457
H  H67  1  0.17771000  0.43883000  0.56303000  1.0 0.044890961
H  H68  1  0.24464000  0.45428000  0.53316000  1.0 0.0820902879
H  H69  1  0.21826000  0.48353000  0.50300000  1.0 0.044890961
H  H70  1  0.11854000  0.36211000  0.42252000  1.0 0.0889149404
H  H71  1  0.61254000  0.42293000  0.09692000  1.0 0.1107700709
H  H72  1  0.58502000  0.54250000  0.20569000  1.0 0.1384542742
H  H73  1  0.64356000  0.55239000  0.30849000  1.0 0.1624881067
H  H74  1  0.67769000  0.48995000  0.29706000  1.0 0.0889149404
H  H75  1  0.38517000  0.16332000  0.78879000  1.0 0.121376931
H  H76  1  0.06052000  0.91427000  0.50273000  1.0 0.1299910722
H  H77  1  0.01419000  0.79727000  0.47165000  1.0 0.1299910722
H  H78  1  0.15447000  0.86465000  0.59758000  1.0 0.1107700709
H  H79  1  0.17490000  0.83146000  0.74561000  1.0 0.1299910722
H  H80  1  0.35294000  0.86648000  0.90352000  1.0 0.1384542742
H  H81  1  0.48620000  0.04546000  0.07291000  1.0 0.1384542742
H  H82  1  0.46289000  0.11416000  0.07590000  1.0 0.121376931
H  H83  1  0.69803000  0.42497000  0.23966000  1.0 0.1107700709
H  H84  1  0.71411000  0.43819000  0.19647000  1.0 0.1107700709
H  H85  1  0.43299000  0.11577000  0.81701000  1.0 0.121376931
H  H86  1  0.34097000  0.99930000  0.74599000  1.0 0.1299910722
H  H87  1  0.22896000  0.96818000  0.84378000  1.0 0.1299910722
H  H88  1  0.33231000  0.07326000  0.97490000  1.0 0.121376931
H  H89  1  0.56054000  0.27582000  0.99857000  1.0 0.121376931
H  H90  1  0.27171000  0.97347000  0.78302000  1.0 0.121376931
H  H91  1  0.51155000  0.25079000  0.10601000  1.0 0.1384542742
H  H92  1  0.48645000  0.54062000  0.21439000  1.0 0.0304934197
H  H93  1  0.40739000  0.51837000  0.14963000  1.0 0.0820902879
H  H94  1  0.53236000  0.65250000  0.30942000  1.0 0.0711673859
H  H95  1  0.54061000  0.68123000  0.27296000  1.0 0.0580615005
H  H96  1  0.62071000  0.70378000  0.33857000  1.0 0.0711673859
H  H97  1  0.42035000  0.61143000  0.06949000  1.0 0.3804107048
H  H98  1  0.32442000  0.48974000  0.96894000  1.0 0.3866207936
H  H99  1  0.71170000  0.75751000  0.34388000  1.0 0.3674605626
H  H100  1  0.77032000  0.79905000  0.34595000  1.0 0.3624405303
H  H101  1  0.55983000  0.64323000  0.27709000  1.0 0.0169086457
H  H102  1  0.43883000  0.56303000  0.17771000  1.0 0.044890961
H  H103  1  0.45428000  0.53316000  0.24464000  1.0 0.0820902879
H  H104  1  0.48353000  0.50300000  0.21826000  1.0 0.0459582456
H  H105  1  0.36211000  0.42252000  0.11854000  1.0 0.0889149404
H  H106  1  0.57707000  0.90308000  0.38746000  1.0 0.1107700709
H  H107  1  0.45750000  0.79431000  0.41498000  1.0 0.1384542742
H  H108  1  0.44761000  0.69151000  0.35644000  1.0 0.1624881067
H  H109  1  0.51005000  0.70294000  0.32231000  1.0 0.0889149404
H  H110  1  0.83668000  0.21121000  0.61483000  1.0 0.121376931
H  H111  1  0.08573000  0.49727000  0.93948000  1.0 0.1299910722
H  H112  1  0.20273000  0.52835000  0.98581000  1.0 0.1299910722
H  H113  1  0.13535000  0.40242000  0.84553000  1.0 0.1107700709
H  H114  1  0.16854000  0.25439000  0.82510000  1.0 0.1299910722
H  H115  1  0.13352000  0.09648000  0.64706000  1.0 0.1384542742
H  H116  1  0.95454000  0.92709000  0.51380000  1.0 0.1384542742
H  H117  1  0.88584000  0.92410000  0.53711000  1.0 0.121376931
H  H118  1  0.57503000  0.76034000  0.30197000  1.0 0.1107700709
H  H119  1  0.56181000  0.80353000  0.28589000  1.0 0.1107700709
H  H120  1  0.88423000  0.18299000  0.56701000  1.0 0.121376931
H  H121  1  0.00070000  0.25401000  0.65903000  1.0 0.1299910722
H  H122  1  0.03182000  0.15622000  0.77104000  1.0 0.1299910722
H  H123  1  0.92674000  0.02510000  0.66769000  1.0 0.1299910722
H  H124  1  0.72418000  0.00143000  0.43946000  1.0 0.121376931
H  H125  1  0.02653000  0.21698000  0.72829000  1.0 0.121376931
H  H126  1  0.74921000  0.89399000  0.48845000  1.0 0.1384542742
H  H127  1  0.45938000  0.78561000  0.51355000  1.0 0.0304934197
H  H128  1  0.48163000  0.85037000  0.59261000  1.0 0.0820902879
H  H129  1  0.34750000  0.69058000  0.46764000  1.0 0.0711673859
H  H130  1  0.31877000  0.72704000  0.45939000  1.0 0.0580615005
H  H131  1  0.29622000  0.66143000  0.37929000  1.0 0.0711673859
H  H132  1  0.38857000  0.93051000  0.57965000  1.0 0.3804107048
H  H133  1  0.51026000  0.03106000  0.67558000  1.0 0.3866207936
H  H134  1  0.24249000  0.65612000  0.28830000  1.0 0.3674605626
H  H135  1  0.20095000  0.65405000  0.22968000  1.0 0.3624405303
H  H136  1  0.35677000  0.72291000  0.44017000  1.0 0.0169086457
H  H137  1  0.43697000  0.82229000  0.56117000  1.0 0.044890961
H  H138  1  0.46684000  0.75536000  0.54572000  1.0 0.0820902879
H  H139  1  0.49700000  0.78174000  0.51647000  1.0 0.0459582456
H  H140  1  0.57748000  0.88146000  0.63789000  1.0 0.0889149404
H  H141  1  0.90308000  0.38746000  0.57707000  1.0 0.1107700709
H  H142  1  0.79431000  0.41498000  0.45750000  1.0 0.1384542742
H  H143  1  0.69151000  0.35644000  0.44761000  1.0 0.1624881067
H  H144  1  0.70294000  0.32231000  0.51005000  1.0 0.0889149404
H  H145  1  0.21121000  0.61483000  0.83668000  1.0 0.121376931
H  H146  1  0.49727000  0.93948000  0.08573000  1.0 0.1299910722
H  H147  1  0.52835000  0.98581000  0.20273000  1.0 0.1299910722
H  H148  1  0.40242000  0.84553000  0.13535000  1.0 0.1107700709
H  H149  1  0.25439000  0.82510000  0.16854000  1.0 0.1299910722
H  H150  1  0.09648000  0.64706000  0.13352000  1.0 0.1384542742
H  H151  1  0.92709000  0.51380000  0.95454000  1.0 0.1384542742
H  H152  1  0.92410000  0.53711000  0.88584000  1.0 0.121376931
H  H153  1  0.76034000  0.30197000  0.57503000  1.0 0.1107700709
H  H154  1  0.80353000  0.28589000  0.56181000  1.0 0.1107700709
H  H155  1  0.18299000  0.56701000  0.88423000  1.0 0.121376931
H  H156  1  0.25401000  0.65903000  0.00070000  1.0 0.1299910722
H  H157  1  0.15622000  0.77104000  0.03182000  1.0 0.1299910722
H  H158  1  0.02510000  0.66769000  0.92674000  1.0 0.121376931
H  H159  1  0.00143000  0.43946000  0.72418000  1.0 0.121376931
H  H160  1  0.21698000  0.72829000  0.02653000  1.0 0.121376931
H  H161  1  0.89399000  0.48845000  0.74921000  1.0 0.1384542742
H  H162  1  0.78561000  0.51355000  0.45938000  1.0 0.0304934197
H  H163  1  0.85037000  0.59261000  0.48163000  1.0 0.0820902879
H  H164  1  0.69058000  0.46764000  0.34750000  1.0 0.0711673859
H  H165  1  0.72704000  0.45939000  0.31877000  1.0 0.0580615005
H  H166  1  0.66143000  0.37929000  0.29622000  1.0 0.0711673859
H  H167  1  0.93051000  0.57965000  0.38857000  1.0 0.3804107048
H  H168  1  0.03106000  0.67558000  0.51026000  1.0 0.3866207936
H  H169  1  0.65612000  0.28830000  0.24249000  1.0 0.3674605626
H  H170  1  0.65405000  0.22968000  0.20095000  1.0 0.3624405303
H  H171  1  0.72291000  0.44017000  0.35677000  1.0 0.0169086457
H  H172  1  0.82229000  0.56117000  0.43697000  1.0 0.044890961
H  H173  1  0.75536000  0.54572000  0.46684000  1.0 0.0820902879
H  H174  1  0.78174000  0.51647000  0.49700000  1.0 0.0459582456
H  H175  1  0.88146000  0.63789000  0.57748000  1.0 0.0889149404
H  H176  1  0.38746000  0.57707000  0.90308000  1.0 0.1107700709
H  H177  1  0.41498000  0.45750000  0.79431000  1.0 0.1384542742
H  H178  1  0.35644000  0.44761000  0.69151000  1.0 0.1624881067
H  H179  1  0.32231000  0.51005000  0.70294000  1.0 0.0889149404
H  H180  1  0.61483000  0.83668000  0.21121000  1.0 0.121376931
H  H181  1  0.93948000  0.08573000  0.49727000  1.0 0.1299910722
H  H182  1  0.98581000  0.20273000  0.52835000  1.0 0.1299910722
H  H183  1  0.84553000  0.13535000  0.40242000  1.0 0.1107700709
H  H184  1  0.82510000  0.16854000  0.25439000  1.0 0.1299910722
H  H185  1  0.64706000  0.13352000  0.09648000  1.0 0.1384542742
H  H186  1  0.51380000  0.95454000  0.92709000  1.0 0.1384542742
H  H187  1  0.53711000  0.88584000  0.92410000  1.0 0.121376931
H  H188  1  0.30197000  0.57503000  0.76034000  1.0 0.1107700709
H  H189  1  0.28589000  0.56181000  0.80353000  1.0 0.1107700709
H  H190  1  0.56701000  0.88423000  0.18299000  1.0 0.121376931
H  H191  1  0.65903000  0.00070000  0.25401000  1.0 0.1299910722
H  H192  1  0.77104000  0.03182000  0.15622000  1.0 0.1299910722
H  H193  1  0.66769000  0.92674000  0.02510000  1.0 0.1299910722
H  H194  1  0.43946000  0.72418000  0.00143000  1.0 0.121376931
H  H195  1  0.72829000  0.02653000  0.21698000  1.0 0.121376931
H  H196  1  0.48845000  0.74921000  0.89399000  1.0 0.1384542742
H  H197  1  0.51355000  0.45938000  0.78561000  1.0 0.0304934197
H  H198  1  0.59261000  0.48163000  0.85037000  1.0 0.0820902879
H  H199  1  0.46764000  0.34750000  0.69058000  1.0 0.0711673859
H  H200  1  0.45939000  0.31877000  0.72704000  1.0 0.0580615005
H  H201  1  0.37929000  0.29622000  0.66143000  1.0 0.0711673859
H  H202  1  0.57965000  0.38857000  0.93051000  1.0 0.3804107048
H  H203  1  0.67558000  0.51026000  0.03106000  1.0 0.3866207936
H  H204  1  0.28830000  0.24249000  0.65612000  1.0 0.3674605626
H  H205  1  0.22968000  0.20095000  0.65405000  1.0 0.3624405303
H  H206  1  0.44017000  0.35677000  0.72291000  1.0 0.0169086457
H  H207  1  0.56117000  0.43697000  0.82229000  1.0 0.044890961
H  H208  1  0.54572000  0.46684000  0.75536000  1.0 0.0820902879
H  H209  1  0.51647000  0.49700000  0.78174000  1.0 0.0459582456
H  H210  1  0.63789000  0.57748000  0.88146000  1.0 0.0889149404
C  C1  1  0.47186000  0.07189000  0.55655000  1.0 0.6248701253
C  C2  1  0.44855000  0.13927000  0.61748000  1.0 -0.0316768838
C  C3  1  0.48167000  0.14178000  0.59385000  1.0 -0.0393385092
C  C4  1  0.51990000  0.20380000  0.60190000  1.0 -0.0104202485
C  C5  1  0.52440000  0.26340000  0.63530000  1.0 -0.1341559104
C  C6  1  0.48870000  0.25760000  0.65670000  1.0 -0.0104202485
C  C7  1  0.12896000  0.67202000  0.26222000  1.0 0.570617918
C  C8  1  0.08830000  0.72321000  0.30899000  1.0 -0.0489021022
C  C9  1  0.05014000  0.64896000  0.22790000  1.0 -0.0393385092
C  C10  1  0.94140000  0.55449000  0.11731000  1.0 -0.0622282512
C  C11  1  0.87200000  0.53580000  0.08990000  1.0 -0.139256563
C  C12  1  0.91240000  0.61090000  0.17300000  1.0 -0.0489021022
C  C13  1  0.71243000  0.69510000  0.15917000  1.0 0.6358659901
C  C14  1  0.87467000  0.81225000  0.23858000  1.0 -0.0240657906
C  C15  1  0.83094000  0.80751000  0.24985000  1.0 -0.0489021022
C  C16  1  0.89534000  0.90546000  0.34340000  1.0 -0.0489021022
C  C17  1  0.00090000  0.00520000  0.42220000  1.0 -0.1040972284
C  C18  1  0.04090000  0.00660000  0.40810000  1.0 -0.0104202485
C  C19  1  0.40570000  0.18400000  0.66390000  1.0 -0.2205854045
C  C20  1  0.06167000  0.78500000  0.36983000  1.0 -0.2205854045
C  C21  1  0.02810000  0.91570000  0.30750000  1.0 -0.1884539661
C  C22  1  0.28130000  0.06840000  0.55230000  1.0 0.1384542742
C  C23  1  0.23135000  0.98360000  0.51455000  1.0 -0.2311657381
C  C24  1  0.11650000  0.87631000  0.40999000  1.0 0.1299910722
C  C25  1  0.05203000  0.85580000  0.34317000  1.0 -0.2311657381
C  C26  1  0.10120000  0.93960000  0.38000000  1.0 0.1299910722
C  C27  1  0.21673000  0.04760000  0.48557000  1.0 -0.2205854045
C  C28  1  0.56470000  0.19910000  0.48020000  1.0 -0.0104202485
C  C29  1  0.65420000  0.28340000  0.54610000  1.0 -0.3372980318
C  C30  1  0.50000000  0.19460000  0.44140000  1.0 -0.3107071779
C  C31  1  0.07189000  0.55655000  0.47186000  1.0 0.6248701253
C  C32  1  0.13927000  0.61748000  0.44855000  1.0 -0.0316768838
C  C33  1  0.14178000  0.59385000  0.48167000  1.0 -0.0393385092
C  C34  1  0.20380000  0.60190000  0.51990000  1.0 -0.0104202485
C  C35  1  0.26340000  0.63530000  0.52440000  1.0 -0.1341559104
C  C36  1  0.25760000  0.65670000  0.48870000  1.0 -0.0104202485
C  C37  1  0.67202000  0.26222000  0.12896000  1.0 0.570617918
C  C38  1  0.72321000  0.30899000  0.08830000  1.0 -0.0489021022
C  C39  1  0.64896000  0.22790000  0.05014000  1.0 -0.0393385092
C  C40  1  0.55449000  0.11731000  0.94140000  1.0 -0.0622282512
C  C41  1  0.53580000  0.08990000  0.87200000  1.0 -0.139256563
C  C42  1  0.61090000  0.17300000  0.91240000  1.0 -0.0489021022
C  C43  1  0.69510000  0.15917000  0.71243000  1.0 0.6358659901
C  C44  1  0.81225000  0.23858000  0.87467000  1.0 -0.0240657906
C  C45  1  0.80751000  0.24985000  0.83094000  1.0 -0.0489021022
C  C46  1  0.90546000  0.34340000  0.89534000  1.0 -0.0489021022
C  C47  1  0.00520000  0.42220000  0.00090000  1.0 -0.1040972284
C  C48  1  0.00660000  0.40810000  0.04090000  1.0 -0.0104202485
C  C49  1  0.18400000  0.66390000  0.40570000  1.0 -0.2205854045
C  C50  1  0.78500000  0.36983000  0.06167000  1.0 -0.2205854045
C  C51  1  0.91570000  0.30750000  0.02810000  1.0 -0.1884539661
C  C52  1  0.06840000  0.55230000  0.28130000  1.0 0.1384542742
C  C53  1  0.98360000  0.51455000  0.23135000  1.0 -0.2311657381
C  C54  1  0.87631000  0.40999000  0.11650000  1.0 0.1299910722
C  C55  1  0.85580000  0.34317000  0.05203000  1.0 -0.2311657381
C  C56  1  0.93960000  0.38000000  0.10120000  1.0 0.1299910722
C  C57  1  0.04760000  0.48557000  0.21673000  1.0 -0.2205854045
C  C58  1  0.19910000  0.48020000  0.56470000  1.0 -0.0104202485
C  C59  1  0.28340000  0.54610000  0.65420000  1.0 -0.3372980318
C  C60  1  0.19460000  0.44140000  0.50000000  1.0 -0.3107071779
C  C61  1  0.55655000  0.47186000  0.07189000  1.0 0.6248701253
C  C62  1  0.61748000  0.44855000  0.13927000  1.0 -0.0316768838
C  C63  1  0.59385000  0.48167000  0.14178000  1.0 -0.0393385092
C  C64  1  0.60190000  0.51990000  0.20380000  1.0 -0.0104202485
C  C65  1  0.63530000  0.52440000  0.26340000  1.0 -0.1341559104
C  C66  1  0.65670000  0.48870000  0.25760000  1.0 -0.0104202485
C  C67  1  0.26222000  0.12896000  0.67202000  1.0 0.570617918
C  C68  1  0.30899000  0.08830000  0.72321000  1.0 -0.0489021022
C  C69  1  0.22790000  0.05014000  0.64896000  1.0 -0.0393385092
C  C70  1  0.11731000  0.94140000  0.55449000  1.0 -0.0622282512
C  C71  1  0.08990000  0.87200000  0.53580000  1.0 -0.139256563
C  C72  1  0.17300000  0.91240000  0.61090000  1.0 -0.0489021022
C  C73  1  0.15917000  0.71243000  0.69510000  1.0 0.6358659901
C  C74  1  0.23858000  0.87467000  0.81225000  1.0 -0.0240657906
C  C75  1  0.24985000  0.83094000  0.80751000  1.0 -0.0489021022
C  C76  1  0.34340000  0.89534000  0.90546000  1.0 -0.0489021022
C  C77  1  0.42220000  0.00090000  0.00520000  1.0 -0.1040972284
C  C78  1  0.40810000  0.04090000  0.00660000  1.0 -0.0104202485
C  C79  1  0.66390000  0.40570000  0.18400000  1.0 -0.2205854045
C  C80  1  0.36983000  0.06167000  0.78500000  1.0 -0.2205854045
C  C81  1  0.30750000  0.02810000  0.91570000  1.0 -0.1884539661
C  C82  1  0.55230000  0.28130000  0.06840000  1.0 0.1384542742
C  C83  1  0.51455000  0.23135000  0.98360000  1.0 -0.2311657381
C  C84  1  0.40999000  0.11650000  0.87631000  1.0 0.1299910722
C  C85  1  0.34317000  0.05203000  0.85580000  1.0 -0.2311657381
C  C86  1  0.38000000  0.10120000  0.93960000  1.0 0.1299910722
C  C87  1  0.48557000  0.21673000  0.04760000  1.0 -0.2205854045
C  C88  1  0.48020000  0.56470000  0.19910000  1.0 -0.0104202485
C  C89  1  0.54610000  0.65420000  0.28340000  1.0 -0.3372980318
C  C90  1  0.44140000  0.50000000  0.19460000  1.0 -0.3107071779
C  C91  1  0.52814000  0.92811000  0.44345000  1.0 0.6248701253
C  C92  1  0.55145000  0.86073000  0.38252000  1.0 -0.0316768838
C  C93  1  0.51833000  0.85822000  0.40615000  1.0 -0.0393385092
C  C94  1  0.48010000  0.79620000  0.39810000  1.0 -0.0104202485
C  C95  1  0.47560000  0.73660000  0.36470000  1.0 -0.1341559104
C  C96  1  0.51130000  0.74240000  0.34330000  1.0 -0.0104202485
C  C97  1  0.87104000  0.32798000  0.73778000  1.0 0.570617918
C  C98  1  0.91170000  0.27679000  0.69101000  1.0 -0.0489021022
C  C99  1  0.94986000  0.35104000  0.77210000  1.0 -0.0393385092
C  C100  1  0.05860000  0.44551000  0.88269000  1.0 -0.0622282512
C  C101  1  0.12800000  0.46420000  0.91010000  1.0 -0.139256563
C  C102  1  0.08760000  0.38910000  0.82700000  1.0 -0.0489021022
C  C103  1  0.28757000  0.30490000  0.84083000  1.0 0.6358659901
C  C104  1  0.12533000  0.18775000  0.76142000  1.0 -0.0240657906
C  C105  1  0.16906000  0.19249000  0.75015000  1.0 -0.0489021022
C  C106  1  0.10466000  0.09454000  0.65660000  1.0 -0.0489021022
C  C107  1  0.99910000  0.99480000  0.57780000  1.0 -0.1040972284
C  C108  1  0.95910000  0.99340000  0.59190000  1.0 -0.0104202485
C  C109  1  0.59430000  0.81600000  0.33610000  1.0 -0.2205854045
C  C110  1  0.93833000  0.21500000  0.63017000  1.0 -0.2205854045
C  C111  1  0.97190000  0.08430000  0.69250000  1.0 -0.1884539661
C  C112  1  0.71870000  0.93160000  0.44770000  1.0 0.1384542742
C  C113  1  0.76865000  0.01640000  0.48545000  1.0 -0.2311657381
C  C114  1  0.88350000  0.12369000  0.59001000  1.0 0.1299910722
C  C115  1  0.94797000  0.14420000  0.65683000  1.0 -0.2311657381
C  C116  1  0.89880000  0.06040000  0.62000000  1.0 0.1299910722
C  C117  1  0.78327000  0.95240000  0.51443000  1.0 -0.2205854045
C  C118  1  0.43530000  0.80090000  0.51980000  1.0 -0.0104202485
C  C119  1  0.34580000  0.71660000  0.45390000  1.0 -0.3372980318
C  C120  1  0.50000000  0.80540000  0.55860000  1.0 -0.3107071779
C  C121  1  0.92811000  0.44345000  0.52814000  1.0 0.6248701253
C  C122  1  0.86073000  0.38252000  0.55145000  1.0 -0.0316768838
C  C123  1  0.85822000  0.40615000  0.51833000  1.0 -0.0393385092
C  C124  1  0.79620000  0.39810000  0.48010000  1.0 -0.0104202485
C  C125  1  0.73660000  0.36470000  0.47560000  1.0 -0.1341559104
C  C126  1  0.74240000  0.34330000  0.51130000  1.0 -0.0104202485
C  C127  1  0.32798000  0.73778000  0.87104000  1.0 0.570617918
C  C128  1  0.27679000  0.69101000  0.91170000  1.0 -0.0489021022
C  C129  1  0.35104000  0.77210000  0.94986000  1.0 -0.0393385092
C  C130  1  0.44551000  0.88269000  0.05860000  1.0 -0.0622282512
C  C131  1  0.46420000  0.91010000  0.12800000  1.0 -0.139256563
C  C132  1  0.38910000  0.82700000  0.08760000  1.0 -0.0489021022
C  C133  1  0.30490000  0.84083000  0.28757000  1.0 0.6358659901
C  C134  1  0.18775000  0.76142000  0.12533000  1.0 -0.0240657906
C  C135  1  0.19249000  0.75015000  0.16906000  1.0 -0.0489021022
C  C136  1  0.09454000  0.65660000  0.10466000  1.0 -0.0489021022
C  C137  1  0.99480000  0.57780000  0.99910000  1.0 -0.1040972284
C  C138  1  0.99340000  0.59190000  0.95910000  1.0 -0.0104202485
C  C139  1  0.81600000  0.33610000  0.59430000  1.0 -0.2205854045
C  C140  1  0.21500000  0.63017000  0.93833000  1.0 -0.2205854045
C  C141  1  0.08430000  0.69250000  0.97190000  1.0 -0.1884539661
C  C142  1  0.93160000  0.44770000  0.71870000  1.0 0.1384542742
C  C143  1  0.01640000  0.48545000  0.76865000  1.0 -0.2311657381
C  C144  1  0.12369000  0.59001000  0.88350000  1.0 0.1299910722
C  C145  1  0.14420000  0.65683000  0.94797000  1.0 -0.2311657381
C  C146  1  0.06040000  0.62000000  0.89880000  1.0 0.1299910722
C  C147  1  0.95240000  0.51443000  0.78327000  1.0 -0.2205854045
C  C148  1  0.80090000  0.51980000  0.43530000  1.0 -0.0104202485
C  C149  1  0.71660000  0.45390000  0.34580000  1.0 -0.3372980318
C  C150  1  0.80540000  0.55860000  0.50000000  1.0 -0.3107071779
C  C151  1  0.44345000  0.52814000  0.92811000  1.0 0.6248701253
C  C152  1  0.38252000  0.55145000  0.86073000  1.0 -0.0316768838
C  C153  1  0.40615000  0.51833000  0.85822000  1.0 -0.0393385092
C  C154  1  0.39810000  0.48010000  0.79620000  1.0 -0.0104202485
C  C155  1  0.36470000  0.47560000  0.73660000  1.0 -0.1341559104
C  C156  1  0.34330000  0.51130000  0.74240000  1.0 -0.0104202485
C  C157  1  0.73778000  0.87104000  0.32798000  1.0 0.570617918
C  C158  1  0.69101000  0.91170000  0.27679000  1.0 -0.0489021022
C  C159  1  0.77210000  0.94986000  0.35104000  1.0 -0.0393385092
C  C160  1  0.88269000  0.05860000  0.44551000  1.0 -0.0622282512
C  C161  1  0.91010000  0.12800000  0.46420000  1.0 -0.139256563
C  C162  1  0.82700000  0.08760000  0.38910000  1.0 -0.0489021022
C  C163  1  0.84083000  0.28757000  0.30490000  1.0 0.6358659901
C  C164  1  0.76142000  0.12533000  0.18775000  1.0 -0.0240657906
C  C165  1  0.75015000  0.16906000  0.19249000  1.0 -0.0489021022
C  C166  1  0.65660000  0.10466000  0.09454000  1.0 -0.0489021022
C  C167  1  0.57780000  0.99910000  0.99480000  1.0 -0.1040972284
C  C168  1  0.59190000  0.95910000  0.99340000  1.0 -0.0104202485
C  C169  1  0.33610000  0.59430000  0.81600000  1.0 -0.2205854045
C  C170  1  0.63017000  0.93833000  0.21500000  1.0 -0.2205854045
C  C171  1  0.69250000  0.97190000  0.08430000  1.0 -0.1884539661
C  C172  1  0.44770000  0.71870000  0.93160000  1.0 0.1384542742
C  C173  1  0.48545000  0.76865000  0.01640000  1.0 -0.2311657381
C  C174  1  0.59001000  0.88350000  0.12369000  1.0 0.1299910722
C  C175  1  0.65683000  0.94797000  0.14420000  1.0 -0.2311657381
C  C176  1  0.62000000  0.89880000  0.06040000  1.0 0.1384542742
C  C177  1  0.51443000  0.78327000  0.95240000  1.0 -0.2205854045
C  C178  1  0.51980000  0.43530000  0.80090000  1.0 -0.0104202485
C  C179  1  0.45390000  0.34580000  0.71660000  1.0 -0.3372980318
C  C180  1  0.55860000  0.50000000  0.80540000  1.0 -0.3107071779
Br  Br1  1  0.15988000  0.25412000  0.65680000  1.0 -0.62767466
Br  Br2  1  0.65680000  0.15988000  0.25412000  1.0 -0.62767466
Br  Br3  1  0.25412000  0.65680000  0.15988000  1.0 -0.6179722935
Br  Br4  1  0.84012000  0.74588000  0.34320000  1.0 -0.62767466
Br  Br5  1  0.34320000  0.84012000  0.74588000  1.0 -0.62767466
Br  Br6  1  0.74588000  0.34320000  0.84012000  1.0 -0.62767466
N  N1  1  0.45208000  0.19659000  0.64783000  1.0 0.0889149404
N  N2  1  0.01842000  0.70280000  0.28018000  1.0 0.1107700709
N  N3  1  0.97914000  0.91160000  0.31796000  1.0 0.0963262469
N  N4  1  0.19659000  0.64783000  0.45208000  1.0 0.0889149404
N  N5  1  0.70280000  0.28018000  0.01842000  1.0 0.1107700709
N  N6  1  0.91160000  0.31796000  0.97914000  1.0 0.0963262469
N  N7  1  0.64783000  0.45208000  0.19659000  1.0 0.0889149404
N  N8  1  0.28018000  0.01842000  0.70280000  1.0 0.1107700709
N  N9  1  0.31796000  0.97914000  0.91160000  1.0 0.0963262469
N  N10  1  0.54792000  0.80341000  0.35217000  1.0 0.0889149404
N  N11  1  0.98158000  0.29720000  0.71982000  1.0 0.1107700709
N  N12  1  0.02086000  0.08840000  0.68204000  1.0 0.0963262469
N  N13  1  0.80341000  0.35217000  0.54792000  1.0 0.0889149404
N  N14  1  0.29720000  0.71982000  0.98158000  1.0 0.1107700709
N  N15  1  0.08840000  0.68204000  0.02086000  1.0 0.0963262469
N  N16  1  0.35217000  0.54792000  0.80341000  1.0 0.0889149404
N  N17  1  0.71982000  0.98158000  0.29720000  1.0 0.1107700709
N  N18  1  0.68204000  0.02086000  0.08840000  1.0 0.0963262469
O  O1  1  0.51062000  0.08137000  0.54371000  1.0 -0.62767466
O  O2  1  0.42659000  0.01096000  0.54155000  1.0 -0.6179722935
O  O3  1  0.22732000  0.76268000  0.36420000  1.0 -0.6505166056
O  O4  1  0.08792000  0.59855000  0.18503000  1.0 -0.5741940103
O  O5  1  0.66630000  0.61181000  0.08609000  1.0 -0.62767466
O  O6  1  0.67187000  0.69698000  0.16575000  1.0 -0.6149587593
O  O7  1  0.52762000  0.13168000  0.46770000  1.0 -0.5584944151
O  O8  1  0.55794000  0.04866000  0.39770000  1.0 -0.802002158
O  O9  1  0.73202000  0.30169000  0.70649000  1.0 -0.7729964219
O  O10  1  0.08137000  0.54371000  0.51062000  1.0 -0.62767466
O  O11  1  0.01096000  0.54155000  0.42659000  1.0 -0.6179722935
O  O12  1  0.76268000  0.36420000  0.22732000  1.0 -0.6505166056
O  O13  1  0.59855000  0.18503000  0.08792000  1.0 -0.5741940103
O  O14  1  0.61181000  0.08609000  0.66630000  1.0 -0.62767466
O  O15  1  0.69698000  0.16575000  0.67187000  1.0 -0.6149587593
O  O16  1  0.13168000  0.46770000  0.52762000  1.0 -0.5584944151
O  O17  1  0.04866000  0.39770000  0.55794000  1.0 -0.802002158
O  O18  1  0.30169000  0.70649000  0.73202000  1.0 -0.7729964219
O  O19  1  0.54371000  0.51062000  0.08137000  1.0 -0.62767466
O  O20  1  0.54155000  0.42659000  0.01096000  1.0 -0.6179722935
O  O21  1  0.36420000  0.22732000  0.76268000  1.0 -0.6505166056
O  O22  1  0.18503000  0.08792000  0.59855000  1.0 -0.5741940103
O  O23  1  0.08609000  0.66630000  0.61181000  1.0 -0.62767466
O  O24  1  0.16575000  0.67187000  0.69698000  1.0 -0.6149587593
O  O25  1  0.46770000  0.52762000  0.13168000  1.0 -0.5584944151
O  O26  1  0.39770000  0.55794000  0.04866000  1.0 -0.802002158
O  O27  1  0.70649000  0.73202000  0.30169000  1.0 -0.7729964219
O  O28  1  0.48938000  0.91863000  0.45629000  1.0 -0.62767466
O  O29  1  0.57341000  0.98904000  0.45845000  1.0 -0.6179722935
O  O30  1  0.77268000  0.23732000  0.63580000  1.0 -0.6505166056
O  O31  1  0.91208000  0.40145000  0.81497000  1.0 -0.5741940103
O  O32  1  0.33370000  0.38819000  0.91391000  1.0 -0.62767466
O  O33  1  0.32813000  0.30302000  0.83425000  1.0 -0.6149587593
O  O34  1  0.47238000  0.86832000  0.53230000  1.0 -0.5584944151
O  O35  1  0.44206000  0.95134000  0.60230000  1.0 -0.802002158
O  O36  1  0.26798000  0.69831000  0.29351000  1.0 -0.7729964219
O  O37  1  0.91863000  0.45629000  0.48938000  1.0 -0.62767466
O  O38  1  0.98904000  0.45845000  0.57341000  1.0 -0.6179722935
O  O39  1  0.23732000  0.63580000  0.77268000  1.0 -0.6505166056
O  O40  1  0.40145000  0.81497000  0.91208000  1.0 -0.5741940103
O  O41  1  0.38819000  0.91391000  0.33370000  1.0 -0.62767466
O  O42  1  0.30302000  0.83425000  0.32813000  1.0 -0.6149587593
O  O43  1  0.86832000  0.53230000  0.47238000  1.0 -0.5584944151
O  O44  1  0.95134000  0.60230000  0.44206000  1.0 -0.802002158
O  O45  1  0.69831000  0.29351000  0.26798000  1.0 -0.7729964219
O  O46  1  0.45629000  0.48938000  0.91863000  1.0 -0.62767466
O  O47  1  0.45845000  0.57341000  0.98904000  1.0 -0.6179722935
O  O48  1  0.63580000  0.77268000  0.23732000  1.0 -0.6505166056
O  O49  1  0.81497000  0.91208000  0.40145000  1.0 -0.5741940103
O  O50  1  0.91391000  0.33370000  0.38819000  1.0 -0.62767466
O  O51  1  0.83425000  0.32813000  0.30302000  1.0 -0.6149587593
O  O52  1  0.53230000  0.47238000  0.86832000  1.0 -0.5584944151
O  O53  1  0.60230000  0.44206000  0.95134000  1.0 -0.802002158
O  O54  1  0.29351000  0.26798000  0.69831000  1.0 -0.7729964219
