# DDEC6 charges by PACMAN v1.1 (https://github.com/mtap-research/PACMAN-charge/)
data_BATVAX_FSR_pacman
_symmetry_space_group_name_H-M   'P 1'
_cell_length_a   27.73640000
_cell_length_b   27.73640000
_cell_length_c   27.73640000
_cell_angle_alpha   117.82200000
_cell_angle_beta   117.82200000
_cell_angle_gamma   117.82200000
_symmetry_Int_Tables_number   1
_chemical_formula_structural   CeH43C38N3O10
_chemical_formula_sum   'Ce6 H258 C228 N18 O60'
_cell_volume   8073.56128435
_cell_formula_units_Z   6
loop_
 _symmetry_equiv_pos_site_id
 _symmetry_equiv_pos_as_xyz
  1  'x, y, z'
loop_
 _atom_site_type_symbol
 _atom_site_label
 _atom_site_symmetry_multiplicity
 _atom_site_fract_x
 _atom_site_fract_y
 _atom_site_fract_z
 _atom_site_occupancy
 _atom_site_charge
Ce  Ce1  1  0.97668000  0.90905000  0.39641000  1.0 1.9105059072
Ce  Ce2  1  0.90905000  0.39641000  0.97668000  1.0 1.9105059072
Ce  Ce3  1  0.39641000  0.97668000  0.90905000  1.0 1.9105059072
Ce  Ce4  1  0.02332000  0.09095000  0.60359000  1.0 1.9105059072
Ce  Ce5  1  0.09095000  0.60359000  0.02332000  1.0 1.9105059072
Ce  Ce6  1  0.60359000  0.02332000  0.09095000  1.0 1.9105059072
H  H1  1  0.88089000  0.07079000  0.39364000  1.0 0.1181331192
H  H2  1  0.91833000  0.95798000  0.29320000  1.0 0.1367569146
H  H3  1  0.86003000  0.94500000  0.18920000  1.0 0.1451893314
H  H4  1  0.81574000  0.00004000  0.19026000  1.0 0.1009609352
H  H5  1  0.11583000  0.33733000  0.70927000  1.0 0.1181331192
H  H6  1  0.44343000  0.59069000  0.99982000  1.0 0.128580751
H  H7  1  0.48978000  0.70479000  0.02762000  1.0 0.1181331192
H  H8  1  0.34858000  0.63702000  0.89921000  1.0 0.1106092671
H  H9  1  0.32599000  0.66651000  0.75073000  1.0 0.1181331192
H  H10  1  0.14194000  0.62882000  0.58995000  1.0 0.1181331192
H  H11  1  0.01431000  0.45309000  0.41993000  1.0 0.128580751
H  H12  1  0.04039000  0.38449000  0.41604000  1.0 0.1181331192
H  H13  1  0.77961000  0.05579000  0.29354000  1.0 0.1181331192
H  H14  1  0.79508000  0.06726000  0.24857000  1.0 0.1009609352
H  H15  1  0.15705000  0.49937000  0.74899000  1.0 0.1181331192
H  H16  1  0.06400000  0.38135000  0.67701000  1.0 0.1106092671
H  H17  1  0.16798000  0.42302000  0.51895000  1.0 0.128580751
H  H18  1  0.27283000  0.52956000  0.65172000  1.0 0.1181331192
H  H19  1  0.93303000  0.21897000  0.49146000  1.0 0.1181331192
H  H20  1  0.23159000  0.52675000  0.71356000  1.0 0.1181331192
H  H21  1  0.98865000  0.24510000  0.38661000  1.0 0.128580751
H  H22  1  0.92816000  0.81831000  0.21990000  1.0 0.0472898936
H  H23  1  0.03357000  0.91947000  0.28322000  1.0 0.0378582567
H  H24  1  0.87449000  0.77693000  0.09723000  1.0 0.087315209
H  H25  1  0.92777000  0.88315000  0.16601000  1.0 0.058514024
H  H26  1  0.82010000  0.77983000  0.10135000  1.0 0.1009609352
H  H27  1  0.09400000  0.92063000  0.40907000  1.0 0.3136793936
H  H28  1  0.09093000  0.90209000  0.44757000  1.0 0.3216012582
H  H29  1  0.77691000  0.72237000  0.15034000  1.0 0.3337194934
H  H30  1  0.73667000  0.72160000  0.16820000  1.0 0.3337194934
H  H31  1  0.31134000  0.26444000  0.58799000  1.0 0.0721737906
H  H32  1  0.28068000  0.26986000  0.52797000  1.0 0.087315209
H  H33  1  0.11300000  0.17696000  0.48963000  1.0 0.1106092671
H  H34  1  0.13912000  0.28286000  0.59126000  1.0 0.1009609352
H  H35  1  0.31630000  0.47981000  0.76566000  1.0 0.087315209
H  H36  1  0.46735000  0.57087000  0.83844000  1.0 0.1009609352
H  H37  1  0.44123000  0.46498000  0.73682000  1.0 0.1009609352
H  H38  1  0.16052000  0.10753000  0.44170000  1.0 0.2289180696
H  H39  1  0.08126000  0.96024000  0.33175000  1.0 0.0378582567
H  H40  1  0.95380000  0.86846000  0.22429000  1.0 0.058514024
H  H41  1  0.06179000  0.99840000  0.27329000  1.0 0.058514024
H  H42  1  0.14374000  0.09910000  0.39653000  1.0 0.1106092671
H  H43  1  0.01583000  0.00699000  0.28869000  1.0 0.1009609352
H  H44  1  0.07079000  0.39364000  0.88089000  1.0 0.1181331192
H  H45  1  0.95798000  0.29320000  0.91833000  1.0 0.1367569146
H  H46  1  0.94500000  0.18920000  0.86003000  1.0 0.1451893314
H  H47  1  0.00004000  0.19026000  0.81574000  1.0 0.1009609352
H  H48  1  0.33733000  0.70927000  0.11583000  1.0 0.1181331192
H  H49  1  0.59069000  0.99982000  0.44343000  1.0 0.128580751
H  H50  1  0.70479000  0.02762000  0.48978000  1.0 0.1181331192
H  H51  1  0.63702000  0.89921000  0.34858000  1.0 0.1106092671
H  H52  1  0.66651000  0.75073000  0.32599000  1.0 0.1181331192
H  H53  1  0.62882000  0.58995000  0.14194000  1.0 0.1181331192
H  H54  1  0.45309000  0.41993000  0.01431000  1.0 0.128580751
H  H55  1  0.38449000  0.41604000  0.04039000  1.0 0.1181331192
H  H56  1  0.05579000  0.29354000  0.77961000  1.0 0.1181331192
H  H57  1  0.06726000  0.24857000  0.79508000  1.0 0.1009609352
H  H58  1  0.49937000  0.74899000  0.15705000  1.0 0.1181331192
H  H59  1  0.38135000  0.67701000  0.06400000  1.0 0.1106092671
H  H60  1  0.42302000  0.51895000  0.16798000  1.0 0.128580751
H  H61  1  0.52956000  0.65172000  0.27283000  1.0 0.1181331192
H  H62  1  0.21897000  0.49146000  0.93303000  1.0 0.1181331192
H  H63  1  0.52675000  0.71356000  0.23159000  1.0 0.1181331192
H  H64  1  0.24510000  0.38661000  0.98865000  1.0 0.128580751
H  H65  1  0.81831000  0.21990000  0.92816000  1.0 0.0472898936
H  H66  1  0.91947000  0.28322000  0.03357000  1.0 0.0378582567
H  H67  1  0.77693000  0.09723000  0.87449000  1.0 0.087315209
H  H68  1  0.88315000  0.16601000  0.92777000  1.0 0.058514024
H  H69  1  0.77983000  0.10135000  0.82010000  1.0 0.1009609352
H  H70  1  0.92063000  0.40907000  0.09400000  1.0 0.3136793936
H  H71  1  0.90209000  0.44757000  0.09093000  1.0 0.3216012582
H  H72  1  0.72237000  0.15034000  0.77691000  1.0 0.3337194934
H  H73  1  0.72160000  0.16820000  0.73667000  1.0 0.3337194934
H  H74  1  0.26444000  0.58799000  0.31134000  1.0 0.0721737906
H  H75  1  0.26986000  0.52797000  0.28068000  1.0 0.087315209
H  H76  1  0.17696000  0.48963000  0.11300000  1.0 0.1106092671
H  H77  1  0.28286000  0.59126000  0.13912000  1.0 0.1009609352
H  H78  1  0.47981000  0.76566000  0.31630000  1.0 0.087315209
H  H79  1  0.57087000  0.83844000  0.46735000  1.0 0.1009609352
H  H80  1  0.46498000  0.73682000  0.44123000  1.0 0.1009609352
H  H81  1  0.10753000  0.44170000  0.16052000  1.0 0.2289180696
H  H82  1  0.96024000  0.33175000  0.08126000  1.0 0.0378582567
H  H83  1  0.86846000  0.22429000  0.95380000  1.0 0.058514024
H  H84  1  0.99840000  0.27329000  0.06179000  1.0 0.058514024
H  H85  1  0.09910000  0.39653000  0.14374000  1.0 0.1106092671
H  H86  1  0.00699000  0.28869000  0.01583000  1.0 0.1009609352
H  H87  1  0.39364000  0.88089000  0.07079000  1.0 0.1181331192
H  H88  1  0.29320000  0.91833000  0.95798000  1.0 0.1367569146
H  H89  1  0.18920000  0.86003000  0.94500000  1.0 0.1451893314
H  H90  1  0.19026000  0.81574000  0.00004000  1.0 0.1009609352
H  H91  1  0.70927000  0.11583000  0.33733000  1.0 0.1181331192
H  H92  1  0.99982000  0.44343000  0.59069000  1.0 0.128580751
H  H93  1  0.02762000  0.48978000  0.70479000  1.0 0.1181331192
H  H94  1  0.89921000  0.34858000  0.63702000  1.0 0.1106092671
H  H95  1  0.75073000  0.32599000  0.66651000  1.0 0.1181331192
H  H96  1  0.58995000  0.14194000  0.62882000  1.0 0.1181331192
H  H97  1  0.41993000  0.01431000  0.45309000  1.0 0.128580751
H  H98  1  0.41604000  0.04039000  0.38449000  1.0 0.1181331192
H  H99  1  0.29354000  0.77961000  0.05579000  1.0 0.1181331192
H  H100  1  0.24857000  0.79508000  0.06726000  1.0 0.1009609352
H  H101  1  0.74899000  0.15705000  0.49937000  1.0 0.1181331192
H  H102  1  0.67701000  0.06400000  0.38135000  1.0 0.1106092671
H  H103  1  0.51895000  0.16798000  0.42302000  1.0 0.128580751
H  H104  1  0.65172000  0.27283000  0.52956000  1.0 0.1181331192
H  H105  1  0.49146000  0.93303000  0.21897000  1.0 0.1181331192
H  H106  1  0.71356000  0.23159000  0.52675000  1.0 0.1181331192
H  H107  1  0.38661000  0.98865000  0.24510000  1.0 0.128580751
H  H108  1  0.21990000  0.92816000  0.81831000  1.0 0.0472898936
H  H109  1  0.28322000  0.03357000  0.91947000  1.0 0.0378582567
H  H110  1  0.09723000  0.87449000  0.77693000  1.0 0.087315209
H  H111  1  0.16601000  0.92777000  0.88315000  1.0 0.058514024
H  H112  1  0.10135000  0.82010000  0.77983000  1.0 0.1009609352
H  H113  1  0.40907000  0.09400000  0.92063000  1.0 0.3136793936
H  H114  1  0.44757000  0.09093000  0.90209000  1.0 0.3216012582
H  H115  1  0.15034000  0.77691000  0.72237000  1.0 0.3337194934
H  H116  1  0.16820000  0.73667000  0.72160000  1.0 0.3337194934
H  H117  1  0.58799000  0.31134000  0.26444000  1.0 0.0721737906
H  H118  1  0.52797000  0.28068000  0.26986000  1.0 0.087315209
H  H119  1  0.48963000  0.11300000  0.17696000  1.0 0.1106092671
H  H120  1  0.59126000  0.13912000  0.28286000  1.0 0.1009609352
H  H121  1  0.76566000  0.31630000  0.47981000  1.0 0.087315209
H  H122  1  0.83844000  0.46735000  0.57087000  1.0 0.1009609352
H  H123  1  0.73682000  0.44123000  0.46498000  1.0 0.1009609352
H  H124  1  0.44170000  0.16052000  0.10753000  1.0 0.2289180696
H  H125  1  0.33175000  0.08126000  0.96024000  1.0 0.0378582567
H  H126  1  0.22429000  0.95380000  0.86846000  1.0 0.058514024
H  H127  1  0.27329000  0.06179000  0.99840000  1.0 0.058514024
H  H128  1  0.39653000  0.14374000  0.09910000  1.0 0.1106092671
H  H129  1  0.28869000  0.01583000  0.00699000  1.0 0.1009609352
H  H130  1  0.11911000  0.92921000  0.60636000  1.0 0.1181331192
H  H131  1  0.08167000  0.04202000  0.70680000  1.0 0.1367569146
H  H132  1  0.13997000  0.05500000  0.81080000  1.0 0.1451893314
H  H133  1  0.18426000  0.99996000  0.80974000  1.0 0.1009609352
H  H134  1  0.88417000  0.66267000  0.29073000  1.0 0.1181331192
H  H135  1  0.55657000  0.40931000  0.00018000  1.0 0.128580751
H  H136  1  0.51022000  0.29521000  0.97238000  1.0 0.1181331192
H  H137  1  0.65142000  0.36298000  0.10079000  1.0 0.1106092671
H  H138  1  0.67401000  0.33349000  0.24927000  1.0 0.1181331192
H  H139  1  0.85806000  0.37118000  0.41005000  1.0 0.1181331192
H  H140  1  0.98569000  0.54691000  0.58007000  1.0 0.128580751
H  H141  1  0.95961000  0.61551000  0.58396000  1.0 0.1181331192
H  H142  1  0.22039000  0.94421000  0.70646000  1.0 0.1181331192
H  H143  1  0.20492000  0.93274000  0.75143000  1.0 0.1009609352
H  H144  1  0.84295000  0.50063000  0.25101000  1.0 0.1181331192
H  H145  1  0.93600000  0.61865000  0.32299000  1.0 0.1106092671
H  H146  1  0.83202000  0.57698000  0.48105000  1.0 0.128580751
H  H147  1  0.72717000  0.47044000  0.34828000  1.0 0.1181331192
H  H148  1  0.06697000  0.78103000  0.50854000  1.0 0.1181331192
H  H149  1  0.76841000  0.47325000  0.28644000  1.0 0.1181331192
H  H150  1  0.01135000  0.75490000  0.61339000  1.0 0.128580751
H  H151  1  0.07184000  0.18169000  0.78010000  1.0 0.0472898936
H  H152  1  0.96643000  0.08053000  0.71678000  1.0 0.0378582567
H  H153  1  0.12551000  0.22307000  0.90277000  1.0 0.087315209
H  H154  1  0.07223000  0.11685000  0.83399000  1.0 0.058514024
H  H155  1  0.17990000  0.22017000  0.89865000  1.0 0.1009609352
H  H156  1  0.90600000  0.07937000  0.59093000  1.0 0.3136793936
H  H157  1  0.90907000  0.09791000  0.55243000  1.0 0.3216012582
H  H158  1  0.22309000  0.27763000  0.84966000  1.0 0.3337194934
H  H159  1  0.26333000  0.27840000  0.83180000  1.0 0.3337194934
H  H160  1  0.68866000  0.73556000  0.41201000  1.0 0.0721737906
H  H161  1  0.71932000  0.73014000  0.47203000  1.0 0.087315209
H  H162  1  0.88700000  0.82304000  0.51037000  1.0 0.1106092671
H  H163  1  0.86088000  0.71714000  0.40874000  1.0 0.1009609352
H  H164  1  0.68370000  0.52019000  0.23434000  1.0 0.087315209
H  H165  1  0.53265000  0.42913000  0.16156000  1.0 0.1009609352
H  H166  1  0.55877000  0.53502000  0.26318000  1.0 0.1009609352
H  H167  1  0.83948000  0.89247000  0.55830000  1.0 0.2289180696
H  H168  1  0.91874000  0.03976000  0.66825000  1.0 0.0378582567
H  H169  1  0.04620000  0.13154000  0.77571000  1.0 0.058514024
H  H170  1  0.93821000  0.00160000  0.72671000  1.0 0.058514024
H  H171  1  0.85626000  0.90090000  0.60347000  1.0 0.1106092671
H  H172  1  0.98417000  0.99301000  0.71131000  1.0 0.1009609352
H  H173  1  0.92921000  0.60636000  0.11911000  1.0 0.1181331192
H  H174  1  0.04202000  0.70680000  0.08167000  1.0 0.1367569146
H  H175  1  0.05500000  0.81080000  0.13997000  1.0 0.1451893314
H  H176  1  0.99996000  0.80974000  0.18426000  1.0 0.1009609352
H  H177  1  0.66267000  0.29073000  0.88417000  1.0 0.1181331192
H  H178  1  0.40931000  0.00018000  0.55657000  1.0 0.128580751
H  H179  1  0.29521000  0.97238000  0.51022000  1.0 0.1181331192
H  H180  1  0.36298000  0.10079000  0.65142000  1.0 0.1106092671
H  H181  1  0.33349000  0.24927000  0.67401000  1.0 0.1181331192
H  H182  1  0.37118000  0.41005000  0.85806000  1.0 0.1181331192
H  H183  1  0.54691000  0.58007000  0.98569000  1.0 0.128580751
H  H184  1  0.61551000  0.58396000  0.95961000  1.0 0.1181331192
H  H185  1  0.94421000  0.70646000  0.22039000  1.0 0.1181331192
H  H186  1  0.93274000  0.75143000  0.20492000  1.0 0.1009609352
H  H187  1  0.50063000  0.25101000  0.84295000  1.0 0.1181331192
H  H188  1  0.61865000  0.32299000  0.93600000  1.0 0.1106092671
H  H189  1  0.57698000  0.48105000  0.83202000  1.0 0.128580751
H  H190  1  0.47044000  0.34828000  0.72717000  1.0 0.1181331192
H  H191  1  0.78103000  0.50854000  0.06697000  1.0 0.1181331192
H  H192  1  0.47325000  0.28644000  0.76841000  1.0 0.1181331192
H  H193  1  0.75490000  0.61339000  0.01135000  1.0 0.128580751
H  H194  1  0.18169000  0.78010000  0.07184000  1.0 0.0472898936
H  H195  1  0.08053000  0.71678000  0.96643000  1.0 0.0378582567
H  H196  1  0.22307000  0.90277000  0.12551000  1.0 0.087315209
H  H197  1  0.11685000  0.83399000  0.07223000  1.0 0.058514024
H  H198  1  0.22017000  0.89865000  0.17990000  1.0 0.1009609352
H  H199  1  0.07937000  0.59093000  0.90600000  1.0 0.3136793936
H  H200  1  0.09791000  0.55243000  0.90907000  1.0 0.3216012582
H  H201  1  0.27763000  0.84966000  0.22309000  1.0 0.3337194934
H  H202  1  0.27840000  0.83180000  0.26333000  1.0 0.3337194934
H  H203  1  0.73556000  0.41201000  0.68866000  1.0 0.0721737906
H  H204  1  0.73014000  0.47203000  0.71932000  1.0 0.087315209
H  H205  1  0.82304000  0.51037000  0.88700000  1.0 0.1106092671
H  H206  1  0.71714000  0.40874000  0.86088000  1.0 0.1009609352
H  H207  1  0.52019000  0.23434000  0.68370000  1.0 0.087315209
H  H208  1  0.42913000  0.16156000  0.53265000  1.0 0.1009609352
H  H209  1  0.53502000  0.26318000  0.55877000  1.0 0.1009609352
H  H210  1  0.89247000  0.55830000  0.83948000  1.0 0.2289180696
H  H211  1  0.03976000  0.66825000  0.91874000  1.0 0.0378582567
H  H212  1  0.13154000  0.77571000  0.04620000  1.0 0.058514024
H  H213  1  0.00160000  0.72671000  0.93821000  1.0 0.058514024
H  H214  1  0.90090000  0.60347000  0.85626000  1.0 0.1106092671
H  H215  1  0.99301000  0.71131000  0.98417000  1.0 0.1009609352
H  H216  1  0.60636000  0.11911000  0.92921000  1.0 0.1181331192
H  H217  1  0.70680000  0.08167000  0.04202000  1.0 0.1367569146
H  H218  1  0.81080000  0.13997000  0.05500000  1.0 0.1451893314
H  H219  1  0.80974000  0.18426000  0.99996000  1.0 0.1009609352
H  H220  1  0.29073000  0.88417000  0.66267000  1.0 0.1181331192
H  H221  1  0.00018000  0.55657000  0.40931000  1.0 0.128580751
H  H222  1  0.97238000  0.51022000  0.29521000  1.0 0.1181331192
H  H223  1  0.10079000  0.65142000  0.36298000  1.0 0.1106092671
H  H224  1  0.24927000  0.67401000  0.33349000  1.0 0.1181331192
H  H225  1  0.41005000  0.85806000  0.37118000  1.0 0.1181331192
H  H226  1  0.58007000  0.98569000  0.54691000  1.0 0.128580751
H  H227  1  0.58396000  0.95961000  0.61551000  1.0 0.1181331192
H  H228  1  0.70646000  0.22039000  0.94421000  1.0 0.1181331192
H  H229  1  0.75143000  0.20492000  0.93274000  1.0 0.1009609352
H  H230  1  0.25101000  0.84295000  0.50063000  1.0 0.1181331192
H  H231  1  0.32299000  0.93600000  0.61865000  1.0 0.1106092671
H  H232  1  0.48105000  0.83202000  0.57698000  1.0 0.128580751
H  H233  1  0.34828000  0.72717000  0.47044000  1.0 0.1181331192
H  H234  1  0.50854000  0.06697000  0.78103000  1.0 0.1181331192
H  H235  1  0.28644000  0.76841000  0.47325000  1.0 0.1181331192
H  H236  1  0.61339000  0.01135000  0.75490000  1.0 0.128580751
H  H237  1  0.78010000  0.07184000  0.18169000  1.0 0.0472898936
H  H238  1  0.71678000  0.96643000  0.08053000  1.0 0.0378582567
H  H239  1  0.90277000  0.12551000  0.22307000  1.0 0.087315209
H  H240  1  0.83399000  0.07223000  0.11685000  1.0 0.058514024
H  H241  1  0.89865000  0.17990000  0.22017000  1.0 0.1009609352
H  H242  1  0.59093000  0.90600000  0.07937000  1.0 0.3136793936
H  H243  1  0.55243000  0.90907000  0.09791000  1.0 0.3216012582
H  H244  1  0.84966000  0.22309000  0.27763000  1.0 0.3337194934
H  H245  1  0.83180000  0.26333000  0.27840000  1.0 0.3337194934
H  H246  1  0.41201000  0.68866000  0.73556000  1.0 0.0721737906
H  H247  1  0.47203000  0.71932000  0.73014000  1.0 0.087315209
H  H248  1  0.51037000  0.88700000  0.82304000  1.0 0.1106092671
H  H249  1  0.40874000  0.86088000  0.71714000  1.0 0.1009609352
H  H250  1  0.23434000  0.68370000  0.52019000  1.0 0.087315209
H  H251  1  0.16156000  0.53265000  0.42913000  1.0 0.1009609352
H  H252  1  0.26318000  0.55877000  0.53502000  1.0 0.1009609352
H  H253  1  0.55830000  0.83948000  0.89247000  1.0 0.2289180696
H  H254  1  0.66825000  0.91874000  0.03976000  1.0 0.0378582567
H  H255  1  0.77571000  0.04620000  0.13154000  1.0 0.058514024
H  H256  1  0.72671000  0.93821000  0.00160000  1.0 0.058514024
H  H257  1  0.60347000  0.85626000  0.90090000  1.0 0.1106092671
H  H258  1  0.71131000  0.98417000  0.99301000  1.0 0.1009609352
C  C1  1  0.94310000  0.02814000  0.42736000  1.0 0.6045500204
C  C2  1  0.87776000  0.04596000  0.35248000  1.0 -0.0083904006
C  C3  1  0.90445000  0.01622000  0.35433000  1.0 -0.05378144
C  C4  1  0.89880000  0.97840000  0.29220000  1.0 -0.0610730144
C  C5  1  0.86570000  0.97190000  0.23250000  1.0 -0.1309079141
C  C6  1  0.83890000  0.00410000  0.23250000  1.0 -0.08822924
C  C7  1  0.23879000  0.37291000  0.82940000  1.0 0.567580458
C  C8  1  0.19295000  0.41366000  0.77599000  1.0 -0.05378144
C  C9  1  0.27401000  0.45223000  0.85136000  1.0 -0.0610730144
C  C10  1  0.38572000  0.56240000  0.94628000  1.0 -0.0963202439
C  C11  1  0.41290000  0.62950000  0.96300000  1.0 -0.1514222272
C  C12  1  0.32960000  0.58940000  0.88690000  1.0 -0.0668167308
C  C13  1  0.33730000  0.78335000  0.79985000  1.0 0.6232065126
C  C14  1  0.26234000  0.62344000  0.68342000  1.0 -0.0257861712
C  C15  1  0.25080000  0.66833000  0.68967000  1.0 -0.0610730144
C  C16  1  0.15410000  0.60170000  0.58840000  1.0 -0.0610730144
C  C17  1  0.07830000  0.49760000  0.48840000  1.0 -0.1173858305
C  C18  1  0.09360000  0.45700000  0.48610000  1.0 -0.0365985538
C  C19  1  0.82980000  0.08752000  0.30548000  1.0 -0.2400932099
C  C20  1  0.12829000  0.43655000  0.71006000  1.0 -0.2318272502
C  C21  1  0.19340000  0.46920000  0.57900000  1.0 -0.2121918535
C  C22  1  0.94410000  0.21369000  0.42261000  1.0 0.1367569146
C  C23  1  0.98111000  0.26409000  0.50770000  1.0 -0.2471418962
C  C24  1  0.08884000  0.38116000  0.61800000  1.0 0.1106092671
C  C25  1  0.15870000  0.44721000  0.63959000  1.0 -0.2318272502
C  C26  1  0.12160000  0.39720000  0.55540000  1.0 0.128580751
C  C27  1  0.01390000  0.27954000  0.44506000  1.0 -0.2400932099
C  C28  1  0.97050000  0.88400000  0.25280000  1.0 -0.0083904006
C  C29  1  0.89070000  0.82550000  0.14420000  1.0 -0.3403204218
C  C30  1  0.25910000  0.24590000  0.54100000  1.0 -0.0365985538
C  C31  1  0.27490000  0.31120000  0.60390000  1.0 0.0472898936
C  C32  1  0.18450000  0.25650000  0.56000000  1.0 -0.1514222272
C  C33  1  0.20080000  0.32010000  0.62110000  1.0 -0.1059782062
C  C34  1  0.30540000  0.43650000  0.72410000  1.0 -0.1372833237
C  C35  1  0.39580000  0.49130000  0.76790000  1.0 -0.1059782062
C  C36  1  0.37950000  0.42760000  0.70690000  1.0 -0.1780755207
C  C37  1  0.03080000  0.94820000  0.30500000  1.0 -0.023783493
C  C38  1  0.06670000  0.01990000  0.31740000  1.0 -0.2559448838
C  C39  1  0.02814000  0.42736000  0.94310000  1.0 0.6045500204
C  C40  1  0.04596000  0.35248000  0.87776000  1.0 -0.0083904006
C  C41  1  0.01622000  0.35433000  0.90445000  1.0 -0.05378144
C  C42  1  0.97840000  0.29220000  0.89880000  1.0 -0.0610730144
C  C43  1  0.97190000  0.23250000  0.86570000  1.0 -0.1309079141
C  C44  1  0.00410000  0.23250000  0.83890000  1.0 -0.08822924
C  C45  1  0.37291000  0.82940000  0.23879000  1.0 0.567580458
C  C46  1  0.41366000  0.77599000  0.19295000  1.0 -0.05378144
C  C47  1  0.45223000  0.85136000  0.27401000  1.0 -0.0610730144
C  C48  1  0.56240000  0.94628000  0.38572000  1.0 -0.0963202439
C  C49  1  0.62950000  0.96300000  0.41290000  1.0 -0.1514222272
C  C50  1  0.58940000  0.88690000  0.32960000  1.0 -0.0668167308
C  C51  1  0.78335000  0.79985000  0.33730000  1.0 0.6232065126
C  C52  1  0.62344000  0.68342000  0.26234000  1.0 -0.0257861712
C  C53  1  0.66833000  0.68967000  0.25080000  1.0 -0.0610730144
C  C54  1  0.60170000  0.58840000  0.15410000  1.0 -0.0610730144
C  C55  1  0.49760000  0.48840000  0.07830000  1.0 -0.1173858305
C  C56  1  0.45700000  0.48610000  0.09360000  1.0 -0.0365985538
C  C57  1  0.08752000  0.30548000  0.82980000  1.0 -0.2400932099
C  C58  1  0.43655000  0.71006000  0.12829000  1.0 -0.2248683855
C  C59  1  0.46920000  0.57900000  0.19340000  1.0 -0.2121918535
C  C60  1  0.21369000  0.42261000  0.94410000  1.0 0.1367569146
C  C61  1  0.26409000  0.50770000  0.98111000  1.0 -0.2471418962
C  C62  1  0.38116000  0.61800000  0.08884000  1.0 0.1106092671
C  C63  1  0.44721000  0.63959000  0.15870000  1.0 -0.2318272502
C  C64  1  0.39720000  0.55540000  0.12160000  1.0 0.128580751
C  C65  1  0.27954000  0.44506000  0.01390000  1.0 -0.2400932099
C  C66  1  0.88400000  0.25280000  0.97050000  1.0 -0.0083904006
C  C67  1  0.82550000  0.14420000  0.89070000  1.0 -0.3403204218
C  C68  1  0.24590000  0.54100000  0.25910000  1.0 -0.0365985538
C  C69  1  0.31120000  0.60390000  0.27490000  1.0 0.0472898936
C  C70  1  0.25650000  0.56000000  0.18450000  1.0 -0.1514222272
C  C71  1  0.32010000  0.62110000  0.20080000  1.0 -0.1059782062
C  C72  1  0.43650000  0.72410000  0.30540000  1.0 -0.1372833237
C  C73  1  0.49130000  0.76790000  0.39580000  1.0 -0.1059782062
C  C74  1  0.42760000  0.70690000  0.37950000  1.0 -0.1780755207
C  C75  1  0.94820000  0.30500000  0.03080000  1.0 -0.023783493
C  C76  1  0.01990000  0.31740000  0.06670000  1.0 -0.2559448838
C  C77  1  0.42736000  0.94310000  0.02814000  1.0 0.6045500204
C  C78  1  0.35248000  0.87776000  0.04596000  1.0 -0.0083904006
C  C79  1  0.35433000  0.90445000  0.01622000  1.0 -0.05378144
C  C80  1  0.29220000  0.89880000  0.97840000  1.0 -0.0610730144
C  C81  1  0.23250000  0.86570000  0.97190000  1.0 -0.1309079141
C  C82  1  0.23250000  0.83890000  0.00410000  1.0 -0.08822924
C  C83  1  0.82940000  0.23879000  0.37291000  1.0 0.567580458
C  C84  1  0.77599000  0.19295000  0.41366000  1.0 -0.05378144
C  C85  1  0.85136000  0.27401000  0.45223000  1.0 -0.0610730144
C  C86  1  0.94628000  0.38572000  0.56240000  1.0 -0.0963202439
C  C87  1  0.96300000  0.41290000  0.62950000  1.0 -0.1514222272
C  C88  1  0.88690000  0.32960000  0.58940000  1.0 -0.0668167308
C  C89  1  0.79985000  0.33730000  0.78335000  1.0 0.6232065126
C  C90  1  0.68342000  0.26234000  0.62344000  1.0 -0.0257861712
C  C91  1  0.68967000  0.25080000  0.66833000  1.0 -0.0610730144
C  C92  1  0.58840000  0.15410000  0.60170000  1.0 -0.0610730144
C  C93  1  0.48840000  0.07830000  0.49760000  1.0 -0.1173858305
C  C94  1  0.48610000  0.09360000  0.45700000  1.0 -0.0365985538
C  C95  1  0.30548000  0.82980000  0.08752000  1.0 -0.2400932099
C  C96  1  0.71006000  0.12829000  0.43655000  1.0 -0.2248683855
C  C97  1  0.57900000  0.19340000  0.46920000  1.0 -0.2121918535
C  C98  1  0.42261000  0.94410000  0.21369000  1.0 0.1367569146
C  C99  1  0.50770000  0.98111000  0.26409000  1.0 -0.2471418962
C  C100  1  0.61800000  0.08884000  0.38116000  1.0 0.1106092671
C  C101  1  0.63959000  0.15870000  0.44721000  1.0 -0.2318272502
C  C102  1  0.55540000  0.12160000  0.39720000  1.0 0.128580751
C  C103  1  0.44506000  0.01390000  0.27954000  1.0 -0.2400932099
C  C104  1  0.25280000  0.97050000  0.88400000  1.0 -0.0083904006
C  C105  1  0.14420000  0.89070000  0.82550000  1.0 -0.3403204218
C  C106  1  0.54100000  0.25910000  0.24590000  1.0 -0.0365985538
C  C107  1  0.60390000  0.27490000  0.31120000  1.0 0.0472898936
C  C108  1  0.56000000  0.18450000  0.25650000  1.0 -0.1514222272
C  C109  1  0.62110000  0.20080000  0.32010000  1.0 -0.1059782062
C  C110  1  0.72410000  0.30540000  0.43650000  1.0 -0.1372833237
C  C111  1  0.76790000  0.39580000  0.49130000  1.0 -0.1059782062
C  C112  1  0.70690000  0.37950000  0.42760000  1.0 -0.1780755207
C  C113  1  0.30500000  0.03080000  0.94820000  1.0 -0.023783493
C  C114  1  0.31740000  0.06670000  0.01990000  1.0 -0.2559448838
C  C115  1  0.05690000  0.97186000  0.57264000  1.0 0.6045500204
C  C116  1  0.12224000  0.95404000  0.64752000  1.0 -0.0083904006
C  C117  1  0.09555000  0.98378000  0.64567000  1.0 -0.05378144
C  C118  1  0.10120000  0.02160000  0.70780000  1.0 -0.0610730144
C  C119  1  0.13430000  0.02810000  0.76750000  1.0 -0.1309079141
C  C120  1  0.16110000  0.99590000  0.76750000  1.0 -0.08822924
C  C121  1  0.76121000  0.62709000  0.17060000  1.0 0.567580458
C  C122  1  0.80705000  0.58634000  0.22401000  1.0 -0.05378144
C  C123  1  0.72599000  0.54777000  0.14864000  1.0 -0.0610730144
C  C124  1  0.61428000  0.43760000  0.05372000  1.0 -0.0963202439
C  C125  1  0.58710000  0.37050000  0.03700000  1.0 -0.1514222272
C  C126  1  0.67040000  0.41060000  0.11310000  1.0 -0.0668167308
C  C127  1  0.66270000  0.21665000  0.20015000  1.0 0.6232065126
C  C128  1  0.73766000  0.37656000  0.31658000  1.0 -0.0257861712
C  C129  1  0.74920000  0.33167000  0.31033000  1.0 -0.0610730144
C  C130  1  0.84590000  0.39830000  0.41160000  1.0 -0.0610730144
C  C131  1  0.92170000  0.50240000  0.51160000  1.0 -0.1173858305
C  C132  1  0.90640000  0.54300000  0.51390000  1.0 -0.0365985538
C  C133  1  0.17020000  0.91248000  0.69452000  1.0 -0.2400932099
C  C134  1  0.87171000  0.56345000  0.28994000  1.0 -0.2248683855
C  C135  1  0.80660000  0.53080000  0.42100000  1.0 -0.2121918535
C  C136  1  0.05590000  0.78631000  0.57739000  1.0 0.1367569146
C  C137  1  0.01889000  0.73591000  0.49230000  1.0 -0.2471418962
C  C138  1  0.91116000  0.61884000  0.38200000  1.0 0.1106092671
C  C139  1  0.84130000  0.55279000  0.36041000  1.0 -0.2318272502
C  C140  1  0.87840000  0.60280000  0.44460000  1.0 0.128580751
C  C141  1  0.98610000  0.72046000  0.55494000  1.0 -0.2400932099
C  C142  1  0.02950000  0.11600000  0.74720000  1.0 -0.0083904006
C  C143  1  0.10930000  0.17450000  0.85580000  1.0 -0.3403204218
C  C144  1  0.74090000  0.75410000  0.45900000  1.0 -0.0365985538
C  C145  1  0.72510000  0.68880000  0.39610000  1.0 0.0472898936
C  C146  1  0.81550000  0.74350000  0.44000000  1.0 -0.1514222272
C  C147  1  0.79920000  0.67990000  0.37890000  1.0 -0.1059782062
C  C148  1  0.69460000  0.56350000  0.27590000  1.0 -0.1372833237
C  C149  1  0.60420000  0.50870000  0.23210000  1.0 -0.1059782062
C  C150  1  0.62050000  0.57240000  0.29310000  1.0 -0.1780755207
C  C151  1  0.96920000  0.05180000  0.69500000  1.0 -0.023783493
C  C152  1  0.93330000  0.98010000  0.68260000  1.0 -0.2559448838
C  C153  1  0.97186000  0.57264000  0.05690000  1.0 0.6045500204
C  C154  1  0.95404000  0.64752000  0.12224000  1.0 -0.0083904006
C  C155  1  0.98378000  0.64567000  0.09555000  1.0 -0.05378144
C  C156  1  0.02160000  0.70780000  0.10120000  1.0 -0.0610730144
C  C157  1  0.02810000  0.76750000  0.13430000  1.0 -0.1309079141
C  C158  1  0.99590000  0.76750000  0.16110000  1.0 -0.08822924
C  C159  1  0.62709000  0.17060000  0.76121000  1.0 0.567580458
C  C160  1  0.58634000  0.22401000  0.80705000  1.0 -0.05378144
C  C161  1  0.54777000  0.14864000  0.72599000  1.0 -0.0610730144
C  C162  1  0.43760000  0.05372000  0.61428000  1.0 -0.0963202439
C  C163  1  0.37050000  0.03700000  0.58710000  1.0 -0.1514222272
C  C164  1  0.41060000  0.11310000  0.67040000  1.0 -0.0668167308
C  C165  1  0.21665000  0.20015000  0.66270000  1.0 0.6232065126
C  C166  1  0.37656000  0.31658000  0.73766000  1.0 -0.0257861712
C  C167  1  0.33167000  0.31033000  0.74920000  1.0 -0.0610730144
C  C168  1  0.39830000  0.41160000  0.84590000  1.0 -0.0610730144
C  C169  1  0.50240000  0.51160000  0.92170000  1.0 -0.1173858305
C  C170  1  0.54300000  0.51390000  0.90640000  1.0 -0.0365985538
C  C171  1  0.91248000  0.69452000  0.17020000  1.0 -0.2400932099
C  C172  1  0.56345000  0.28994000  0.87171000  1.0 -0.2248683855
C  C173  1  0.53080000  0.42100000  0.80660000  1.0 -0.2121918535
C  C174  1  0.78631000  0.57739000  0.05590000  1.0 0.1367569146
C  C175  1  0.73591000  0.49230000  0.01889000  1.0 -0.2471418962
C  C176  1  0.61884000  0.38200000  0.91116000  1.0 0.1106092671
C  C177  1  0.55279000  0.36041000  0.84130000  1.0 -0.2318272502
C  C178  1  0.60280000  0.44460000  0.87840000  1.0 0.128580751
C  C179  1  0.72046000  0.55494000  0.98610000  1.0 -0.2400932099
C  C180  1  0.11600000  0.74720000  0.02950000  1.0 -0.0083904006
C  C181  1  0.17450000  0.85580000  0.10930000  1.0 -0.3403204218
C  C182  1  0.75410000  0.45900000  0.74090000  1.0 -0.0365985538
C  C183  1  0.68880000  0.39610000  0.72510000  1.0 0.0472898936
C  C184  1  0.74350000  0.44000000  0.81550000  1.0 -0.1514222272
C  C185  1  0.67990000  0.37890000  0.79920000  1.0 -0.1059782062
C  C186  1  0.56350000  0.27590000  0.69460000  1.0 -0.1372833237
C  C187  1  0.50870000  0.23210000  0.60420000  1.0 -0.1059782062
C  C188  1  0.57240000  0.29310000  0.62050000  1.0 -0.1780755207
C  C189  1  0.05180000  0.69500000  0.96920000  1.0 -0.023783493
C  C190  1  0.98010000  0.68260000  0.93330000  1.0 -0.2559448838
C  C191  1  0.57264000  0.05690000  0.97186000  1.0 0.6045500204
C  C192  1  0.64752000  0.12224000  0.95404000  1.0 -0.0083904006
C  C193  1  0.64567000  0.09555000  0.98378000  1.0 -0.05378144
C  C194  1  0.70780000  0.10120000  0.02160000  1.0 -0.0610730144
C  C195  1  0.76750000  0.13430000  0.02810000  1.0 -0.1309079141
C  C196  1  0.76750000  0.16110000  0.99590000  1.0 -0.08822924
C  C197  1  0.17060000  0.76121000  0.62709000  1.0 0.567580458
C  C198  1  0.22401000  0.80705000  0.58634000  1.0 -0.05378144
C  C199  1  0.14864000  0.72599000  0.54777000  1.0 -0.0610730144
C  C200  1  0.05372000  0.61428000  0.43760000  1.0 -0.0963202439
C  C201  1  0.03700000  0.58710000  0.37050000  1.0 -0.1514222272
C  C202  1  0.11310000  0.67040000  0.41060000  1.0 -0.0668167308
C  C203  1  0.20015000  0.66270000  0.21665000  1.0 0.6232065126
C  C204  1  0.31658000  0.73766000  0.37656000  1.0 -0.0257861712
C  C205  1  0.31033000  0.74920000  0.33167000  1.0 -0.0610730144
C  C206  1  0.41160000  0.84590000  0.39830000  1.0 -0.0610730144
C  C207  1  0.51160000  0.92170000  0.50240000  1.0 -0.1173858305
C  C208  1  0.51390000  0.90640000  0.54300000  1.0 -0.0365985538
C  C209  1  0.69452000  0.17020000  0.91248000  1.0 -0.2400932099
C  C210  1  0.28994000  0.87171000  0.56345000  1.0 -0.2318272502
C  C211  1  0.42100000  0.80660000  0.53080000  1.0 -0.2121918535
C  C212  1  0.57739000  0.05590000  0.78631000  1.0 0.1367569146
C  C213  1  0.49230000  0.01889000  0.73591000  1.0 -0.2471418962
C  C214  1  0.38200000  0.91116000  0.61884000  1.0 0.1106092671
C  C215  1  0.36041000  0.84130000  0.55279000  1.0 -0.2318272502
C  C216  1  0.44460000  0.87840000  0.60280000  1.0 0.128580751
C  C217  1  0.55494000  0.98610000  0.72046000  1.0 -0.2400932099
C  C218  1  0.74720000  0.02950000  0.11600000  1.0 -0.0083904006
C  C219  1  0.85580000  0.10930000  0.17450000  1.0 -0.3403204218
C  C220  1  0.45900000  0.74090000  0.75410000  1.0 -0.0365985538
C  C221  1  0.39610000  0.72510000  0.68880000  1.0 0.0472898936
C  C222  1  0.44000000  0.81550000  0.74350000  1.0 -0.1514222272
C  C223  1  0.37890000  0.79920000  0.67990000  1.0 -0.1059782062
C  C224  1  0.27590000  0.69460000  0.56350000  1.0 -0.1372833237
C  C225  1  0.23210000  0.60420000  0.50870000  1.0 -0.1059782062
C  C226  1  0.29310000  0.62050000  0.57240000  1.0 -0.1780755207
C  C227  1  0.69500000  0.96920000  0.05180000  1.0 -0.023783493
C  C228  1  0.68260000  0.93330000  0.98010000  1.0 -0.2559448838
N  N1  1  0.84705000  0.04136000  0.29449000  1.0 0.1106092671
N  N2  1  0.21973000  0.48112000  0.79395000  1.0 0.0773599702
N  N3  1  0.18507000  0.52010000  0.58383000  1.0 0.0773599702
N  N4  1  0.04136000  0.29449000  0.84705000  1.0 0.1106092671
N  N5  1  0.48112000  0.79395000  0.21973000  1.0 0.0773599702
N  N6  1  0.52010000  0.58383000  0.18507000  1.0 0.0773599702
N  N7  1  0.29449000  0.84705000  0.04136000  1.0 0.1106092671
N  N8  1  0.79395000  0.21973000  0.48112000  1.0 0.0773599702
N  N9  1  0.58383000  0.18507000  0.52010000  1.0 0.0773599702
N  N10  1  0.15295000  0.95864000  0.70551000  1.0 0.1106092671
N  N11  1  0.78027000  0.51888000  0.20605000  1.0 0.0773599702
N  N12  1  0.81493000  0.47990000  0.41617000  1.0 0.0773599702
N  N13  1  0.95864000  0.70551000  0.15295000  1.0 0.1106092671
N  N14  1  0.51888000  0.20605000  0.78027000  1.0 0.0773599702
N  N15  1  0.47990000  0.41617000  0.81493000  1.0 0.0773599702
N  N16  1  0.70551000  0.15295000  0.95864000  1.0 0.1106092671
N  N17  1  0.20605000  0.78027000  0.51888000  1.0 0.0773599702
N  N18  1  0.41617000  0.81493000  0.47990000  1.0 0.0773599702
O  O1  1  0.95636000  0.98981000  0.41913000  1.0 -0.6329184706
O  O2  1  0.95742000  0.07442000  0.48766000  1.0 -0.5935057933
O  O3  1  0.13626000  0.27455000  0.73929000  1.0 -0.651025865
O  O4  1  0.31820000  0.41614000  0.90656000  1.0 -0.5935057933
O  O5  1  0.41122000  0.83047000  0.88551000  1.0 -0.6356444493
O  O6  1  0.33102000  0.82479000  0.79919000  1.0 -0.6356444493
O  O7  1  0.03280000  0.96840000  0.36380000  1.0 -0.4789325233
O  O8  1  0.10686000  0.94446000  0.45588000  1.0 -0.773072584
O  O9  1  0.79620000  0.76900000  0.19830000  1.0 -0.7811470166
O  O10  1  0.15790000  0.13760000  0.44450000  1.0 -0.2121918535
O  O11  1  0.98981000  0.41913000  0.95636000  1.0 -0.6329184706
O  O12  1  0.07442000  0.48766000  0.95742000  1.0 -0.5935057933
O  O13  1  0.27455000  0.73929000  0.13626000  1.0 -0.651025865
O  O14  1  0.41614000  0.90656000  0.31820000  1.0 -0.5935057933
O  O15  1  0.83047000  0.88551000  0.41122000  1.0 -0.6356444493
O  O16  1  0.82479000  0.79919000  0.33102000  1.0 -0.6356444493
O  O17  1  0.96840000  0.36380000  0.03280000  1.0 -0.4789325233
O  O18  1  0.94446000  0.45588000  0.10686000  1.0 -0.773072584
O  O19  1  0.76900000  0.19830000  0.79620000  1.0 -0.7811470166
O  O20  1  0.13760000  0.44450000  0.15790000  1.0 -0.2121918535
O  O21  1  0.41913000  0.95636000  0.98981000  1.0 -0.6329184706
O  O22  1  0.48766000  0.95742000  0.07442000  1.0 -0.5935057933
O  O23  1  0.73929000  0.13626000  0.27455000  1.0 -0.651025865
O  O24  1  0.90656000  0.31820000  0.41614000  1.0 -0.5935057933
O  O25  1  0.88551000  0.41122000  0.83047000  1.0 -0.6356444493
O  O26  1  0.79919000  0.33102000  0.82479000  1.0 -0.6356444493
O  O27  1  0.36380000  0.03280000  0.96840000  1.0 -0.4789325233
O  O28  1  0.45588000  0.10686000  0.94446000  1.0 -0.773072584
O  O29  1  0.19830000  0.79620000  0.76900000  1.0 -0.7811470166
O  O30  1  0.44450000  0.15790000  0.13760000  1.0 -0.2121918535
O  O31  1  0.04364000  0.01019000  0.58087000  1.0 -0.6329184706
O  O32  1  0.04258000  0.92558000  0.51234000  1.0 -0.5935057933
O  O33  1  0.86374000  0.72545000  0.26071000  1.0 -0.651025865
O  O34  1  0.68180000  0.58386000  0.09344000  1.0 -0.5935057933
O  O35  1  0.58878000  0.16953000  0.11449000  1.0 -0.6356444493
O  O36  1  0.66898000  0.17521000  0.20081000  1.0 -0.6356444493
O  O37  1  0.96720000  0.03160000  0.63620000  1.0 -0.4789325233
O  O38  1  0.89314000  0.05554000  0.54412000  1.0 -0.773072584
O  O39  1  0.20380000  0.23100000  0.80170000  1.0 -0.7811470166
O  O40  1  0.84210000  0.86240000  0.55550000  1.0 -0.2121918535
O  O41  1  0.01019000  0.58087000  0.04364000  1.0 -0.6329184706
O  O42  1  0.92558000  0.51234000  0.04258000  1.0 -0.5935057933
O  O43  1  0.72545000  0.26071000  0.86374000  1.0 -0.651025865
O  O44  1  0.58386000  0.09344000  0.68180000  1.0 -0.5935057933
O  O45  1  0.16953000  0.11449000  0.58878000  1.0 -0.6356444493
O  O46  1  0.17521000  0.20081000  0.66898000  1.0 -0.6356444493
O  O47  1  0.03160000  0.63620000  0.96720000  1.0 -0.4789325233
O  O48  1  0.05554000  0.54412000  0.89314000  1.0 -0.773072584
O  O49  1  0.23100000  0.80170000  0.20380000  1.0 -0.7811470166
O  O50  1  0.86240000  0.55550000  0.84210000  1.0 -0.2121918535
O  O51  1  0.58087000  0.04364000  0.01019000  1.0 -0.6329184706
O  O52  1  0.51234000  0.04258000  0.92558000  1.0 -0.5935057933
O  O53  1  0.26071000  0.86374000  0.72545000  1.0 -0.651025865
O  O54  1  0.09344000  0.68180000  0.58386000  1.0 -0.5935057933
O  O55  1  0.11449000  0.58878000  0.16953000  1.0 -0.6356444493
O  O56  1  0.20081000  0.66898000  0.17521000  1.0 -0.6356444493
O  O57  1  0.63620000  0.96720000  0.03160000  1.0 -0.4789325233
O  O58  1  0.54412000  0.89314000  0.05554000  1.0 -0.773072584
O  O59  1  0.80170000  0.20380000  0.23100000  1.0 -0.7811470166
O  O60  1  0.55550000  0.84210000  0.86240000  1.0 -0.2121918535
