# DDEC6 charges by PACMAN v1.1 (https://github.com/mtap-research/PACMAN-charge/)
data_BAXREY_FSR_pacman
_symmetry_space_group_name_H-M   'P 1'
_cell_length_a   20.89200000
_cell_length_b   21.16200000
_cell_length_c   32.34900000
_cell_angle_alpha   90.00000000
_cell_angle_beta   90.00000000
_cell_angle_gamma   90.00000000
_symmetry_Int_Tables_number   1
_chemical_formula_structural   Cu10H140W3C84(N17O15)2
_chemical_formula_sum   'Cu40 H560 W12 C336 N136 O120'
_cell_volume   14302.02678790
_cell_formula_units_Z   4
loop_
 _symmetry_equiv_pos_site_id
 _symmetry_equiv_pos_as_xyz
  1  'x, y, z'
loop_
 _atom_site_type_symbol
 _atom_site_label
 _atom_site_symmetry_multiplicity
 _atom_site_fract_x
 _atom_site_fract_y
 _atom_site_fract_z
 _atom_site_occupancy
 _atom_site_charge
Cu  Cu1  1  0.72052000  0.27219000  0.26953000  1.0 0.7491060849
Cu  Cu2  1  0.22052000  0.22781000  0.76953000  1.0 0.7491060849
Cu  Cu3  1  0.22052000  0.27219000  0.23047000  1.0 0.7491060849
Cu  Cu4  1  0.27948000  0.77219000  0.26953000  1.0 0.7491060849
Cu  Cu5  1  0.27948000  0.72781000  0.73047000  1.0 0.7491060849
Cu  Cu6  1  0.77948000  0.77219000  0.23047000  1.0 0.7491060849
Cu  Cu7  1  0.77948000  0.72781000  0.76953000  1.0 0.7491060849
Cu  Cu8  1  0.72052000  0.22781000  0.73047000  1.0 0.7491060849
Cu  Cu9  1  0.76130000  0.64430000  0.26126000  1.0 0.7606689836
Cu  Cu10  1  0.26130000  0.85570000  0.76126000  1.0 0.7606689836
Cu  Cu11  1  0.26130000  0.64430000  0.23874000  1.0 0.7606689836
Cu  Cu12  1  0.23870000  0.14430000  0.26126000  1.0 0.7606689836
Cu  Cu13  1  0.23870000  0.35570000  0.73874000  1.0 0.7606689836
Cu  Cu14  1  0.73870000  0.14430000  0.23874000  1.0 0.7606689836
Cu  Cu15  1  0.73870000  0.35570000  0.76126000  1.0 0.7606689836
Cu  Cu16  1  0.76130000  0.85570000  0.73874000  1.0 0.7606689836
Cu  Cu17  1  0.44265000  0.63274000  0.34867000  1.0 0.7491060849
Cu  Cu18  1  0.94265000  0.86726000  0.84867000  1.0 0.7491060849
Cu  Cu19  1  0.94265000  0.63274000  0.15133000  1.0 0.7491060849
Cu  Cu20  1  0.55735000  0.13274000  0.34867000  1.0 0.7491060849
Cu  Cu21  1  0.55735000  0.36726000  0.65133000  1.0 0.7491060849
Cu  Cu22  1  0.05735000  0.13274000  0.15133000  1.0 0.7491060849
Cu  Cu23  1  0.05735000  0.36726000  0.84867000  1.0 0.7491060849
Cu  Cu24  1  0.44265000  0.86726000  0.65133000  1.0 0.7491060849
Cu  Cu25  1  0.32413000  0.62904000  0.39623000  1.0 0.7185533251
Cu  Cu26  1  0.82413000  0.87096000  0.89623000  1.0 0.7185533251
Cu  Cu27  1  0.82413000  0.62904000  0.10377000  1.0 0.7185533251
Cu  Cu28  1  0.67587000  0.12904000  0.39623000  1.0 0.7185533251
Cu  Cu29  1  0.67587000  0.37096000  0.60377000  1.0 0.7185533251
Cu  Cu30  1  0.17587000  0.12904000  0.10377000  1.0 0.7185533251
Cu  Cu31  1  0.17587000  0.37096000  0.89623000  1.0 0.7185533251
Cu  Cu32  1  0.32413000  0.87096000  0.60377000  1.0 0.7185533251
Cu  Cu33  1  0.02960000  0.94578000  0.47991000  1.0 0.7283969056
Cu  Cu34  1  0.52960000  0.55422000  0.97991000  1.0 0.7283969056
Cu  Cu35  1  0.52960000  0.94578000  0.02009000  1.0 0.7283969056
Cu  Cu36  1  0.97040000  0.44578000  0.47991000  1.0 0.7283969056
Cu  Cu37  1  0.97040000  0.05422000  0.52009000  1.0 0.7283969056
Cu  Cu38  1  0.47040000  0.44578000  0.02009000  1.0 0.7283969056
Cu  Cu39  1  0.47040000  0.05422000  0.97991000  1.0 0.7283969056
Cu  Cu40  1  0.02960000  0.55422000  0.52009000  1.0 0.7283969056
H  H1  1  0.76230000  0.32500000  0.19440000  1.0 0.3446626495
H  H2  1  0.26230000  0.17500000  0.69440000  1.0 0.3446626495
H  H3  1  0.26230000  0.32500000  0.30560000  1.0 0.3446626495
H  H4  1  0.23770000  0.82500000  0.19440000  1.0 0.3446626495
H  H5  1  0.23770000  0.67500000  0.80560000  1.0 0.3446626495
H  H6  1  0.73770000  0.82500000  0.30560000  1.0 0.3446626495
H  H7  1  0.73770000  0.67500000  0.69440000  1.0 0.3446626495
H  H8  1  0.76230000  0.17500000  0.80560000  1.0 0.3446626495
H  H9  1  0.67010000  0.23950000  0.34330000  1.0 0.3273876244
H  H10  1  0.17010000  0.26050000  0.84330000  1.0 0.3273876244
H  H11  1  0.17010000  0.23950000  0.15670000  1.0 0.3273876244
H  H12  1  0.32990000  0.73950000  0.34330000  1.0 0.3273876244
H  H13  1  0.32990000  0.76050000  0.65670000  1.0 0.3273876244
H  H14  1  0.82990000  0.73950000  0.15670000  1.0 0.3273876244
H  H15  1  0.82990000  0.76050000  0.84330000  1.0 0.3273876244
H  H16  1  0.67010000  0.26050000  0.65670000  1.0 0.3273876244
H  H17  1  0.66320000  0.08420000  0.29630000  1.0 0.3273876244
H  H18  1  0.16320000  0.41580000  0.79630000  1.0 0.3273876244
H  H19  1  0.16320000  0.08420000  0.20370000  1.0 0.3273876244
H  H20  1  0.33680000  0.58420000  0.29630000  1.0 0.3273876244
H  H21  1  0.33680000  0.91580000  0.70370000  1.0 0.3273876244
H  H22  1  0.83680000  0.58420000  0.20370000  1.0 0.3273876244
H  H23  1  0.83680000  0.91580000  0.79630000  1.0 0.3273876244
H  H24  1  0.66320000  0.41580000  0.70370000  1.0 0.3273876244
H  H25  1  0.79600000  0.22400000  0.18060000  1.0 0.3141812589
H  H26  1  0.29600000  0.27600000  0.68060000  1.0 0.3141812589
H  H27  1  0.29600000  0.22400000  0.31940000  1.0 0.3141812589
H  H28  1  0.20400000  0.72400000  0.18060000  1.0 0.3141812589
H  H29  1  0.20400000  0.77600000  0.81940000  1.0 0.3141812589
H  H30  1  0.70400000  0.72400000  0.31940000  1.0 0.3141812589
H  H31  1  0.70400000  0.77600000  0.68060000  1.0 0.3141812589
H  H32  1  0.79600000  0.27600000  0.81940000  1.0 0.3141812589
H  H33  1  0.39800000  0.69880000  0.28140000  1.0 0.3273876244
H  H34  1  0.89800000  0.80120000  0.78140000  1.0 0.3273876244
H  H35  1  0.89800000  0.69880000  0.21860000  1.0 0.3273876244
H  H36  1  0.60200000  0.19880000  0.28140000  1.0 0.3273876244
H  H37  1  0.60200000  0.30120000  0.71860000  1.0 0.3273876244
H  H38  1  0.10200000  0.19880000  0.21860000  1.0 0.3273876244
H  H39  1  0.10200000  0.30120000  0.78140000  1.0 0.3273876244
H  H40  1  0.39800000  0.80120000  0.71860000  1.0 0.3273876244
H  H41  1  0.47780000  0.58150000  0.42760000  1.0 0.3493274525
H  H42  1  0.97780000  0.91850000  0.92760000  1.0 0.3493274525
H  H43  1  0.97780000  0.58150000  0.07240000  1.0 0.3493274525
H  H44  1  0.52220000  0.08150000  0.42760000  1.0 0.3493274525
H  H45  1  0.52220000  0.41850000  0.57240000  1.0 0.3493274525
H  H46  1  0.02220000  0.08150000  0.07240000  1.0 0.3493274525
H  H47  1  0.02220000  0.41850000  0.92760000  1.0 0.3493274525
H  H48  1  0.47780000  0.91850000  0.57240000  1.0 0.3493274525
H  H49  1  0.37320000  0.59080000  0.44190000  1.0 0.2742752041
H  H50  1  0.87320000  0.90920000  0.94190000  1.0 0.2742752041
H  H51  1  0.87320000  0.59080000  0.05810000  1.0 0.2742752041
H  H52  1  0.62680000  0.09080000  0.44190000  1.0 0.2742752041
H  H53  1  0.62680000  0.40920000  0.55810000  1.0 0.2742752041
H  H54  1  0.12680000  0.09080000  0.05810000  1.0 0.2742752041
H  H55  1  0.12680000  0.40920000  0.94190000  1.0 0.2742752041
H  H56  1  0.37320000  0.90920000  0.55810000  1.0 0.2742752041
H  H57  1  0.24790000  0.65490000  0.33140000  1.0 0.3273876244
H  H58  1  0.74790000  0.84510000  0.83140000  1.0 0.3273876244
H  H59  1  0.74790000  0.65490000  0.16860000  1.0 0.3273876244
H  H60  1  0.75210000  0.15490000  0.33140000  1.0 0.3273876244
H  H61  1  0.75210000  0.34510000  0.66860000  1.0 0.3273876244
H  H62  1  0.25210000  0.15490000  0.16860000  1.0 0.3273876244
H  H63  1  0.25210000  0.34510000  0.83140000  1.0 0.3273876244
H  H64  1  0.24790000  0.84510000  0.66860000  1.0 0.3273876244
H  H65  1  0.95560000  0.88720000  0.47270000  1.0 0.2971186247
H  H66  1  0.45560000  0.61280000  0.97270000  1.0 0.2971186247
H  H67  1  0.45560000  0.88720000  0.02730000  1.0 0.2971186247
H  H68  1  0.04440000  0.38720000  0.47270000  1.0 0.2971186247
H  H69  1  0.04440000  0.11280000  0.52730000  1.0 0.2971186247
H  H70  1  0.54440000  0.38720000  0.02730000  1.0 0.2971186247
H  H71  1  0.54440000  0.11280000  0.97270000  1.0 0.2971186247
H  H72  1  0.95560000  0.61280000  0.52730000  1.0 0.2971186247
H  H73  1  0.16090000  0.95470000  0.46760000  1.0 0.3493274525
H  H74  1  0.66090000  0.54530000  0.96760000  1.0 0.3493274525
H  H75  1  0.66090000  0.95470000  0.03240000  1.0 0.3493274525
H  H76  1  0.83910000  0.45470000  0.46760000  1.0 0.3493274525
H  H77  1  0.83910000  0.04530000  0.53240000  1.0 0.3493274525
H  H78  1  0.33910000  0.45470000  0.03240000  1.0 0.3493274525
H  H79  1  0.33910000  0.04530000  0.96760000  1.0 0.3493274525
H  H80  1  0.16090000  0.54530000  0.53240000  1.0 0.3493274525
H  H81  1  0.84790000  0.39860000  0.28090000  1.0 0.1296234248
H  H82  1  0.34790000  0.10140000  0.78090000  1.0 0.1296234248
H  H83  1  0.34790000  0.39860000  0.21910000  1.0 0.1296234248
H  H84  1  0.15210000  0.89860000  0.28090000  1.0 0.1296234248
H  H85  1  0.15210000  0.60140000  0.71910000  1.0 0.1296234248
H  H86  1  0.65210000  0.89860000  0.21910000  1.0 0.1296234248
H  H87  1  0.65210000  0.60140000  0.78090000  1.0 0.1296234248
H  H88  1  0.84790000  0.10140000  0.71910000  1.0 0.1296234248
H  H89  1  0.77770000  0.40520000  0.26440000  1.0 0.1296234248
H  H90  1  0.27770000  0.09480000  0.76440000  1.0 0.1296234248
H  H91  1  0.27770000  0.40520000  0.23560000  1.0 0.1296234248
H  H92  1  0.22230000  0.90520000  0.26440000  1.0 0.1296234248
H  H93  1  0.22230000  0.59480000  0.73560000  1.0 0.1296234248
H  H94  1  0.72230000  0.90520000  0.23560000  1.0 0.1296234248
H  H95  1  0.72230000  0.59480000  0.76440000  1.0 0.1296234248
H  H96  1  0.77770000  0.09480000  0.73560000  1.0 0.1296234248
H  H97  1  0.83780000  0.38610000  0.20930000  1.0 0.1107295438
H  H98  1  0.33780000  0.11390000  0.70930000  1.0 0.1107295438
H  H99  1  0.33780000  0.38610000  0.29070000  1.0 0.1107295438
H  H100  1  0.16220000  0.88610000  0.20930000  1.0 0.1107295438
H  H101  1  0.16220000  0.61390000  0.79070000  1.0 0.1107295438
H  H102  1  0.66220000  0.88610000  0.29070000  1.0 0.1107295438
H  H103  1  0.66220000  0.61390000  0.70930000  1.0 0.1107295438
H  H104  1  0.83780000  0.11390000  0.79070000  1.0 0.1107295438
H  H105  1  0.87370000  0.33030000  0.23130000  1.0 0.1107295438
H  H106  1  0.37370000  0.16970000  0.73130000  1.0 0.1107295438
H  H107  1  0.37370000  0.33030000  0.26870000  1.0 0.1107295438
H  H108  1  0.12630000  0.83030000  0.23130000  1.0 0.1107295438
H  H109  1  0.12630000  0.66970000  0.76870000  1.0 0.1107295438
H  H110  1  0.62630000  0.83030000  0.26870000  1.0 0.1107295438
H  H111  1  0.62630000  0.66970000  0.73130000  1.0 0.1107295438
H  H112  1  0.87370000  0.16970000  0.76870000  1.0 0.1107295438
H  H113  1  0.79840000  0.36640000  0.35190000  1.0 0.1296234248
H  H114  1  0.29840000  0.13360000  0.85190000  1.0 0.1296234248
H  H115  1  0.29840000  0.36640000  0.14810000  1.0 0.1296234248
H  H116  1  0.20160000  0.86640000  0.35190000  1.0 0.1296234248
H  H117  1  0.20160000  0.63360000  0.64810000  1.0 0.1296234248
H  H118  1  0.70160000  0.86640000  0.14810000  1.0 0.1296234248
H  H119  1  0.70160000  0.63360000  0.85190000  1.0 0.1296234248
H  H120  1  0.79840000  0.13360000  0.64810000  1.0 0.1296234248
H  H121  1  0.73690000  0.38490000  0.32690000  1.0 0.1296234248
H  H122  1  0.23690000  0.11510000  0.82690000  1.0 0.1296234248
H  H123  1  0.23690000  0.38490000  0.17310000  1.0 0.1296234248
H  H124  1  0.26310000  0.88490000  0.32690000  1.0 0.1296234248
H  H125  1  0.26310000  0.61510000  0.67310000  1.0 0.1296234248
H  H126  1  0.76310000  0.88490000  0.17310000  1.0 0.1296234248
H  H127  1  0.76310000  0.61510000  0.82690000  1.0 0.1296234248
H  H128  1  0.73690000  0.11510000  0.67310000  1.0 0.1296234248
H  H129  1  0.70700000  0.32750000  0.38210000  1.0 0.1296234248
H  H130  1  0.20700000  0.17250000  0.88210000  1.0 0.1296234248
H  H131  1  0.20700000  0.32750000  0.11790000  1.0 0.1296234248
H  H132  1  0.29300000  0.82750000  0.38210000  1.0 0.1296234248
H  H133  1  0.29300000  0.67250000  0.61790000  1.0 0.1296234248
H  H134  1  0.79300000  0.82750000  0.11790000  1.0 0.1296234248
H  H135  1  0.79300000  0.67250000  0.88210000  1.0 0.1296234248
H  H136  1  0.70700000  0.17250000  0.61790000  1.0 0.1296234248
H  H137  1  0.75470000  0.27320000  0.37030000  1.0 0.1107295438
H  H138  1  0.25470000  0.22680000  0.87030000  1.0 0.1107295438
H  H139  1  0.25470000  0.27320000  0.12970000  1.0 0.1107295438
H  H140  1  0.24530000  0.77320000  0.37030000  1.0 0.1107295438
H  H141  1  0.24530000  0.72680000  0.62970000  1.0 0.1107295438
H  H142  1  0.74530000  0.77320000  0.12970000  1.0 0.1107295438
H  H143  1  0.74530000  0.72680000  0.87030000  1.0 0.1107295438
H  H144  1  0.75470000  0.22680000  0.62970000  1.0 0.1107295438
H  H145  1  0.88470000  0.30120000  0.30240000  1.0 0.1296234248
H  H146  1  0.38470000  0.19880000  0.80240000  1.0 0.1296234248
H  H147  1  0.38470000  0.30120000  0.19760000  1.0 0.1296234248
H  H148  1  0.11530000  0.80120000  0.30240000  1.0 0.1296234248
H  H149  1  0.11530000  0.69880000  0.69760000  1.0 0.1296234248
H  H150  1  0.61530000  0.80120000  0.19760000  1.0 0.1296234248
H  H151  1  0.61530000  0.69880000  0.80240000  1.0 0.1296234248
H  H152  1  0.88470000  0.19880000  0.69760000  1.0 0.1296234248
H  H153  1  0.84440000  0.26750000  0.33700000  1.0 0.138244064
H  H154  1  0.34440000  0.23250000  0.83700000  1.0 0.138244064
H  H155  1  0.34440000  0.26750000  0.16300000  1.0 0.138244064
H  H156  1  0.15560000  0.76750000  0.33700000  1.0 0.138244064
H  H157  1  0.15560000  0.73250000  0.66300000  1.0 0.138244064
H  H158  1  0.65560000  0.76750000  0.16300000  1.0 0.138244064
H  H159  1  0.65560000  0.73250000  0.83700000  1.0 0.138244064
H  H160  1  0.84440000  0.23250000  0.66300000  1.0 0.138244064
H  H161  1  0.86600000  0.18740000  0.29030000  1.0 0.1204204878
H  H162  1  0.36600000  0.31260000  0.79030000  1.0 0.1204204878
H  H163  1  0.36600000  0.18740000  0.20970000  1.0 0.1204204878
H  H164  1  0.13400000  0.68740000  0.29030000  1.0 0.1204204878
H  H165  1  0.13400000  0.81260000  0.70970000  1.0 0.1204204878
H  H166  1  0.63400000  0.68740000  0.20970000  1.0 0.1204204878
H  H167  1  0.63400000  0.81260000  0.79030000  1.0 0.1204204878
H  H168  1  0.86600000  0.31260000  0.70970000  1.0 0.1204204878
H  H169  1  0.85050000  0.23090000  0.25230000  1.0 0.0893032454
H  H170  1  0.35050000  0.26910000  0.75230000  1.0 0.0893032454
H  H171  1  0.35050000  0.23090000  0.24770000  1.0 0.0893032454
H  H172  1  0.14950000  0.73090000  0.25230000  1.0 0.0893032454
H  H173  1  0.14950000  0.76910000  0.74770000  1.0 0.0893032454
H  H174  1  0.64950000  0.73090000  0.24770000  1.0 0.0893032454
H  H175  1  0.64950000  0.76910000  0.75230000  1.0 0.0893032454
H  H176  1  0.85050000  0.26910000  0.74770000  1.0 0.0893032454
H  H177  1  0.62790000  0.15490000  0.15280000  1.0 0.1204204878
H  H178  1  0.12790000  0.34510000  0.65280000  1.0 0.1204204878
H  H179  1  0.12790000  0.15490000  0.34720000  1.0 0.1204204878
H  H180  1  0.37210000  0.65490000  0.15280000  1.0 0.1204204878
H  H181  1  0.37210000  0.84510000  0.84720000  1.0 0.1204204878
H  H182  1  0.87210000  0.65490000  0.34720000  1.0 0.1204204878
H  H183  1  0.87210000  0.84510000  0.65280000  1.0 0.1204204878
H  H184  1  0.62790000  0.34510000  0.84720000  1.0 0.1204204878
H  H185  1  0.59390000  0.13390000  0.19400000  1.0 0.1296234248
H  H186  1  0.09390000  0.36610000  0.69400000  1.0 0.1296234248
H  H187  1  0.09390000  0.13390000  0.30600000  1.0 0.1296234248
H  H188  1  0.40610000  0.63390000  0.19400000  1.0 0.1296234248
H  H189  1  0.40610000  0.86610000  0.80600000  1.0 0.1296234248
H  H190  1  0.90610000  0.63390000  0.30600000  1.0 0.1296234248
H  H191  1  0.90610000  0.86610000  0.69400000  1.0 0.1296234248
H  H192  1  0.59390000  0.36610000  0.80600000  1.0 0.1296234248
H  H193  1  0.60820000  0.24190000  0.20290000  1.0 0.1204204878
H  H194  1  0.10820000  0.25810000  0.70290000  1.0 0.1204204878
H  H195  1  0.10820000  0.24190000  0.29710000  1.0 0.1204204878
H  H196  1  0.39180000  0.74190000  0.20290000  1.0 0.1204204878
H  H197  1  0.39180000  0.75810000  0.79710000  1.0 0.1204204878
H  H198  1  0.89180000  0.74190000  0.29710000  1.0 0.1204204878
H  H199  1  0.89180000  0.75810000  0.70290000  1.0 0.1204204878
H  H200  1  0.60820000  0.25810000  0.79710000  1.0 0.1204204878
H  H201  1  0.67830000  0.23960000  0.18510000  1.0 0.0799493068
H  H202  1  0.17830000  0.26040000  0.68510000  1.0 0.0799493068
H  H203  1  0.17830000  0.23960000  0.31490000  1.0 0.0799493068
H  H204  1  0.32170000  0.73960000  0.18510000  1.0 0.0799493068
H  H205  1  0.32170000  0.76040000  0.81490000  1.0 0.0799493068
H  H206  1  0.82170000  0.73960000  0.31490000  1.0 0.0799493068
H  H207  1  0.82170000  0.76040000  0.68510000  1.0 0.0799493068
H  H208  1  0.67830000  0.26040000  0.81490000  1.0 0.0799493068
H  H209  1  0.69530000  0.01420000  0.20290000  1.0 0.1296234248
H  H210  1  0.19530000  0.48580000  0.70290000  1.0 0.1296234248
H  H211  1  0.19530000  0.01420000  0.29710000  1.0 0.1296234248
H  H212  1  0.30470000  0.51420000  0.20290000  1.0 0.1296234248
H  H213  1  0.30470000  0.98580000  0.79710000  1.0 0.1296234248
H  H214  1  0.80470000  0.51420000  0.29710000  1.0 0.1296234248
H  H215  1  0.80470000  0.98580000  0.70290000  1.0 0.1296234248
H  H216  1  0.69530000  0.48580000  0.79710000  1.0 0.1296234248
H  H217  1  0.62800000  0.03280000  0.18500000  1.0 0.1204204878
H  H218  1  0.12800000  0.46720000  0.68500000  1.0 0.1204204878
H  H219  1  0.12800000  0.03280000  0.31500000  1.0 0.1204204878
H  H220  1  0.37200000  0.53280000  0.18500000  1.0 0.1204204878
H  H221  1  0.37200000  0.96720000  0.81500000  1.0 0.1204204878
H  H222  1  0.87200000  0.53280000  0.31500000  1.0 0.1204204878
H  H223  1  0.87200000  0.96720000  0.68500000  1.0 0.1204204878
H  H224  1  0.62800000  0.46720000  0.81500000  1.0 0.1204204878
H  H225  1  0.62080000  0.00470000  0.25420000  1.0 0.1107295438
H  H226  1  0.12080000  0.49530000  0.75420000  1.0 0.1107295438
H  H227  1  0.12080000  0.00470000  0.24580000  1.0 0.1107295438
H  H228  1  0.37920000  0.50470000  0.25420000  1.0 0.1107295438
H  H229  1  0.37920000  0.99530000  0.74580000  1.0 0.1107295438
H  H230  1  0.87920000  0.50470000  0.24580000  1.0 0.1107295438
H  H231  1  0.87920000  0.99530000  0.75420000  1.0 0.1107295438
H  H232  1  0.62080000  0.49530000  0.74580000  1.0 0.1107295438
H  H233  1  0.59790000  0.07450000  0.24720000  1.0 0.1107295438
H  H234  1  0.09790000  0.42550000  0.74720000  1.0 0.1107295438
H  H235  1  0.09790000  0.07450000  0.25280000  1.0 0.1107295438
H  H236  1  0.40210000  0.57450000  0.24720000  1.0 0.1107295438
H  H237  1  0.40210000  0.92550000  0.75280000  1.0 0.1107295438
H  H238  1  0.90210000  0.57450000  0.25280000  1.0 0.1107295438
H  H239  1  0.90210000  0.92550000  0.74720000  1.0 0.1107295438
H  H240  1  0.59790000  0.42550000  0.75280000  1.0 0.1107295438
H  H241  1  0.75980000  0.06950000  0.15790000  1.0 0.138244064
H  H242  1  0.25980000  0.43050000  0.65790000  1.0 0.138244064
H  H243  1  0.25980000  0.06950000  0.34210000  1.0 0.138244064
H  H244  1  0.24020000  0.56950000  0.15790000  1.0 0.138244064
H  H245  1  0.24020000  0.93050000  0.84210000  1.0 0.138244064
H  H246  1  0.74020000  0.56950000  0.34210000  1.0 0.138244064
H  H247  1  0.74020000  0.93050000  0.65790000  1.0 0.138244064
H  H248  1  0.75980000  0.43050000  0.84210000  1.0 0.138244064
H  H249  1  0.70220000  0.09150000  0.13030000  1.0 0.1107295438
H  H250  1  0.20220000  0.40850000  0.63030000  1.0 0.1107295438
H  H251  1  0.20220000  0.09150000  0.36970000  1.0 0.1107295438
H  H252  1  0.29780000  0.59150000  0.13030000  1.0 0.1107295438
H  H253  1  0.29780000  0.90850000  0.86970000  1.0 0.1107295438
H  H254  1  0.79780000  0.59150000  0.36970000  1.0 0.1107295438
H  H255  1  0.79780000  0.90850000  0.63030000  1.0 0.1107295438
H  H256  1  0.70220000  0.40850000  0.86970000  1.0 0.1107295438
H  H257  1  0.73290000  0.19640000  0.13590000  1.0 0.0799493068
H  H258  1  0.23290000  0.30360000  0.63590000  1.0 0.0799493068
H  H259  1  0.23290000  0.19640000  0.36410000  1.0 0.0799493068
H  H260  1  0.26710000  0.69640000  0.13590000  1.0 0.0799493068
H  H261  1  0.26710000  0.80360000  0.86410000  1.0 0.0799493068
H  H262  1  0.76710000  0.69640000  0.36410000  1.0 0.0799493068
H  H263  1  0.76710000  0.80360000  0.63590000  1.0 0.0799493068
H  H264  1  0.73290000  0.30360000  0.86410000  1.0 0.0799493068
H  H265  1  0.79390000  0.15810000  0.12230000  1.0 0.0893032454
H  H266  1  0.29390000  0.34190000  0.62230000  1.0 0.0893032454
H  H267  1  0.29390000  0.15810000  0.37770000  1.0 0.0893032454
H  H268  1  0.20610000  0.65810000  0.12230000  1.0 0.0893032454
H  H269  1  0.20610000  0.84190000  0.87770000  1.0 0.0893032454
H  H270  1  0.70610000  0.65810000  0.37770000  1.0 0.0893032454
H  H271  1  0.70610000  0.84190000  0.62230000  1.0 0.0893032454
H  H272  1  0.79390000  0.34190000  0.87770000  1.0 0.0893032454
H  H273  1  0.51270000  0.76580000  0.40400000  1.0 0.1107295438
H  H274  1  0.01270000  0.73420000  0.90400000  1.0 0.1107295438
H  H275  1  0.01270000  0.76580000  0.09600000  1.0 0.1107295438
H  H276  1  0.48730000  0.26580000  0.40400000  1.0 0.1107295438
H  H277  1  0.48730000  0.23420000  0.59600000  1.0 0.1107295438
H  H278  1  0.98730000  0.26580000  0.09600000  1.0 0.1107295438
H  H279  1  0.98730000  0.23420000  0.90400000  1.0 0.1107295438
H  H280  1  0.51270000  0.73420000  0.59600000  1.0 0.1107295438
H  H281  1  0.47170000  0.78660000  0.36560000  1.0 0.1296234248
H  H282  1  0.97170000  0.71340000  0.86560000  1.0 0.1296234248
H  H283  1  0.97170000  0.78660000  0.13440000  1.0 0.1296234248
H  H284  1  0.52830000  0.28660000  0.36560000  1.0 0.1296234248
H  H285  1  0.52830000  0.21340000  0.63440000  1.0 0.1296234248
H  H286  1  0.02830000  0.28660000  0.13440000  1.0 0.1296234248
H  H287  1  0.02830000  0.21340000  0.86560000  1.0 0.1296234248
H  H288  1  0.47170000  0.71340000  0.63440000  1.0 0.1296234248
H  H289  1  0.39900000  0.76360000  0.41370000  1.0 0.1296234248
H  H290  1  0.89900000  0.73640000  0.91370000  1.0 0.1296234248
H  H291  1  0.89900000  0.76360000  0.08630000  1.0 0.1296234248
H  H292  1  0.60100000  0.26360000  0.41370000  1.0 0.1296234248
H  H293  1  0.60100000  0.23640000  0.58630000  1.0 0.1296234248
H  H294  1  0.10100000  0.26360000  0.08630000  1.0 0.1296234248
H  H295  1  0.10100000  0.23640000  0.91370000  1.0 0.1296234248
H  H296  1  0.39900000  0.73640000  0.58630000  1.0 0.1296234248
H  H297  1  0.43600000  0.70300000  0.42800000  1.0 0.0893032454
H  H298  1  0.93600000  0.79700000  0.92800000  1.0 0.0893032454
H  H299  1  0.93600000  0.70300000  0.07200000  1.0 0.0893032454
H  H300  1  0.56400000  0.20300000  0.42800000  1.0 0.0893032454
H  H301  1  0.56400000  0.29700000  0.57200000  1.0 0.0893032454
H  H302  1  0.06400000  0.20300000  0.07200000  1.0 0.0893032454
H  H303  1  0.06400000  0.29700000  0.92800000  1.0 0.0893032454
H  H304  1  0.43600000  0.79700000  0.57200000  1.0 0.0893032454
H  H305  1  0.57930000  0.63300000  0.35820000  1.0 0.138244064
H  H306  1  0.07930000  0.86700000  0.85820000  1.0 0.1296234248
H  H307  1  0.07930000  0.63300000  0.14180000  1.0 0.1296234248
H  H308  1  0.42070000  0.13300000  0.35820000  1.0 0.138244064
H  H309  1  0.42070000  0.36700000  0.64180000  1.0 0.138244064
H  H310  1  0.92070000  0.13300000  0.14180000  1.0 0.1296234248
H  H311  1  0.92070000  0.36700000  0.85820000  1.0 0.138244064
H  H312  1  0.57930000  0.86700000  0.64180000  1.0 0.138244064
H  H313  1  0.60130000  0.69520000  0.38020000  1.0 0.1107295438
H  H314  1  0.10130000  0.80480000  0.88020000  1.0 0.1107295438
H  H315  1  0.10130000  0.69520000  0.11980000  1.0 0.1107295438
H  H316  1  0.39870000  0.19520000  0.38020000  1.0 0.1107295438
H  H317  1  0.39870000  0.30480000  0.61980000  1.0 0.1107295438
H  H318  1  0.89870000  0.19520000  0.11980000  1.0 0.1107295438
H  H319  1  0.89870000  0.30480000  0.88020000  1.0 0.1107295438
H  H320  1  0.60130000  0.80480000  0.61980000  1.0 0.1107295438
H  H321  1  0.53350000  0.66740000  0.43750000  1.0 0.0893032454
H  H322  1  0.03350000  0.83260000  0.93750000  1.0 0.0893032454
H  H323  1  0.03350000  0.66740000  0.06250000  1.0 0.0893032454
H  H324  1  0.46650000  0.16740000  0.43750000  1.0 0.0893032454
H  H325  1  0.46650000  0.33260000  0.56250000  1.0 0.0893032454
H  H326  1  0.96650000  0.16740000  0.06250000  1.0 0.0893032454
H  H327  1  0.96650000  0.33260000  0.93750000  1.0 0.0893032454
H  H328  1  0.53350000  0.83260000  0.56250000  1.0 0.0893032454
H  H329  1  0.58880000  0.61710000  0.43040000  1.0 0.1021178585
H  H330  1  0.08880000  0.88290000  0.93040000  1.0 0.1021178585
H  H331  1  0.08880000  0.61710000  0.06960000  1.0 0.1021178585
H  H332  1  0.41120000  0.11710000  0.43040000  1.0 0.1021178585
H  H333  1  0.41120000  0.38290000  0.56960000  1.0 0.1021178585
H  H334  1  0.91120000  0.11710000  0.06960000  1.0 0.1021178585
H  H335  1  0.91120000  0.38290000  0.93040000  1.0 0.1021178585
H  H336  1  0.58880000  0.88290000  0.56960000  1.0 0.1021178585
H  H337  1  0.55540000  0.68860000  0.30290000  1.0 0.1296234248
H  H338  1  0.05540000  0.81140000  0.80290000  1.0 0.1296234248
H  H339  1  0.05540000  0.68860000  0.19710000  1.0 0.1296234248
H  H340  1  0.44460000  0.18860000  0.30290000  1.0 0.1296234248
H  H341  1  0.44460000  0.31140000  0.69710000  1.0 0.1296234248
H  H342  1  0.94460000  0.18860000  0.19710000  1.0 0.1296234248
H  H343  1  0.94460000  0.31140000  0.80290000  1.0 0.1296234248
H  H344  1  0.55540000  0.81140000  0.69710000  1.0 0.1296234248
H  H345  1  0.55670000  0.75880000  0.31810000  1.0 0.1296234248
H  H346  1  0.05670000  0.74120000  0.81810000  1.0 0.1296234248
H  H347  1  0.05670000  0.75880000  0.18190000  1.0 0.1296234248
H  H348  1  0.44330000  0.25880000  0.31810000  1.0 0.1296234248
H  H349  1  0.44330000  0.24120000  0.68190000  1.0 0.1296234248
H  H350  1  0.94330000  0.25880000  0.18190000  1.0 0.1296234248
H  H351  1  0.94330000  0.24120000  0.81810000  1.0 0.1296234248
H  H352  1  0.55670000  0.74120000  0.68190000  1.0 0.1296234248
H  H353  1  0.49200000  0.74710000  0.26170000  1.0 0.1107295438
H  H354  1  0.99200000  0.75290000  0.76170000  1.0 0.1107295438
H  H355  1  0.99200000  0.74710000  0.23830000  1.0 0.1107295438
H  H356  1  0.50800000  0.24710000  0.26170000  1.0 0.1107295438
H  H357  1  0.50800000  0.25290000  0.73830000  1.0 0.1107295438
H  H358  1  0.00800000  0.24710000  0.23830000  1.0 0.1107295438
H  H359  1  0.00800000  0.25290000  0.76170000  1.0 0.1107295438
H  H360  1  0.49200000  0.75290000  0.73830000  1.0 0.1107295438
H  H361  1  0.45340000  0.77220000  0.29990000  1.0 0.1107295438
H  H362  1  0.95340000  0.72780000  0.79990000  1.0 0.1107295438
H  H363  1  0.95340000  0.77220000  0.20010000  1.0 0.1107295438
H  H364  1  0.54660000  0.27220000  0.29990000  1.0 0.1107295438
H  H365  1  0.54660000  0.22780000  0.70010000  1.0 0.1107295438
H  H366  1  0.04660000  0.27220000  0.20010000  1.0 0.1107295438
H  H367  1  0.04660000  0.22780000  0.79990000  1.0 0.1107295438
H  H368  1  0.45340000  0.72780000  0.70010000  1.0 0.1107295438
H  H369  1  0.27360000  0.49610000  0.35390000  1.0 0.1296234248
H  H370  1  0.77360000  0.00390000  0.85390000  1.0 0.1296234248
H  H371  1  0.77360000  0.49610000  0.14610000  1.0 0.1296234248
H  H372  1  0.72640000  0.99610000  0.35390000  1.0 0.1296234248
H  H373  1  0.72640000  0.50390000  0.64610000  1.0 0.1296234248
H  H374  1  0.22640000  0.99610000  0.14610000  1.0 0.1296234248
H  H375  1  0.22640000  0.50390000  0.85390000  1.0 0.1296234248
H  H376  1  0.27360000  0.00390000  0.64610000  1.0 0.1296234248
H  H377  1  0.30250000  0.45890000  0.39140000  1.0 0.1204204878
H  H378  1  0.80250000  0.04110000  0.89140000  1.0 0.1204204878
H  H379  1  0.80250000  0.45890000  0.10860000  1.0 0.1204204878
H  H380  1  0.69750000  0.95890000  0.39140000  1.0 0.1204204878
H  H381  1  0.69750000  0.54110000  0.60860000  1.0 0.1204204878
H  H382  1  0.19750000  0.95890000  0.10860000  1.0 0.1204204878
H  H383  1  0.19750000  0.54110000  0.89140000  1.0 0.1204204878
H  H384  1  0.30250000  0.04110000  0.60860000  1.0 0.1204204878
H  H385  1  0.39570000  0.50830000  0.38610000  1.0 0.0893032454
H  H386  1  0.89570000  0.99170000  0.88610000  1.0 0.0893032454
H  H387  1  0.89570000  0.50830000  0.11390000  1.0 0.0893032454
H  H388  1  0.60430000  0.00830000  0.38610000  1.0 0.0893032454
H  H389  1  0.60430000  0.49170000  0.61390000  1.0 0.0893032454
H  H390  1  0.10430000  0.00830000  0.11390000  1.0 0.0893032454
H  H391  1  0.10430000  0.49170000  0.88610000  1.0 0.0893032454
H  H392  1  0.39570000  0.99170000  0.61390000  1.0 0.0893032454
H  H393  1  0.37710000  0.48890000  0.34080000  1.0 0.1296234248
H  H394  1  0.87710000  0.01110000  0.84080000  1.0 0.1296234248
H  H395  1  0.87710000  0.48890000  0.15920000  1.0 0.1296234248
H  H396  1  0.62290000  0.98890000  0.34080000  1.0 0.1296234248
H  H397  1  0.62290000  0.51110000  0.65920000  1.0 0.1296234248
H  H398  1  0.12290000  0.98890000  0.15920000  1.0 0.1296234248
H  H399  1  0.12290000  0.51110000  0.84080000  1.0 0.1296234248
H  H400  1  0.37710000  0.01110000  0.65920000  1.0 0.1296234248
H  H401  1  0.26760000  0.56650000  0.46690000  1.0 0.1296234248
H  H402  1  0.76760000  0.93350000  0.96690000  1.0 0.1296234248
H  H403  1  0.76760000  0.56650000  0.03310000  1.0 0.1296234248
H  H404  1  0.73240000  0.06650000  0.46690000  1.0 0.1296234248
H  H405  1  0.73240000  0.43350000  0.53310000  1.0 0.1296234248
H  H406  1  0.23240000  0.06650000  0.03310000  1.0 0.1296234248
H  H407  1  0.23240000  0.43350000  0.96690000  1.0 0.1296234248
H  H408  1  0.26760000  0.93350000  0.53310000  1.0 0.1296234248
H  H409  1  0.25490000  0.49570000  0.45590000  1.0 0.1296234248
H  H410  1  0.75490000  0.00430000  0.95590000  1.0 0.1296234248
H  H411  1  0.75490000  0.49570000  0.04410000  1.0 0.1296234248
H  H412  1  0.74510000  0.99570000  0.45590000  1.0 0.1296234248
H  H413  1  0.74510000  0.50430000  0.54410000  1.0 0.1296234248
H  H414  1  0.24510000  0.99570000  0.04410000  1.0 0.1296234248
H  H415  1  0.24510000  0.50430000  0.95590000  1.0 0.1296234248
H  H416  1  0.25490000  0.00430000  0.54410000  1.0 0.1296234248
H  H417  1  0.36980000  0.48110000  0.44700000  1.0 0.0893032454
H  H418  1  0.86980000  0.01890000  0.94700000  1.0 0.0893032454
H  H419  1  0.86980000  0.48110000  0.05300000  1.0 0.0893032454
H  H420  1  0.63020000  0.98110000  0.44700000  1.0 0.0893032454
H  H421  1  0.63020000  0.51890000  0.55300000  1.0 0.0893032454
H  H422  1  0.13020000  0.98110000  0.05300000  1.0 0.0893032454
H  H423  1  0.13020000  0.51890000  0.94700000  1.0 0.0893032454
H  H424  1  0.36980000  0.01890000  0.55300000  1.0 0.0893032454
H  H425  1  0.35250000  0.50100000  0.49280000  1.0 0.1107295438
H  H426  1  0.85250000  0.99900000  0.99280000  1.0 0.1107295438
H  H427  1  0.85250000  0.50100000  0.00720000  1.0 0.1107295438
H  H428  1  0.64750000  0.00100000  0.49280000  1.0 0.1107295438
H  H429  1  0.64750000  0.49900000  0.50720000  1.0 0.1107295438
H  H430  1  0.14750000  0.00100000  0.00720000  1.0 0.1107295438
H  H431  1  0.14750000  0.49900000  0.99280000  1.0 0.1107295438
H  H432  1  0.35250000  0.99900000  0.50720000  1.0 0.1107295438
H  H433  1  0.18120000  0.52430000  0.39890000  1.0 0.1204204878
H  H434  1  0.68120000  0.97570000  0.89890000  1.0 0.1204204878
H  H435  1  0.68120000  0.52430000  0.10110000  1.0 0.1204204878
H  H436  1  0.81880000  0.02430000  0.39890000  1.0 0.1204204878
H  H437  1  0.81880000  0.47570000  0.60110000  1.0 0.1204204878
H  H438  1  0.31880000  0.02430000  0.10110000  1.0 0.1204204878
H  H439  1  0.31880000  0.47570000  0.89890000  1.0 0.1204204878
H  H440  1  0.18120000  0.97570000  0.60110000  1.0 0.1204204878
H  H441  1  0.18930000  0.58960000  0.42130000  1.0 0.138244064
H  H442  1  0.68930000  0.91040000  0.92130000  1.0 0.138244064
H  H443  1  0.68930000  0.58960000  0.07870000  1.0 0.138244064
H  H444  1  0.81070000  0.08960000  0.42130000  1.0 0.138244064
H  H445  1  0.81070000  0.41040000  0.57870000  1.0 0.138244064
H  H446  1  0.31070000  0.08960000  0.07870000  1.0 0.138244064
H  H447  1  0.31070000  0.41040000  0.92130000  1.0 0.138244064
H  H448  1  0.18930000  0.91040000  0.57870000  1.0 0.138244064
H  H449  1  0.15440000  0.60880000  0.35570000  1.0 0.1204204878
H  H450  1  0.65440000  0.89120000  0.85570000  1.0 0.1204204878
H  H451  1  0.65440000  0.60880000  0.14430000  1.0 0.1204204878
H  H452  1  0.84560000  0.10880000  0.35570000  1.0 0.1204204878
H  H453  1  0.84560000  0.39120000  0.64430000  1.0 0.1204204878
H  H454  1  0.34560000  0.10880000  0.14430000  1.0 0.1204204878
H  H455  1  0.34560000  0.39120000  0.85570000  1.0 0.1204204878
H  H456  1  0.15440000  0.89120000  0.64430000  1.0 0.1204204878
H  H457  1  0.20930000  0.56730000  0.33700000  1.0 0.1107295438
H  H458  1  0.70930000  0.93270000  0.83700000  1.0 0.1107295438
H  H459  1  0.70930000  0.56730000  0.16300000  1.0 0.1107295438
H  H460  1  0.79070000  0.06730000  0.33700000  1.0 0.1107295438
H  H461  1  0.79070000  0.43270000  0.66300000  1.0 0.1107295438
H  H462  1  0.29070000  0.06730000  0.16300000  1.0 0.1107295438
H  H463  1  0.29070000  0.43270000  0.83700000  1.0 0.1107295438
H  H464  1  0.20930000  0.93270000  0.66300000  1.0 0.1107295438
H  H465  1  0.92200000  0.81570000  0.41220000  1.0 0.1107295438
H  H466  1  0.42200000  0.68430000  0.91220000  1.0 0.1107295438
H  H467  1  0.42200000  0.81570000  0.08780000  1.0 0.1107295438
H  H468  1  0.07800000  0.31570000  0.41220000  1.0 0.1107295438
H  H469  1  0.07800000  0.18430000  0.58780000  1.0 0.1107295438
H  H470  1  0.57800000  0.31570000  0.08780000  1.0 0.1107295438
H  H471  1  0.57800000  0.18430000  0.91220000  1.0 0.1107295438
H  H472  1  0.92200000  0.68430000  0.58780000  1.0 0.1107295438
H  H473  1  0.90560000  0.88730000  0.40790000  1.0 0.1021178585
H  H474  1  0.40560000  0.61270000  0.90790000  1.0 0.1021178585
H  H475  1  0.40560000  0.88730000  0.09210000  1.0 0.1021178585
H  H476  1  0.09440000  0.38730000  0.40790000  1.0 0.1021178585
H  H477  1  0.09440000  0.11270000  0.59210000  1.0 0.1021178585
H  H478  1  0.59440000  0.38730000  0.09210000  1.0 0.1021178585
H  H479  1  0.59440000  0.11270000  0.90790000  1.0 0.1021178585
H  H480  1  0.90560000  0.61270000  0.59210000  1.0 0.1021178585
H  H481  1  0.02580000  0.83440000  0.41030000  1.0 0.138244064
H  H482  1  0.52580000  0.66560000  0.91030000  1.0 0.138244064
H  H483  1  0.52580000  0.83440000  0.08970000  1.0 0.138244064
H  H484  1  0.97420000  0.33440000  0.41030000  1.0 0.138244064
H  H485  1  0.97420000  0.16560000  0.58970000  1.0 0.138244064
H  H486  1  0.47420000  0.33440000  0.08970000  1.0 0.138244064
H  H487  1  0.47420000  0.16560000  0.91030000  1.0 0.138244064
H  H488  1  0.02580000  0.66560000  0.58970000  1.0 0.138244064
H  H489  1  0.99410000  0.86990000  0.37300000  1.0 0.1296234248
H  H490  1  0.49410000  0.63010000  0.87300000  1.0 0.1296234248
H  H491  1  0.49410000  0.86990000  0.12700000  1.0 0.1296234248
H  H492  1  0.00590000  0.36990000  0.37300000  1.0 0.1296234248
H  H493  1  0.00590000  0.13010000  0.62700000  1.0 0.1296234248
H  H494  1  0.50590000  0.36990000  0.12700000  1.0 0.1296234248
H  H495  1  0.50590000  0.13010000  0.87300000  1.0 0.1296234248
H  H496  1  0.99410000  0.63010000  0.62700000  1.0 0.1296234248
H  H497  1  0.17690000  0.96170000  0.40430000  1.0 0.1107295438
H  H498  1  0.67690000  0.53830000  0.90430000  1.0 0.1107295438
H  H499  1  0.67690000  0.96170000  0.09570000  1.0 0.1107295438
H  H500  1  0.82310000  0.46170000  0.40430000  1.0 0.1107295438
H  H501  1  0.82310000  0.03830000  0.59570000  1.0 0.1107295438
H  H502  1  0.32310000  0.46170000  0.09570000  1.0 0.1107295438
H  H503  1  0.32310000  0.03830000  0.90430000  1.0 0.1107295438
H  H504  1  0.17690000  0.53830000  0.59570000  1.0 0.1107295438
H  H505  1  0.12220000  0.01190000  0.40030000  1.0 0.1021178585
H  H506  1  0.62220000  0.48810000  0.90030000  1.0 0.1021178585
H  H507  1  0.62220000  0.01190000  0.09970000  1.0 0.1021178585
H  H508  1  0.87780000  0.51190000  0.40030000  1.0 0.1021178585
H  H509  1  0.87780000  0.98810000  0.59970000  1.0 0.1021178585
H  H510  1  0.37780000  0.51190000  0.09970000  1.0 0.1021178585
H  H511  1  0.37780000  0.98810000  0.90030000  1.0 0.1021178585
H  H512  1  0.12220000  0.48810000  0.59970000  1.0 0.1021178585
H  H513  1  0.08670000  0.92700000  0.36810000  1.0 0.1296234248
H  H514  1  0.58670000  0.57300000  0.86810000  1.0 0.1296234248
H  H515  1  0.58670000  0.92700000  0.13190000  1.0 0.1296234248
H  H516  1  0.91330000  0.42700000  0.36810000  1.0 0.1296234248
H  H517  1  0.91330000  0.07300000  0.63190000  1.0 0.1296234248
H  H518  1  0.41330000  0.42700000  0.13190000  1.0 0.1296234248
H  H519  1  0.41330000  0.07300000  0.86810000  1.0 0.1296234248
H  H520  1  0.08670000  0.57300000  0.63190000  1.0 0.1296234248
H  H521  1  0.10780000  0.88220000  0.40450000  1.0 0.138244064
H  H522  1  0.60780000  0.61780000  0.90450000  1.0 0.138244064
H  H523  1  0.60780000  0.88220000  0.09550000  1.0 0.138244064
H  H524  1  0.89220000  0.38220000  0.40450000  1.0 0.138244064
H  H525  1  0.89220000  0.11780000  0.59550000  1.0 0.138244064
H  H526  1  0.39220000  0.38220000  0.09550000  1.0 0.138244064
H  H527  1  0.39220000  0.11780000  0.90450000  1.0 0.138244064
H  H528  1  0.10780000  0.61780000  0.59550000  1.0 0.138244064
H  H529  1  0.95740000  0.96870000  0.38130000  1.0 0.1296234248
H  H530  1  0.45740000  0.53130000  0.88130000  1.0 0.1296234248
H  H531  1  0.45740000  0.96870000  0.11870000  1.0 0.1296234248
H  H532  1  0.04260000  0.46870000  0.38130000  1.0 0.1296234248
H  H533  1  0.04260000  0.03130000  0.61870000  1.0 0.1296234248
H  H534  1  0.54260000  0.46870000  0.11870000  1.0 0.1296234248
H  H535  1  0.54260000  0.03130000  0.88130000  1.0 0.1296234248
H  H536  1  0.95740000  0.53130000  0.61870000  1.0 0.1296234248
H  H537  1  0.01880000  0.01150000  0.38090000  1.0 0.138244064
H  H538  1  0.51880000  0.48850000  0.88090000  1.0 0.138244064
H  H539  1  0.51880000  0.01150000  0.11910000  1.0 0.138244064
H  H540  1  0.98120000  0.51150000  0.38090000  1.0 0.138244064
H  H541  1  0.98120000  0.98850000  0.61910000  1.0 0.138244064
H  H542  1  0.48120000  0.51150000  0.11910000  1.0 0.138244064
H  H543  1  0.48120000  0.98850000  0.88090000  1.0 0.138244064
H  H544  1  0.01880000  0.48850000  0.61910000  1.0 0.138244064
H  H545  1  0.92080000  0.00930000  0.43810000  1.0 0.1021178585
H  H546  1  0.42080000  0.49070000  0.93810000  1.0 0.1021178585
H  H547  1  0.42080000  0.00930000  0.06190000  1.0 0.1021178585
H  H548  1  0.07920000  0.50930000  0.43810000  1.0 0.1021178585
H  H549  1  0.07920000  0.99070000  0.56190000  1.0 0.1021178585
H  H550  1  0.57920000  0.50930000  0.06190000  1.0 0.1021178585
H  H551  1  0.57920000  0.99070000  0.93810000  1.0 0.1021178585
H  H552  1  0.92080000  0.49070000  0.56190000  1.0 0.1021178585
H  H553  1  0.95570000  0.06820000  0.41980000  1.0 0.1204204878
H  H554  1  0.45570000  0.43180000  0.91980000  1.0 0.1204204878
H  H555  1  0.45570000  0.06820000  0.08020000  1.0 0.1204204878
H  H556  1  0.04430000  0.56820000  0.41980000  1.0 0.1204204878
H  H557  1  0.04430000  0.93180000  0.58020000  1.0 0.1204204878
H  H558  1  0.54430000  0.56820000  0.08020000  1.0 0.1204204878
H  H559  1  0.54430000  0.93180000  0.91980000  1.0 0.1204204878
H  H560  1  0.95570000  0.43180000  0.58020000  1.0 0.1204204878
W  W1  1  0.57627000  0.47421000  0.25791000  1.0 0.4905077535
W  W2  1  0.07627000  0.02579000  0.75791000  1.0 0.4905077535
W  W3  1  0.07627000  0.47421000  0.24209000  1.0 0.4905077535
W  W4  1  0.42373000  0.97421000  0.25791000  1.0 0.4905077535
W  W5  1  0.42373000  0.52579000  0.74209000  1.0 0.4905077535
W  W6  1  0.92373000  0.97421000  0.24209000  1.0 0.4905077535
W  W7  1  0.92373000  0.52579000  0.75791000  1.0 0.4905077535
W  W8  1  0.57627000  0.02579000  0.74209000  1.0 0.4905077535
W  W9  1  0.17816000  0.75000000  0.50000000  1.0 0.4313632678
W  W10  1  0.67816000  0.75000000  0.00000000  1.0 0.4313632678
W  W11  1  0.82184000  0.25000000  0.50000000  1.0 0.4313632678
W  W12  1  0.32184000  0.25000000  0.00000000  1.0 0.4313632678
C  C1  1  0.63150000  0.38530000  0.25770000  1.0 0.0483698429
C  C2  1  0.13150000  0.11470000  0.75770000  1.0 0.0483698429
C  C3  1  0.13150000  0.38530000  0.24230000  1.0 0.0483698429
C  C4  1  0.36850000  0.88530000  0.25770000  1.0 0.0483698429
C  C5  1  0.36850000  0.61470000  0.74230000  1.0 0.0483698429
C  C6  1  0.86850000  0.88530000  0.24230000  1.0 0.0483698429
C  C7  1  0.86850000  0.61470000  0.75770000  1.0 0.0483698429
C  C8  1  0.63150000  0.11470000  0.74230000  1.0 0.0483698429
C  C9  1  0.65080000  0.54260000  0.25760000  1.0 0.0370923735
C  C10  1  0.15080000  0.95740000  0.75760000  1.0 0.0370923735
C  C11  1  0.15080000  0.54260000  0.24240000  1.0 0.0370923735
C  C12  1  0.34920000  0.04260000  0.25760000  1.0 0.0370923735
C  C13  1  0.34920000  0.45740000  0.74240000  1.0 0.0370923735
C  C14  1  0.84920000  0.04260000  0.24240000  1.0 0.0370923735
C  C15  1  0.84920000  0.45740000  0.75760000  1.0 0.0370923735
C  C16  1  0.65080000  0.95740000  0.74240000  1.0 0.0370923735
C  C17  1  0.52220000  0.54000000  0.29555000  1.0 0.0370923735
C  C18  1  0.02220000  0.96000000  0.79555000  1.0 0.0370923735
C  C19  1  0.02220000  0.54000000  0.20445000  1.0 0.0370923735
C  C20  1  0.47780000  0.04000000  0.29555000  1.0 0.0370923735
C  C21  1  0.47780000  0.46000000  0.70445000  1.0 0.0370923735
C  C22  1  0.97780000  0.04000000  0.20445000  1.0 0.0370923735
C  C23  1  0.97780000  0.46000000  0.79555000  1.0 0.0370923735
C  C24  1  0.52220000  0.96000000  0.70445000  1.0 0.0370923735
C  C25  1  0.50540000  0.42580000  0.22046000  1.0 -0.0242058914
C  C26  1  0.00540000  0.07420000  0.72046000  1.0 -0.0242058914
C  C27  1  0.00540000  0.42580000  0.27954000  1.0 -0.0242058914
C  C28  1  0.49460000  0.92580000  0.22046000  1.0 -0.0242058914
C  C29  1  0.49460000  0.57420000  0.77954000  1.0 -0.0242058914
C  C30  1  0.99460000  0.92580000  0.27954000  1.0 -0.0242058914
C  C31  1  0.99460000  0.57420000  0.72046000  1.0 -0.0242058914
C  C32  1  0.50540000  0.07420000  0.77954000  1.0 -0.0242058914
C  C33  1  0.51970000  0.41720000  0.29792000  1.0 0.0077548964
C  C34  1  0.01970000  0.08280000  0.79792000  1.0 0.0077548964
C  C35  1  0.01970000  0.41720000  0.20208000  1.0 0.0077548964
C  C36  1  0.48030000  0.91720000  0.29792000  1.0 0.0077548964
C  C37  1  0.48030000  0.58280000  0.70208000  1.0 0.0077548964
C  C38  1  0.98030000  0.91720000  0.20208000  1.0 0.0077548964
C  C39  1  0.98030000  0.58280000  0.79792000  1.0 0.0077548964
C  C40  1  0.51970000  0.08280000  0.70208000  1.0 0.0077548964
C  C41  1  0.62490000  0.47120000  0.31690000  1.0 0.0077548964
C  C42  1  0.12490000  0.02880000  0.81690000  1.0 0.0077548964
C  C43  1  0.12490000  0.47120000  0.18310000  1.0 0.0077548964
C  C44  1  0.37510000  0.97120000  0.31690000  1.0 0.0077548964
C  C45  1  0.37510000  0.52880000  0.68310000  1.0 0.0077548964
C  C46  1  0.87510000  0.97120000  0.18310000  1.0 0.0077548964
C  C47  1  0.87510000  0.52880000  0.81690000  1.0 0.0077548964
C  C48  1  0.62490000  0.02880000  0.68310000  1.0 0.0077548964
C  C49  1  0.62050000  0.45880000  0.20020000  1.0 0.0216548661
C  C50  1  0.12050000  0.04120000  0.70020000  1.0 0.0216548661
C  C51  1  0.12050000  0.45880000  0.29980000  1.0 0.0216548661
C  C52  1  0.37950000  0.95880000  0.20020000  1.0 0.0216548661
C  C53  1  0.37950000  0.54120000  0.79980000  1.0 0.0216548661
C  C54  1  0.87950000  0.95880000  0.29980000  1.0 0.0216548661
C  C55  1  0.87950000  0.54120000  0.70020000  1.0 0.0216548661
C  C56  1  0.62050000  0.04120000  0.79980000  1.0 0.0216548661
C  C57  1  0.54260000  0.54690000  0.21650000  1.0 0.0077548964
C  C58  1  0.04260000  0.95310000  0.71650000  1.0 0.0077548964
C  C59  1  0.04260000  0.54690000  0.28350000  1.0 0.0077548964
C  C60  1  0.45740000  0.04690000  0.21650000  1.0 0.0077548964
C  C61  1  0.45740000  0.45310000  0.78350000  1.0 0.0077548964
C  C62  1  0.95740000  0.04690000  0.28350000  1.0 0.0077548964
C  C63  1  0.95740000  0.45310000  0.71650000  1.0 0.0077548964
C  C64  1  0.54260000  0.95310000  0.78350000  1.0 0.0077548964
C  C65  1  0.24540000  0.70650000  0.46270000  1.0 0.0483698429
C  C66  1  0.74540000  0.79350000  0.96270000  1.0 0.0483698429
C  C67  1  0.74540000  0.70650000  0.03730000  1.0 0.0483698429
C  C68  1  0.75460000  0.20650000  0.46270000  1.0 0.0483698429
C  C69  1  0.75460000  0.29350000  0.53730000  1.0 0.0483698429
C  C70  1  0.25460000  0.20650000  0.03730000  1.0 0.0483698429
C  C71  1  0.25460000  0.29350000  0.96270000  1.0 0.0483698429
C  C72  1  0.24540000  0.79350000  0.53730000  1.0 0.0483698429
C  C73  1  0.10840000  0.81890000  0.50059000  1.0 0.0483698429
C  C74  1  0.60840000  0.68110000  0.00059000  1.0 0.0483698429
C  C75  1  0.60840000  0.81890000  0.99941000  1.0 0.0483698429
C  C76  1  0.89160000  0.31890000  0.50059000  1.0 0.0483698429
C  C77  1  0.89160000  0.18110000  0.49941000  1.0 0.0483698429
C  C78  1  0.39160000  0.31890000  0.99941000  1.0 0.0483698429
C  C79  1  0.39160000  0.18110000  0.00059000  1.0 0.0483698429
C  C80  1  0.10840000  0.68110000  0.49941000  1.0 0.0483698429
C  C81  1  0.22010000  0.82480000  0.46680000  1.0 -0.0080959334
C  C82  1  0.72010000  0.67520000  0.96680000  1.0 -0.0080959334
C  C83  1  0.72010000  0.82480000  0.03320000  1.0 -0.0080959334
C  C84  1  0.77990000  0.32480000  0.46680000  1.0 -0.0080959334
C  C85  1  0.77990000  0.17520000  0.53320000  1.0 -0.0080959334
C  C86  1  0.27990000  0.32480000  0.03320000  1.0 -0.0080959334
C  C87  1  0.27990000  0.17520000  0.96680000  1.0 -0.0080959334
C  C88  1  0.22010000  0.67520000  0.53320000  1.0 -0.0080959334
C  C89  1  0.13470000  0.74520000  0.43870000  1.0 -0.0080959334
C  C90  1  0.63470000  0.75480000  0.93870000  1.0 -0.0080959334
C  C91  1  0.63470000  0.74520000  0.06130000  1.0 -0.0080959334
C  C92  1  0.86530000  0.24520000  0.43870000  1.0 -0.0080959334
C  C93  1  0.86530000  0.25480000  0.56130000  1.0 -0.0080959334
C  C94  1  0.36530000  0.24520000  0.06130000  1.0 -0.0080959334
C  C95  1  0.36530000  0.25480000  0.93870000  1.0 -0.0080959334
C  C96  1  0.13470000  0.75480000  0.56130000  1.0 -0.0080959334
C  C97  1  0.81260000  0.37560000  0.26850000  1.0 -0.2091508657
C  C98  1  0.31260000  0.12440000  0.76850000  1.0 -0.2091508657
C  C99  1  0.31260000  0.37560000  0.23150000  1.0 -0.2091508657
C  C100  1  0.18740000  0.87560000  0.26850000  1.0 -0.2091508657
C  C101  1  0.18740000  0.62440000  0.73150000  1.0 -0.2091508657
C  C102  1  0.68740000  0.87560000  0.23150000  1.0 -0.2091508657
C  C103  1  0.68740000  0.62440000  0.76850000  1.0 -0.2091508657
C  C104  1  0.81260000  0.12440000  0.73150000  1.0 -0.2091508657
C  C105  1  0.83270000  0.35130000  0.22850000  1.0 0.0026464519
C  C106  1  0.33270000  0.14870000  0.72850000  1.0 0.0026464519
C  C107  1  0.33270000  0.35130000  0.27150000  1.0 0.0026464519
C  C108  1  0.16730000  0.85130000  0.22850000  1.0 0.0026464519
C  C109  1  0.16730000  0.64870000  0.77150000  1.0 0.0026464519
C  C110  1  0.66730000  0.85130000  0.27150000  1.0 0.0026464519
C  C111  1  0.66730000  0.64870000  0.72850000  1.0 0.0026464519
C  C112  1  0.83270000  0.14870000  0.77150000  1.0 0.0026464519
C  C113  1  0.76400000  0.34980000  0.33490000  1.0 -0.1494691335
C  C114  1  0.26400000  0.15020000  0.83490000  1.0 -0.1494691335
C  C115  1  0.26400000  0.34980000  0.16510000  1.0 -0.1494691335
C  C116  1  0.23600000  0.84980000  0.33490000  1.0 -0.1494691335
C  C117  1  0.23600000  0.65020000  0.66510000  1.0 -0.1494691335
C  C118  1  0.73600000  0.84980000  0.16510000  1.0 -0.1494691335
C  C119  1  0.73600000  0.65020000  0.83490000  1.0 -0.1494691335
C  C120  1  0.76400000  0.15020000  0.66510000  1.0 -0.1494691335
C  C121  1  0.72670000  0.30550000  0.35910000  1.0 0.0026464519
C  C122  1  0.22670000  0.19450000  0.85910000  1.0 0.0026464519
C  C123  1  0.22670000  0.30550000  0.14090000  1.0 0.0026464519
C  C124  1  0.27330000  0.80550000  0.35910000  1.0 0.0026464519
C  C125  1  0.27330000  0.69450000  0.64090000  1.0 0.0026464519
C  C126  1  0.77330000  0.80550000  0.14090000  1.0 0.0026464519
C  C127  1  0.77330000  0.69450000  0.85910000  1.0 0.0026464519
C  C128  1  0.72670000  0.19450000  0.64090000  1.0 0.0026464519
C  C129  1  0.84460000  0.27980000  0.30810000  1.0 -0.159723293
C  C130  1  0.34460000  0.22020000  0.80810000  1.0 -0.159723293
C  C131  1  0.34460000  0.27980000  0.19190000  1.0 -0.159723293
C  C132  1  0.15540000  0.77980000  0.30810000  1.0 -0.159723293
C  C133  1  0.15540000  0.72020000  0.69190000  1.0 -0.159723293
C  C134  1  0.65540000  0.77980000  0.19190000  1.0 -0.159723293
C  C135  1  0.65540000  0.72020000  0.80810000  1.0 -0.159723293
C  C136  1  0.84460000  0.22020000  0.69190000  1.0 -0.159723293
C  C137  1  0.83800000  0.22060000  0.28030000  1.0 0.0026464519
C  C138  1  0.33800000  0.27940000  0.78030000  1.0 0.0026464519
C  C139  1  0.33800000  0.22060000  0.21970000  1.0 0.0026464519
C  C140  1  0.16200000  0.72060000  0.28030000  1.0 0.0026464519
C  C141  1  0.16200000  0.77940000  0.71970000  1.0 0.0026464519
C  C142  1  0.66200000  0.72060000  0.21970000  1.0 0.0026464519
C  C143  1  0.66200000  0.77940000  0.78030000  1.0 0.0026464519
C  C144  1  0.83800000  0.27940000  0.71970000  1.0 0.0026464519
C  C145  1  0.63320000  0.15100000  0.18250000  1.0 -0.1494691335
C  C146  1  0.13320000  0.34900000  0.68250000  1.0 -0.1494691335
C  C147  1  0.13320000  0.15100000  0.31750000  1.0 -0.1494691335
C  C148  1  0.36680000  0.65100000  0.18250000  1.0 -0.1494691335
C  C149  1  0.36680000  0.84900000  0.81750000  1.0 -0.1494691335
C  C150  1  0.86680000  0.65100000  0.31750000  1.0 -0.1494691335
C  C151  1  0.86680000  0.84900000  0.68250000  1.0 -0.1494691335
C  C152  1  0.63320000  0.34900000  0.81750000  1.0 -0.1494691335
C  C153  1  0.64720000  0.21700000  0.20180000  1.0 -0.0080959334
C  C154  1  0.14720000  0.28300000  0.70180000  1.0 -0.0080959334
C  C155  1  0.14720000  0.21700000  0.29820000  1.0 -0.0080959334
C  C156  1  0.35280000  0.71700000  0.20180000  1.0 -0.0080959334
C  C157  1  0.35280000  0.78300000  0.79820000  1.0 -0.0080959334
C  C158  1  0.85280000  0.71700000  0.29820000  1.0 -0.0080959334
C  C159  1  0.85280000  0.78300000  0.70180000  1.0 -0.0080959334
C  C160  1  0.64720000  0.28300000  0.79820000  1.0 -0.0080959334
C  C161  1  0.66130000  0.04540000  0.20430000  1.0 -0.1699400191
C  C162  1  0.16130000  0.45460000  0.70430000  1.0 -0.1699400191
C  C163  1  0.16130000  0.04540000  0.29570000  1.0 -0.1699400191
C  C164  1  0.33870000  0.54540000  0.20430000  1.0 -0.1699400191
C  C165  1  0.33870000  0.95460000  0.79570000  1.0 -0.1699400191
C  C166  1  0.83870000  0.54540000  0.29570000  1.0 -0.1699400191
C  C167  1  0.83870000  0.95460000  0.70430000  1.0 -0.1699400191
C  C168  1  0.66130000  0.45460000  0.79570000  1.0 -0.1699400191
C  C169  1  0.63480000  0.04680000  0.24650000  1.0 -0.0080959334
C  C170  1  0.13480000  0.45320000  0.74650000  1.0 -0.0080959334
C  C171  1  0.13480000  0.04680000  0.25350000  1.0 -0.0080959334
C  C172  1  0.36520000  0.54680000  0.24650000  1.0 -0.0080959334
C  C173  1  0.36520000  0.95320000  0.75350000  1.0 -0.0080959334
C  C174  1  0.86520000  0.54680000  0.25350000  1.0 -0.0080959334
C  C175  1  0.86520000  0.95320000  0.74650000  1.0 -0.0080959334
C  C176  1  0.63480000  0.45320000  0.75350000  1.0 -0.0080959334
C  C177  1  0.72860000  0.10290000  0.15380000  1.0 -0.175478803
C  C178  1  0.22860000  0.39710000  0.65380000  1.0 -0.175478803
C  C179  1  0.22860000  0.10290000  0.34620000  1.0 -0.175478803
C  C180  1  0.27140000  0.60290000  0.15380000  1.0 -0.175478803
C  C181  1  0.27140000  0.89710000  0.84620000  1.0 -0.175478803
C  C182  1  0.77140000  0.60290000  0.34620000  1.0 -0.175478803
C  C183  1  0.77140000  0.89710000  0.65380000  1.0 -0.175478803
C  C184  1  0.72860000  0.39710000  0.84620000  1.0 -0.175478803
C  C185  1  0.76340000  0.16440000  0.14450000  1.0 0.0216548661
C  C186  1  0.26340000  0.33560000  0.64450000  1.0 0.0216548661
C  C187  1  0.26340000  0.16440000  0.35550000  1.0 0.0216548661
C  C188  1  0.23660000  0.66440000  0.14450000  1.0 0.0216548661
C  C189  1  0.23660000  0.83560000  0.85550000  1.0 0.0216548661
C  C190  1  0.73660000  0.66440000  0.35550000  1.0 0.0216548661
C  C191  1  0.73660000  0.83560000  0.64450000  1.0 0.0216548661
C  C192  1  0.76340000  0.33560000  0.85550000  1.0 0.0216548661
C  C193  1  0.48230000  0.75120000  0.38340000  1.0 -0.1494691335
C  C194  1  0.98230000  0.74880000  0.88340000  1.0 -0.1494691335
C  C195  1  0.98230000  0.75120000  0.11660000  1.0 -0.1494691335
C  C196  1  0.51770000  0.25120000  0.38340000  1.0 -0.1494691335
C  C197  1  0.51770000  0.24880000  0.61660000  1.0 -0.1494691335
C  C198  1  0.01770000  0.25120000  0.11660000  1.0 -0.1494691335
C  C199  1  0.01770000  0.24880000  0.88340000  1.0 -0.1494691335
C  C200  1  0.48230000  0.74880000  0.61660000  1.0 -0.1494691335
C  C201  1  0.42390000  0.72780000  0.40400000  1.0 -0.0080959334
C  C202  1  0.92390000  0.77220000  0.90400000  1.0 -0.0080959334
C  C203  1  0.92390000  0.72780000  0.09600000  1.0 -0.0080959334
C  C204  1  0.57610000  0.22780000  0.40400000  1.0 -0.0080959334
C  C205  1  0.57610000  0.27220000  0.59600000  1.0 -0.0080959334
C  C206  1  0.07610000  0.22780000  0.09600000  1.0 -0.0080959334
C  C207  1  0.07610000  0.27220000  0.90400000  1.0 -0.0080959334
C  C208  1  0.42390000  0.77220000  0.59600000  1.0 -0.0080959334
C  C209  1  0.56580000  0.66600000  0.37710000  1.0 -0.175478803
C  C210  1  0.06580000  0.83400000  0.87710000  1.0 -0.175478803
C  C211  1  0.06580000  0.66600000  0.12290000  1.0 -0.175478803
C  C212  1  0.43420000  0.16600000  0.37710000  1.0 -0.175478803
C  C213  1  0.43420000  0.33400000  0.62290000  1.0 -0.175478803
C  C214  1  0.93420000  0.16600000  0.12290000  1.0 -0.175478803
C  C215  1  0.93420000  0.33400000  0.87710000  1.0 -0.175478803
C  C216  1  0.56580000  0.83400000  0.62290000  1.0 -0.175478803
C  C217  1  0.55150000  0.63710000  0.41820000  1.0 0.0287989195
C  C218  1  0.05150000  0.86290000  0.91820000  1.0 0.0287989195
C  C219  1  0.05150000  0.63710000  0.08180000  1.0 0.0287989195
C  C220  1  0.44850000  0.13710000  0.41820000  1.0 0.0287989195
C  C221  1  0.44850000  0.36290000  0.58180000  1.0 0.0287989195
C  C222  1  0.94850000  0.13710000  0.08180000  1.0 0.0287989195
C  C223  1  0.94850000  0.36290000  0.91820000  1.0 0.0287989195
C  C224  1  0.55150000  0.86290000  0.58180000  1.0 0.0287989195
C  C225  1  0.52990000  0.72150000  0.31570000  1.0 -0.1884155907
C  C226  1  0.02990000  0.77850000  0.81570000  1.0 -0.1884155907
C  C227  1  0.02990000  0.72150000  0.18430000  1.0 -0.1884155907
C  C228  1  0.47010000  0.22150000  0.31570000  1.0 -0.1884155907
C  C229  1  0.47010000  0.27850000  0.68430000  1.0 -0.1884155907
C  C230  1  0.97010000  0.22150000  0.18430000  1.0 -0.1884155907
C  C231  1  0.97010000  0.27850000  0.81570000  1.0 -0.1884155907
C  C232  1  0.52990000  0.77850000  0.68430000  1.0 -0.1884155907
C  C233  1  0.47630000  0.73600000  0.28900000  1.0 0.0287989195
C  C234  1  0.97630000  0.76400000  0.78900000  1.0 0.0287989195
C  C235  1  0.97630000  0.73600000  0.21100000  1.0 0.0287989195
C  C236  1  0.52370000  0.23600000  0.28900000  1.0 0.0287989195
C  C237  1  0.52370000  0.26400000  0.71100000  1.0 0.0287989195
C  C238  1  0.02370000  0.23600000  0.21100000  1.0 0.0287989195
C  C239  1  0.02370000  0.26400000  0.78900000  1.0 0.0287989195
C  C240  1  0.47630000  0.76400000  0.71100000  1.0 0.0287989195
C  C241  1  0.30150000  0.49970000  0.37770000  1.0 -0.159723293
C  C242  1  0.80150000  0.00030000  0.87770000  1.0 -0.159723293
C  C243  1  0.80150000  0.49970000  0.12230000  1.0 -0.159723293
C  C244  1  0.69850000  0.99970000  0.37770000  1.0 -0.159723293
C  C245  1  0.69850000  0.50030000  0.62230000  1.0 -0.159723293
C  C246  1  0.19850000  0.99970000  0.12230000  1.0 -0.159723293
C  C247  1  0.19850000  0.50030000  0.87770000  1.0 -0.159723293
C  C248  1  0.30150000  0.00030000  0.62230000  1.0 -0.159723293
C  C249  1  0.36530000  0.51550000  0.36400000  1.0 -0.0327660661
C  C250  1  0.86530000  0.98450000  0.86400000  1.0 -0.0327660661
C  C251  1  0.86530000  0.51550000  0.13600000  1.0 -0.0327660661
C  C252  1  0.63470000  0.01550000  0.36400000  1.0 -0.0327660661
C  C253  1  0.63470000  0.48450000  0.63600000  1.0 -0.0327660661
C  C254  1  0.13470000  0.01550000  0.13600000  1.0 -0.0327660661
C  C255  1  0.13470000  0.48450000  0.86400000  1.0 -0.0327660661
C  C256  1  0.36530000  0.98450000  0.63600000  1.0 -0.0327660661
C  C257  1  0.28240000  0.53150000  0.45000000  1.0 -0.1699400191
C  C258  1  0.78240000  0.96850000  0.95000000  1.0 -0.1699400191
C  C259  1  0.78240000  0.53150000  0.05000000  1.0 -0.1699400191
C  C260  1  0.71760000  0.03150000  0.45000000  1.0 -0.1699400191
C  C261  1  0.71760000  0.46850000  0.55000000  1.0 -0.1699400191
C  C262  1  0.21760000  0.03150000  0.05000000  1.0 -0.1699400191
C  C263  1  0.21760000  0.46850000  0.95000000  1.0 -0.1699400191
C  C264  1  0.28240000  0.96850000  0.55000000  1.0 -0.1699400191
C  C265  1  0.35170000  0.51430000  0.46410000  1.0 0.0077548964
C  C266  1  0.85170000  0.98570000  0.96410000  1.0 0.0077548964
C  C267  1  0.85170000  0.51430000  0.03590000  1.0 0.0077548964
C  C268  1  0.64830000  0.01430000  0.46410000  1.0 0.0077548964
C  C269  1  0.64830000  0.48570000  0.53590000  1.0 0.0077548964
C  C270  1  0.14830000  0.01430000  0.03590000  1.0 0.0077548964
C  C271  1  0.14830000  0.48570000  0.96410000  1.0 0.0077548964
C  C272  1  0.35170000  0.98570000  0.53590000  1.0 0.0077548964
C  C273  1  0.20580000  0.56310000  0.39930000  1.0 -0.1884155907
C  C274  1  0.70580000  0.93690000  0.89930000  1.0 -0.1884155907
C  C275  1  0.70580000  0.56310000  0.10070000  1.0 -0.1884155907
C  C276  1  0.79420000  0.06310000  0.39930000  1.0 -0.1884155907
C  C277  1  0.79420000  0.43690000  0.60070000  1.0 -0.1884155907
C  C278  1  0.29420000  0.06310000  0.10070000  1.0 -0.1884155907
C  C279  1  0.29420000  0.43690000  0.89930000  1.0 -0.1884155907
C  C280  1  0.20580000  0.93690000  0.60070000  1.0 -0.1884155907
C  C281  1  0.19870000  0.59620000  0.35920000  1.0 0.0287989195
C  C282  1  0.69870000  0.90380000  0.85920000  1.0 0.0287989195
C  C283  1  0.69870000  0.59620000  0.14080000  1.0 0.0287989195
C  C284  1  0.80130000  0.09620000  0.35920000  1.0 0.0287989195
C  C285  1  0.80130000  0.40380000  0.64080000  1.0 0.0287989195
C  C286  1  0.30130000  0.09620000  0.14080000  1.0 0.0287989195
C  C287  1  0.30130000  0.40380000  0.85920000  1.0 0.0287989195
C  C288  1  0.19870000  0.90380000  0.64080000  1.0 0.0287989195
C  C289  1  0.93520000  0.85770000  0.42043000  1.0 -0.0080959334
C  C290  1  0.43520000  0.64230000  0.92043000  1.0 -0.0080959334
C  C291  1  0.43520000  0.85770000  0.07957000  1.0 -0.0080959334
C  C292  1  0.06480000  0.35770000  0.42043000  1.0 -0.0080959334
C  C293  1  0.06480000  0.14230000  0.57957000  1.0 -0.0080959334
C  C294  1  0.56480000  0.35770000  0.07957000  1.0 -0.0080959334
C  C295  1  0.56480000  0.14230000  0.92043000  1.0 -0.0080959334
C  C296  1  0.93520000  0.64230000  0.57957000  1.0 -0.0080959334
C  C297  1  0.99770000  0.86920000  0.40290000  1.0 -0.2091508657
C  C298  1  0.49770000  0.63080000  0.90290000  1.0 -0.2091508657
C  C299  1  0.49770000  0.86920000  0.09710000  1.0 -0.2091508657
C  C300  1  0.00230000  0.36920000  0.40290000  1.0 -0.2091508657
C  C301  1  0.00230000  0.13080000  0.59710000  1.0 -0.2091508657
C  C302  1  0.50230000  0.36920000  0.09710000  1.0 -0.2091508657
C  C303  1  0.50230000  0.13080000  0.90290000  1.0 -0.2091508657
C  C304  1  0.99770000  0.63080000  0.59710000  1.0 -0.2091508657
C  C305  1  0.13370000  0.97190000  0.41293000  1.0 -0.0022481235
C  C306  1  0.63370000  0.52810000  0.91293000  1.0 -0.0022481235
C  C307  1  0.63370000  0.97190000  0.08707000  1.0 -0.0022481235
C  C308  1  0.86630000  0.47190000  0.41293000  1.0 -0.0022481235
C  C309  1  0.86630000  0.02810000  0.58707000  1.0 -0.0022481235
C  C310  1  0.36630000  0.47190000  0.08707000  1.0 -0.0022481235
C  C311  1  0.36630000  0.02810000  0.91293000  1.0 -0.0022481235
C  C312  1  0.13370000  0.52810000  0.58707000  1.0 -0.0022481235
C  C313  1  0.09110000  0.92370000  0.39790000  1.0 -0.1970988605
C  C314  1  0.59110000  0.57630000  0.89790000  1.0 -0.1970988605
C  C315  1  0.59110000  0.92370000  0.10210000  1.0 -0.1970988605
C  C316  1  0.90890000  0.42370000  0.39790000  1.0 -0.1970988605
C  C317  1  0.90890000  0.07630000  0.60210000  1.0 -0.1970988605
C  C318  1  0.40890000  0.42370000  0.10210000  1.0 -0.1970988605
C  C319  1  0.40890000  0.07630000  0.89790000  1.0 -0.1970988605
C  C320  1  0.09110000  0.57630000  0.60210000  1.0 -0.1970988605
C  C321  1  0.99110000  0.98610000  0.39840000  1.0 -0.1884155907
C  C322  1  0.49110000  0.51390000  0.89840000  1.0 -0.1884155907
C  C323  1  0.49110000  0.98610000  0.10160000  1.0 -0.1884155907
C  C324  1  0.00890000  0.48610000  0.39840000  1.0 -0.1884155907
C  C325  1  0.00890000  0.01390000  0.60160000  1.0 -0.1884155907
C  C326  1  0.50890000  0.48610000  0.10160000  1.0 -0.1884155907
C  C327  1  0.50890000  0.01390000  0.89840000  1.0 -0.1884155907
C  C328  1  0.99110000  0.51390000  0.60160000  1.0 -0.1884155907
C  C329  1  0.96260000  0.02650000  0.43142000  1.0 0.0483698429
C  C330  1  0.46260000  0.47350000  0.93142000  1.0 0.0483698429
C  C331  1  0.46260000  0.02650000  0.06858000  1.0 0.0483698429
C  C332  1  0.03740000  0.52650000  0.43142000  1.0 0.0483698429
C  C333  1  0.03740000  0.97350000  0.56858000  1.0 0.0483698429
C  C334  1  0.53740000  0.52650000  0.06858000  1.0 0.0483698429
C  C335  1  0.53740000  0.97350000  0.93142000  1.0 0.0483698429
C  C336  1  0.96260000  0.47350000  0.56858000  1.0 0.0483698429
N  N1  1  0.66150000  0.34190000  0.25755000  1.0 -0.3909163072
N  N2  1  0.16150000  0.15810000  0.75755000  1.0 -0.3909163072
N  N3  1  0.16150000  0.34190000  0.24245000  1.0 -0.3909163072
N  N4  1  0.33850000  0.84190000  0.25755000  1.0 -0.3909163072
N  N5  1  0.33850000  0.65810000  0.74245000  1.0 -0.3909163072
N  N6  1  0.83850000  0.84190000  0.24245000  1.0 -0.3909163072
N  N7  1  0.83850000  0.65810000  0.75755000  1.0 -0.3909163072
N  N8  1  0.66150000  0.15810000  0.74245000  1.0 -0.3909163072
N  N9  1  0.69180000  0.58100000  0.25881000  1.0 -0.404198044
N  N10  1  0.19180000  0.91900000  0.75881000  1.0 -0.4108754823
N  N11  1  0.19180000  0.58100000  0.24119000  1.0 -0.404198044
N  N12  1  0.30820000  0.08100000  0.25881000  1.0 -0.404198044
N  N13  1  0.30820000  0.41900000  0.74119000  1.0 -0.404198044
N  N14  1  0.80820000  0.08100000  0.24119000  1.0 -0.404198044
N  N15  1  0.80820000  0.41900000  0.75881000  1.0 -0.404198044
N  N16  1  0.69180000  0.91900000  0.74119000  1.0 -0.404198044
N  N17  1  0.49380000  0.57400000  0.31638000  1.0 -0.3909163072
N  N18  1  0.99380000  0.92600000  0.81638000  1.0 -0.3909163072
N  N19  1  0.99380000  0.57400000  0.18362000  1.0 -0.3909163072
N  N20  1  0.50620000  0.07400000  0.31638000  1.0 -0.3909163072
N  N21  1  0.50620000  0.42600000  0.68362000  1.0 -0.3909163072
N  N22  1  0.00620000  0.07400000  0.18362000  1.0 -0.3909163072
N  N23  1  0.00620000  0.42600000  0.81638000  1.0 -0.3909163072
N  N24  1  0.49380000  0.92600000  0.68362000  1.0 -0.3909163072
N  N25  1  0.46480000  0.40240000  0.20270000  1.0 -0.421431593
N  N26  1  0.96480000  0.09760000  0.70270000  1.0 -0.421431593
N  N27  1  0.96480000  0.40240000  0.29730000  1.0 -0.421431593
N  N28  1  0.53520000  0.90240000  0.20270000  1.0 -0.421431593
N  N29  1  0.53520000  0.59760000  0.79730000  1.0 -0.421431593
N  N30  1  0.03520000  0.90240000  0.29730000  1.0 -0.421431593
N  N31  1  0.03520000  0.59760000  0.70270000  1.0 -0.421431593
N  N32  1  0.46480000  0.09760000  0.79730000  1.0 -0.421431593
N  N33  1  0.48490000  0.38990000  0.32130000  1.0 -0.4499937439
N  N34  1  0.98490000  0.11010000  0.82130000  1.0 -0.4499937439
N  N35  1  0.98490000  0.38990000  0.17870000  1.0 -0.4499937439
N  N36  1  0.51510000  0.88990000  0.32130000  1.0 -0.4499937439
N  N37  1  0.51510000  0.61010000  0.67870000  1.0 -0.4499937439
N  N38  1  0.01510000  0.88990000  0.17870000  1.0 -0.4499937439
N  N39  1  0.01510000  0.61010000  0.82130000  1.0 -0.4499937439
N  N40  1  0.48490000  0.11010000  0.67870000  1.0 -0.4499937439
N  N41  1  0.65100000  0.47380000  0.34879000  1.0 -0.4108754823
N  N42  1  0.15100000  0.02620000  0.84879000  1.0 -0.4108754823
N  N43  1  0.15100000  0.47380000  0.15121000  1.0 -0.4108754823
N  N44  1  0.34900000  0.97380000  0.34879000  1.0 -0.4108754823
N  N45  1  0.34900000  0.52620000  0.65121000  1.0 -0.4108754823
N  N46  1  0.84900000  0.97380000  0.15121000  1.0 -0.4108754823
N  N47  1  0.84900000  0.52620000  0.84879000  1.0 -0.4108754823
N  N48  1  0.65100000  0.02620000  0.65121000  1.0 -0.4108754823
N  N49  1  0.64540000  0.44900000  0.16971000  1.0 -0.4292016188
N  N50  1  0.14540000  0.05100000  0.66971000  1.0 -0.4292016188
N  N51  1  0.14540000  0.44900000  0.33029000  1.0 -0.4292016188
N  N52  1  0.35460000  0.94900000  0.16971000  1.0 -0.4292016188
N  N53  1  0.35460000  0.55100000  0.83029000  1.0 -0.4292016188
N  N54  1  0.85460000  0.94900000  0.33029000  1.0 -0.4292016188
N  N55  1  0.85460000  0.55100000  0.66971000  1.0 -0.4292016188
N  N56  1  0.64540000  0.05100000  0.83029000  1.0 -0.4292016188
N  N57  1  0.52430000  0.58570000  0.19662000  1.0 -0.4108754823
N  N58  1  0.02430000  0.91430000  0.69662000  1.0 -0.4108754823
N  N59  1  0.02430000  0.58570000  0.30338000  1.0 -0.4108754823
N  N60  1  0.47570000  0.08570000  0.19662000  1.0 -0.4108754823
N  N61  1  0.47570000  0.41430000  0.80338000  1.0 -0.4108754823
N  N62  1  0.97570000  0.08570000  0.30338000  1.0 -0.4108754823
N  N63  1  0.97570000  0.41430000  0.69662000  1.0 -0.4108754823
N  N64  1  0.52430000  0.91430000  0.80338000  1.0 -0.4108754823
N  N65  1  0.28430000  0.68020000  0.43969000  1.0 -0.4292016188
N  N66  1  0.78430000  0.81980000  0.93969000  1.0 -0.4292016188
N  N67  1  0.78430000  0.68020000  0.06031000  1.0 -0.4292016188
N  N68  1  0.71570000  0.18020000  0.43969000  1.0 -0.4292016188
N  N69  1  0.71570000  0.31980000  0.56031000  1.0 -0.4292016188
N  N70  1  0.21570000  0.18020000  0.06031000  1.0 -0.4292016188
N  N71  1  0.21570000  0.31980000  0.93969000  1.0 -0.4292016188
N  N72  1  0.28430000  0.81980000  0.56031000  1.0 -0.4292016188
N  N73  1  0.07620000  0.86510000  0.49853000  1.0 -0.421431593
N  N74  1  0.57620000  0.63490000  0.99853000  1.0 -0.421431593
N  N75  1  0.57620000  0.86510000  0.00147000  1.0 -0.421431593
N  N76  1  0.92380000  0.36510000  0.49853000  1.0 -0.421431593
N  N77  1  0.92380000  0.13490000  0.50147000  1.0 -0.421431593
N  N78  1  0.42380000  0.36510000  0.00147000  1.0 -0.421431593
N  N79  1  0.42380000  0.13490000  0.99853000  1.0 -0.421431593
N  N80  1  0.07620000  0.63490000  0.50147000  1.0 -0.421431593
N  N81  1  0.24180000  0.87130000  0.45136000  1.0 -0.4364798237
N  N82  1  0.74180000  0.62870000  0.95136000  1.0 -0.4364798237
N  N83  1  0.74180000  0.87130000  0.04864000  1.0 -0.4364798237
N  N84  1  0.75820000  0.37130000  0.45136000  1.0 -0.4364798237
N  N85  1  0.75820000  0.12870000  0.54864000  1.0 -0.4364798237
N  N86  1  0.25820000  0.37130000  0.04864000  1.0 -0.4364798237
N  N87  1  0.25820000  0.12870000  0.95136000  1.0 -0.4364798237
N  N88  1  0.24180000  0.62870000  0.54864000  1.0 -0.4364798237
N  N89  1  0.10860000  0.74010000  0.40617000  1.0 -0.4292016188
N  N90  1  0.60860000  0.75990000  0.90617000  1.0 -0.4292016188
N  N91  1  0.60860000  0.74010000  0.09383000  1.0 -0.4292016188
N  N92  1  0.89140000  0.24010000  0.40617000  1.0 -0.4292016188
N  N93  1  0.89140000  0.25990000  0.59383000  1.0 -0.4292016188
N  N94  1  0.39140000  0.24010000  0.09383000  1.0 -0.4292016188
N  N95  1  0.39140000  0.25990000  0.90617000  1.0 -0.4292016188
N  N96  1  0.10860000  0.75990000  0.59383000  1.0 -0.4292016188
N  N97  1  0.79010000  0.32240000  0.29943000  1.0 -0.0505539871
N  N98  1  0.29010000  0.17760000  0.79943000  1.0 -0.0505539871
N  N99  1  0.29010000  0.32240000  0.20057000  1.0 -0.0505539871
N  N100  1  0.20990000  0.82240000  0.29943000  1.0 -0.0505539871
N  N101  1  0.20990000  0.67760000  0.70057000  1.0 -0.0505539871
N  N102  1  0.70990000  0.82240000  0.20057000  1.0 -0.0505539871
N  N103  1  0.70990000  0.67760000  0.79943000  1.0 -0.0505539871
N  N104  1  0.79010000  0.17760000  0.70057000  1.0 -0.0505539871
N  N105  1  0.68710000  0.10850000  0.19182000  1.0 -0.0625710382
N  N106  1  0.18710000  0.39150000  0.69182000  1.0 -0.0625710382
N  N107  1  0.18710000  0.10850000  0.30818000  1.0 -0.0625710382
N  N108  1  0.31290000  0.60850000  0.19182000  1.0 -0.0625710382
N  N109  1  0.31290000  0.89150000  0.80818000  1.0 -0.0625710382
N  N110  1  0.81290000  0.60850000  0.30818000  1.0 -0.0625710382
N  N111  1  0.81290000  0.89150000  0.69182000  1.0 -0.0625710382
N  N112  1  0.68710000  0.39150000  0.80818000  1.0 -0.0625710382
N  N113  1  0.51130000  0.70010000  0.35865000  1.0 -0.0625710382
N  N114  1  0.01130000  0.79990000  0.85865000  1.0 -0.0625710382
N  N115  1  0.01130000  0.70010000  0.14135000  1.0 -0.0625710382
N  N116  1  0.48870000  0.20010000  0.35865000  1.0 -0.0625710382
N  N117  1  0.48870000  0.29990000  0.64135000  1.0 -0.0625710382
N  N118  1  0.98870000  0.20010000  0.14135000  1.0 -0.0625710382
N  N119  1  0.98870000  0.29990000  0.85865000  1.0 -0.0625710382
N  N120  1  0.51130000  0.79990000  0.64135000  1.0 -0.0625710382
N  N121  1  0.27370000  0.54840000  0.40737000  1.0 -0.0625710382
N  N122  1  0.77370000  0.95160000  0.90737000  1.0 -0.0625710382
N  N123  1  0.77370000  0.54840000  0.09263000  1.0 -0.0625710382
N  N124  1  0.72630000  0.04840000  0.40737000  1.0 -0.0625710382
N  N125  1  0.72630000  0.45160000  0.59263000  1.0 -0.0625710382
N  N126  1  0.22630000  0.04840000  0.09263000  1.0 -0.0625710382
N  N127  1  0.22630000  0.45160000  0.90737000  1.0 -0.0625710382
N  N128  1  0.27370000  0.95160000  0.59263000  1.0 -0.0625710382
N  N129  1  0.02940000  0.93290000  0.41765000  1.0 -0.0505539871
N  N130  1  0.52940000  0.56710000  0.91765000  1.0 -0.0505539871
N  N131  1  0.52940000  0.93290000  0.08235000  1.0 -0.0505539871
N  N132  1  0.97060000  0.43290000  0.41765000  1.0 -0.0505539871
N  N133  1  0.97060000  0.06710000  0.58235000  1.0 -0.0505539871
N  N134  1  0.47060000  0.43290000  0.08235000  1.0 -0.0505539871
N  N135  1  0.47060000  0.06710000  0.91765000  1.0 -0.0505539871
N  N136  1  0.02940000  0.56710000  0.58235000  1.0 -0.0505539871
O  O1  1  0.77530000  0.20010000  0.28096000  1.0 -0.5180614758
O  O2  1  0.27530000  0.29990000  0.78096000  1.0 -0.5180614758
O  O3  1  0.27530000  0.20010000  0.21904000  1.0 -0.5180614758
O  O4  1  0.22470000  0.70010000  0.28096000  1.0 -0.5180614758
O  O5  1  0.22470000  0.79990000  0.71904000  1.0 -0.5180614758
O  O6  1  0.72470000  0.70010000  0.21904000  1.0 -0.5180614758
O  O7  1  0.72470000  0.79990000  0.78096000  1.0 -0.5180614758
O  O8  1  0.77530000  0.29990000  0.71904000  1.0 -0.5180614758
O  O9  1  0.78550000  0.30700000  0.21250000  1.0 -0.4969475065
O  O10  1  0.28550000  0.19300000  0.71250000  1.0 -0.4969475065
O  O11  1  0.28550000  0.30700000  0.28750000  1.0 -0.4969475065
O  O12  1  0.21450000  0.80700000  0.21250000  1.0 -0.4969475065
O  O13  1  0.21450000  0.69300000  0.78750000  1.0 -0.4969475065
O  O14  1  0.71450000  0.80700000  0.28750000  1.0 -0.4969475065
O  O15  1  0.71450000  0.69300000  0.71250000  1.0 -0.4969475065
O  O16  1  0.78550000  0.19300000  0.78750000  1.0 -0.4969475065
O  O17  1  0.67840000  0.27660000  0.33470000  1.0 -0.4711703565
O  O18  1  0.17840000  0.22340000  0.83470000  1.0 -0.4711703565
O  O19  1  0.17840000  0.27660000  0.16530000  1.0 -0.4711703565
O  O20  1  0.32160000  0.77660000  0.33470000  1.0 -0.4711703565
O  O21  1  0.32160000  0.72340000  0.66530000  1.0 -0.4711703565
O  O22  1  0.82160000  0.77660000  0.16530000  1.0 -0.4711703565
O  O23  1  0.82160000  0.72340000  0.83470000  1.0 -0.4711703565
O  O24  1  0.67840000  0.22340000  0.66530000  1.0 -0.4711703565
O  O25  1  0.67111000  0.20750000  0.24154000  1.0 -0.5404806752
O  O26  1  0.17111000  0.29250000  0.74154000  1.0 -0.5404806752
O  O27  1  0.17111000  0.20750000  0.25846000  1.0 -0.5404806752
O  O28  1  0.32889000  0.70750000  0.24154000  1.0 -0.5404806752
O  O29  1  0.32889000  0.79250000  0.75846000  1.0 -0.5404806752
O  O30  1  0.82889000  0.70750000  0.25846000  1.0 -0.5404806752
O  O31  1  0.82889000  0.79250000  0.74154000  1.0 -0.5404806752
O  O32  1  0.67111000  0.29250000  0.75846000  1.0 -0.5404806752
O  O33  1  0.68090000  0.06830000  0.27498000  1.0 -0.4711703565
O  O34  1  0.18090000  0.43170000  0.77498000  1.0 -0.4711703565
O  O35  1  0.18090000  0.06830000  0.22502000  1.0 -0.4711703565
O  O36  1  0.31910000  0.56830000  0.27498000  1.0 -0.4711703565
O  O37  1  0.31910000  0.93170000  0.72502000  1.0 -0.4711703565
O  O38  1  0.81910000  0.56830000  0.22502000  1.0 -0.4711703565
O  O39  1  0.81910000  0.93170000  0.77498000  1.0 -0.4711703565
O  O40  1  0.68090000  0.43170000  0.72502000  1.0 -0.4711703565
O  O41  1  0.79470000  0.18390000  0.17974000  1.0 -0.4598269835
O  O42  1  0.29470000  0.31610000  0.67974000  1.0 -0.4598269835
O  O43  1  0.29470000  0.18390000  0.32026000  1.0 -0.4598269835
O  O44  1  0.20530000  0.68390000  0.17974000  1.0 -0.4598269835
O  O45  1  0.20530000  0.81610000  0.82026000  1.0 -0.4598269835
O  O46  1  0.70530000  0.68390000  0.32026000  1.0 -0.4598269835
O  O47  1  0.70530000  0.81610000  0.67974000  1.0 -0.4598269835
O  O48  1  0.79470000  0.31610000  0.82026000  1.0 -0.4598269835
O  O49  1  0.38550000  0.69060000  0.37782000  1.0 -0.5404806752
O  O50  1  0.88550000  0.80940000  0.87782000  1.0 -0.5404806752
O  O51  1  0.88550000  0.69060000  0.12218000  1.0 -0.5404806752
O  O52  1  0.61450000  0.19060000  0.37782000  1.0 -0.5404806752
O  O53  1  0.61450000  0.30940000  0.62218000  1.0 -0.5404806752
O  O54  1  0.11450000  0.19060000  0.12218000  1.0 -0.5404806752
O  O55  1  0.11450000  0.30940000  0.87782000  1.0 -0.5404806752
O  O56  1  0.38550000  0.80940000  0.62218000  1.0 -0.5404806752
O  O57  1  0.43620000  0.68680000  0.28593000  1.0 -0.421431593
O  O58  1  0.93620000  0.81320000  0.78593000  1.0 -0.421431593
O  O59  1  0.93620000  0.68680000  0.21407000  1.0 -0.421431593
O  O60  1  0.56380000  0.18680000  0.28593000  1.0 -0.421431593
O  O61  1  0.56380000  0.31320000  0.71407000  1.0 -0.421431593
O  O62  1  0.06380000  0.18680000  0.21407000  1.0 -0.421431593
O  O63  1  0.06380000  0.31320000  0.78593000  1.0 -0.421431593
O  O64  1  0.43620000  0.81320000  0.71407000  1.0 -0.421431593
O  O65  1  0.50570000  0.59240000  0.40473000  1.0 -0.4499937439
O  O66  1  0.00570000  0.90760000  0.90473000  1.0 -0.4499937439
O  O67  1  0.00570000  0.59240000  0.09527000  1.0 -0.4499937439
O  O68  1  0.49430000  0.09240000  0.40473000  1.0 -0.4499937439
O  O69  1  0.49430000  0.40760000  0.59527000  1.0 -0.4499937439
O  O70  1  0.99430000  0.09240000  0.09527000  1.0 -0.4499937439
O  O71  1  0.99430000  0.40760000  0.90473000  1.0 -0.4499937439
O  O72  1  0.50570000  0.90760000  0.59527000  1.0 -0.4499937439
O  O73  1  0.36690000  0.58150000  0.35162000  1.0 -0.5666675363
O  O74  1  0.86690000  0.91850000  0.85162000  1.0 -0.5666675363
O  O75  1  0.86690000  0.58150000  0.14838000  1.0 -0.5666675363
O  O76  1  0.63310000  0.08150000  0.35162000  1.0 -0.5666675363
O  O77  1  0.63310000  0.41850000  0.64838000  1.0 -0.5666675363
O  O78  1  0.13310000  0.08150000  0.14838000  1.0 -0.5666675363
O  O79  1  0.13310000  0.41850000  0.85162000  1.0 -0.5666675363
O  O80  1  0.36690000  0.91850000  0.64838000  1.0 -0.5666675363
O  O81  1  0.38570000  0.57370000  0.45841000  1.0 -0.3909163072
O  O82  1  0.88570000  0.92630000  0.95841000  1.0 -0.3909163072
O  O83  1  0.88570000  0.57370000  0.04159000  1.0 -0.3909163072
O  O84  1  0.61430000  0.07370000  0.45841000  1.0 -0.3909163072
O  O85  1  0.61430000  0.42630000  0.54159000  1.0 -0.3909163072
O  O86  1  0.11430000  0.07370000  0.04159000  1.0 -0.3909163072
O  O87  1  0.11430000  0.42630000  0.95841000  1.0 -0.3909163072
O  O88  1  0.38570000  0.92630000  0.54159000  1.0 -0.3909163072
O  O89  1  0.23670000  0.64830000  0.35632000  1.0 -0.4292016188
O  O90  1  0.73670000  0.85170000  0.85632000  1.0 -0.4292016188
O  O91  1  0.73670000  0.64830000  0.14368000  1.0 -0.4292016188
O  O92  1  0.76330000  0.14830000  0.35632000  1.0 -0.4292016188
O  O93  1  0.76330000  0.35170000  0.64368000  1.0 -0.4292016188
O  O94  1  0.26330000  0.14830000  0.14368000  1.0 -0.4292016188
O  O95  1  0.26330000  0.35170000  0.85632000  1.0 -0.4292016188
O  O96  1  0.23670000  0.85170000  0.64368000  1.0 -0.4292016188
O  O97  1  0.92820000  0.86220000  0.46400000  1.0 -0.404198044
O  O98  1  0.42820000  0.63780000  0.96400000  1.0 -0.404198044
O  O99  1  0.42820000  0.86220000  0.03600000  1.0 -0.404198044
O  O100  1  0.07180000  0.36220000  0.46400000  1.0 -0.404198044
O  O101  1  0.07180000  0.13780000  0.53600000  1.0 -0.404198044
O  O102  1  0.57180000  0.36220000  0.03600000  1.0 -0.404198044
O  O103  1  0.57180000  0.13780000  0.96400000  1.0 -0.404198044
O  O104  1  0.92820000  0.63780000  0.53600000  1.0 -0.404198044
O  O105  1  0.13290000  0.97940000  0.45745000  1.0 -0.4598269835
O  O106  1  0.63290000  0.52060000  0.95745000  1.0 -0.4598269835
O  O107  1  0.63290000  0.97940000  0.04255000  1.0 -0.4598269835
O  O108  1  0.86710000  0.47940000  0.45745000  1.0 -0.4598269835
O  O109  1  0.86710000  0.02060000  0.54255000  1.0 -0.4598269835
O  O110  1  0.36710000  0.47940000  0.04255000  1.0 -0.4598269835
O  O111  1  0.36710000  0.02060000  0.95745000  1.0 -0.4598269835
O  O112  1  0.13290000  0.52060000  0.54255000  1.0 -0.4598269835
O  O113  1  0.99430000  0.03370000  0.46647000  1.0 -0.4499937439
O  O114  1  0.49430000  0.46630000  0.96647000  1.0 -0.4499937439
O  O115  1  0.49430000  0.03370000  0.03353000  1.0 -0.4499937439
O  O116  1  0.00570000  0.53370000  0.46647000  1.0 -0.4499937439
O  O117  1  0.00570000  0.96630000  0.53353000  1.0 -0.4499937439
O  O118  1  0.50570000  0.53370000  0.03353000  1.0 -0.4499937439
O  O119  1  0.50570000  0.96630000  0.96647000  1.0 -0.4499937439
O  O120  1  0.99430000  0.46630000  0.53353000  1.0 -0.4499937439
