# DDEC6 charges by PACMAN v1.1 (https://github.com/mtap-research/PACMAN-charge/)
data_BAZBOW_ASR_pacman
_symmetry_space_group_name_H-M   'P 1'
_cell_length_a   22.13350000
_cell_length_b   22.13350000
_cell_length_c   22.13350000
_cell_angle_alpha   90.00000000
_cell_angle_beta   90.00000000
_cell_angle_gamma   90.00000000
_symmetry_Int_Tables_number   1
_chemical_formula_structural   Fe3H9C24N3O13
_chemical_formula_sum   'Fe24 H72 C192 N24 O104'
_cell_volume   10843.02064777
_cell_formula_units_Z   8
loop_
 _symmetry_equiv_pos_site_id
 _symmetry_equiv_pos_as_xyz
  1  'x, y, z'
loop_
 _atom_site_type_symbol
 _atom_site_label
 _atom_site_symmetry_multiplicity
 _atom_site_fract_x
 _atom_site_fract_y
 _atom_site_fract_z
 _atom_site_occupancy
 _atom_site_charge
Fe  Fe1  1  0.23758000  0.30540000  0.82210000  1.0 1.2439496311
Fe  Fe2  1  0.76242000  0.69460000  0.82210000  1.0 1.2456785685
Fe  Fe3  1  0.76242000  0.30540000  0.17790000  1.0 1.2456785685
Fe  Fe4  1  0.23758000  0.69460000  0.17790000  1.0 1.2439496311
Fe  Fe5  1  0.82210000  0.23758000  0.30540000  1.0 1.2456785685
Fe  Fe6  1  0.82210000  0.76242000  0.69460000  1.0 1.2456785685
Fe  Fe7  1  0.17790000  0.76242000  0.30540000  1.0 1.2439496311
Fe  Fe8  1  0.17790000  0.23758000  0.69460000  1.0 1.2439496311
Fe  Fe9  1  0.30540000  0.82210000  0.23758000  1.0 1.2456785685
Fe  Fe10  1  0.69460000  0.82210000  0.76242000  1.0 1.2456785685
Fe  Fe11  1  0.30540000  0.17790000  0.76242000  1.0 1.2439496311
Fe  Fe12  1  0.69460000  0.17790000  0.23758000  1.0 1.2439496311
Fe  Fe13  1  0.80540000  0.73758000  0.32210000  1.0 1.2456785685
Fe  Fe14  1  0.19460000  0.26242000  0.32210000  1.0 1.2439496311
Fe  Fe15  1  0.80540000  0.26242000  0.67790000  1.0 1.2456785685
Fe  Fe16  1  0.19460000  0.73758000  0.67790000  1.0 1.2439496311
Fe  Fe17  1  0.73758000  0.32210000  0.80540000  1.0 1.2456785685
Fe  Fe18  1  0.26242000  0.32210000  0.19460000  1.0 1.2456785685
Fe  Fe19  1  0.26242000  0.67790000  0.80540000  1.0 1.2439496311
Fe  Fe20  1  0.73758000  0.67790000  0.19460000  1.0 1.2456785685
Fe  Fe21  1  0.32210000  0.80540000  0.73758000  1.0 1.2456785685
Fe  Fe22  1  0.32210000  0.19460000  0.26242000  1.0 1.2456785685
Fe  Fe23  1  0.67790000  0.80540000  0.26242000  1.0 1.2456785685
Fe  Fe24  1  0.67790000  0.19460000  0.73758000  1.0 1.2456785685
H  H1  1  0.30280000  0.09110000  0.10770000  1.0 0.1389253519
H  H2  1  0.28310000  0.24400000  0.01050000  1.0 0.1389253519
H  H3  1  0.28760000  0.08320000  0.92640000  1.0 0.1329676845
H  H4  1  0.69720000  0.90890000  0.10770000  1.0 0.1389253519
H  H5  1  0.71690000  0.75600000  0.01050000  1.0 0.1389253519
H  H6  1  0.71240000  0.91680000  0.92640000  1.0 0.1329676845
H  H7  1  0.69720000  0.09110000  0.89230000  1.0 0.1389253519
H  H8  1  0.71690000  0.24400000  0.98950000  1.0 0.1389253519
H  H9  1  0.71240000  0.08320000  0.07360000  1.0 0.1329676845
H  H10  1  0.30280000  0.90890000  0.89230000  1.0 0.1389253519
H  H11  1  0.28310000  0.75600000  0.98950000  1.0 0.1389253519
H  H12  1  0.28760000  0.91680000  0.07360000  1.0 0.1329676845
H  H13  1  0.10770000  0.30280000  0.09110000  1.0 0.1389253519
H  H14  1  0.01050000  0.28310000  0.24400000  1.0 0.1389253519
H  H15  1  0.92640000  0.28760000  0.08320000  1.0 0.1329676845
H  H16  1  0.10770000  0.69720000  0.90890000  1.0 0.1389253519
H  H17  1  0.01050000  0.71690000  0.75600000  1.0 0.1389253519
H  H18  1  0.92640000  0.71240000  0.91680000  1.0 0.1329676845
H  H19  1  0.89230000  0.69720000  0.09110000  1.0 0.1389253519
H  H20  1  0.98950000  0.71690000  0.24400000  1.0 0.1389253519
H  H21  1  0.07360000  0.71240000  0.08320000  1.0 0.1329676845
H  H22  1  0.89230000  0.30280000  0.90890000  1.0 0.1389253519
H  H23  1  0.98950000  0.28310000  0.75600000  1.0 0.1389253519
H  H24  1  0.07360000  0.28760000  0.91680000  1.0 0.1329676845
H  H25  1  0.09110000  0.10770000  0.30280000  1.0 0.1389253519
H  H26  1  0.24400000  0.01050000  0.28310000  1.0 0.1389253519
H  H27  1  0.08320000  0.92640000  0.28760000  1.0 0.1329676845
H  H28  1  0.90890000  0.10770000  0.69720000  1.0 0.1389253519
H  H29  1  0.75600000  0.01050000  0.71690000  1.0 0.1389253519
H  H30  1  0.91680000  0.92640000  0.71240000  1.0 0.1329676845
H  H31  1  0.09110000  0.89230000  0.69720000  1.0 0.1389253519
H  H32  1  0.24400000  0.98950000  0.71690000  1.0 0.1389253519
H  H33  1  0.08320000  0.07360000  0.71240000  1.0 0.1329676845
H  H34  1  0.90890000  0.89230000  0.30280000  1.0 0.1389253519
H  H35  1  0.75600000  0.98950000  0.28310000  1.0 0.1389253519
H  H36  1  0.91680000  0.07360000  0.28760000  1.0 0.1329676845
H  H37  1  0.59110000  0.80280000  0.60770000  1.0 0.1389253519
H  H38  1  0.74400000  0.78310000  0.51050000  1.0 0.1389253519
H  H39  1  0.58320000  0.78760000  0.42640000  1.0 0.1329676845
H  H40  1  0.40890000  0.19720000  0.60770000  1.0 0.1389253519
H  H41  1  0.25600000  0.21690000  0.51050000  1.0 0.1389253519
H  H42  1  0.41680000  0.21240000  0.42640000  1.0 0.1329676845
H  H43  1  0.59110000  0.19720000  0.39230000  1.0 0.1389253519
H  H44  1  0.74400000  0.21690000  0.48950000  1.0 0.1389253519
H  H45  1  0.58320000  0.21240000  0.57360000  1.0 0.1329676845
H  H46  1  0.40890000  0.80280000  0.39230000  1.0 0.1389253519
H  H47  1  0.25600000  0.78310000  0.48950000  1.0 0.1389253519
H  H48  1  0.41680000  0.78760000  0.57360000  1.0 0.1329676845
H  H49  1  0.80280000  0.60770000  0.59110000  1.0 0.1389253519
H  H50  1  0.78310000  0.51050000  0.74400000  1.0 0.1389253519
H  H51  1  0.78760000  0.42640000  0.58320000  1.0 0.1329676845
H  H52  1  0.19720000  0.60770000  0.40890000  1.0 0.1389253519
H  H53  1  0.21690000  0.51050000  0.25600000  1.0 0.1389253519
H  H54  1  0.21240000  0.42640000  0.41680000  1.0 0.1329676845
H  H55  1  0.19720000  0.39230000  0.59110000  1.0 0.1389253519
H  H56  1  0.21690000  0.48950000  0.74400000  1.0 0.1389253519
H  H57  1  0.21240000  0.57360000  0.58320000  1.0 0.1329676845
H  H58  1  0.80280000  0.39230000  0.40890000  1.0 0.1389253519
H  H59  1  0.78310000  0.48950000  0.25600000  1.0 0.1389253519
H  H60  1  0.78760000  0.57360000  0.41680000  1.0 0.1329676845
H  H61  1  0.60770000  0.59110000  0.80280000  1.0 0.1389253519
H  H62  1  0.51050000  0.74400000  0.78310000  1.0 0.1389253519
H  H63  1  0.42640000  0.58320000  0.78760000  1.0 0.1329676845
H  H64  1  0.60770000  0.40890000  0.19720000  1.0 0.1389253519
H  H65  1  0.51050000  0.25600000  0.21690000  1.0 0.1389253519
H  H66  1  0.42640000  0.41680000  0.21240000  1.0 0.1329676845
H  H67  1  0.39230000  0.59110000  0.19720000  1.0 0.1389253519
H  H68  1  0.48950000  0.74400000  0.21690000  1.0 0.1389253519
H  H69  1  0.57360000  0.58320000  0.21240000  1.0 0.1329676845
H  H70  1  0.39230000  0.40890000  0.80280000  1.0 0.1389253519
H  H71  1  0.48950000  0.25600000  0.78310000  1.0 0.1389253519
H  H72  1  0.57360000  0.41680000  0.78760000  1.0 0.1329676845
C  C1  1  0.29650000  0.07740000  0.01740000  1.0 0.1642468822
C  C2  1  0.29860000  0.11060000  0.07070000  1.0 -0.1481057572
C  C3  1  0.29430000  0.17390000  0.06790000  1.0 -0.0158371603
C  C4  1  0.28660000  0.20210000  0.01220000  1.0 -0.0903439596
C  C5  1  0.28390000  0.16810000  0.95800000  1.0 -0.0081655429
C  C6  1  0.28910000  0.10620000  0.96160000  1.0 -0.1481057572
C  C7  1  0.29510000  0.20800000  0.12600000  1.0 0.6100777712
C  C8  1  0.27730000  0.19690000  0.89710000  1.0 0.6100777712
C  C9  1  0.70350000  0.92260000  0.01740000  1.0 0.1651367025
C  C10  1  0.70140000  0.88940000  0.07070000  1.0 -0.1481057572
C  C11  1  0.70570000  0.82610000  0.06790000  1.0 -0.0158371603
C  C12  1  0.71340000  0.79790000  0.01220000  1.0 -0.0903439596
C  C13  1  0.71610000  0.83190000  0.95800000  1.0 -0.0081655429
C  C14  1  0.71090000  0.89380000  0.96160000  1.0 -0.1481057572
C  C15  1  0.70490000  0.79200000  0.12600000  1.0 0.6100777712
C  C16  1  0.72270000  0.80310000  0.89710000  1.0 0.6100777712
C  C17  1  0.70350000  0.07740000  0.98260000  1.0 0.1642468822
C  C18  1  0.70140000  0.11060000  0.92930000  1.0 -0.1481057572
C  C19  1  0.70570000  0.17390000  0.93210000  1.0 -0.0158371603
C  C20  1  0.71340000  0.20210000  0.98780000  1.0 -0.0903439596
C  C21  1  0.71610000  0.16810000  0.04200000  1.0 -0.0081655429
C  C22  1  0.71090000  0.10620000  0.03840000  1.0 -0.1481057572
C  C23  1  0.70490000  0.20800000  0.87400000  1.0 0.6100777712
C  C24  1  0.72270000  0.19690000  0.10290000  1.0 0.6100777712
C  C25  1  0.29650000  0.92260000  0.98260000  1.0 0.1642468822
C  C26  1  0.29860000  0.88940000  0.92930000  1.0 -0.1481057572
C  C27  1  0.29430000  0.82610000  0.93210000  1.0 -0.0158371603
C  C28  1  0.28660000  0.79790000  0.98780000  1.0 -0.0903439596
C  C29  1  0.28390000  0.83190000  0.04200000  1.0 -0.0081655429
C  C30  1  0.28910000  0.89380000  0.03840000  1.0 -0.1481057572
C  C31  1  0.29510000  0.79200000  0.87400000  1.0 0.6100777712
C  C32  1  0.27730000  0.80310000  0.10290000  1.0 0.6100777712
C  C33  1  0.01740000  0.29650000  0.07740000  1.0 0.1642468822
C  C34  1  0.07070000  0.29860000  0.11060000  1.0 -0.1481057572
C  C35  1  0.06790000  0.29430000  0.17390000  1.0 -0.0158371603
C  C36  1  0.01220000  0.28660000  0.20210000  1.0 -0.0903439596
C  C37  1  0.95800000  0.28390000  0.16810000  1.0 -0.0081655429
C  C38  1  0.96160000  0.28910000  0.10620000  1.0 -0.1481057572
C  C39  1  0.12600000  0.29510000  0.20800000  1.0 0.6100777712
C  C40  1  0.89710000  0.27730000  0.19690000  1.0 0.6100777712
C  C41  1  0.01740000  0.70350000  0.92260000  1.0 0.1642468822
C  C42  1  0.07070000  0.70140000  0.88940000  1.0 -0.1481057572
C  C43  1  0.06790000  0.70570000  0.82610000  1.0 -0.0158371603
C  C44  1  0.01220000  0.71340000  0.79790000  1.0 -0.0903439596
C  C45  1  0.95800000  0.71610000  0.83190000  1.0 -0.0081655429
C  C46  1  0.96160000  0.71090000  0.89380000  1.0 -0.1481057572
C  C47  1  0.12600000  0.70490000  0.79200000  1.0 0.6100777712
C  C48  1  0.89710000  0.72270000  0.80310000  1.0 0.6100777712
C  C49  1  0.98260000  0.70350000  0.07740000  1.0 0.1642468822
C  C50  1  0.92930000  0.70140000  0.11060000  1.0 -0.1481057572
C  C51  1  0.93210000  0.70570000  0.17390000  1.0 -0.0158371603
C  C52  1  0.98780000  0.71340000  0.20210000  1.0 -0.0903439596
C  C53  1  0.04200000  0.71610000  0.16810000  1.0 -0.0081655429
C  C54  1  0.03840000  0.71090000  0.10620000  1.0 -0.1481057572
C  C55  1  0.87400000  0.70490000  0.20800000  1.0 0.6100777712
C  C56  1  0.10290000  0.72270000  0.19690000  1.0 0.6100777712
C  C57  1  0.98260000  0.29650000  0.92260000  1.0 0.1642468822
C  C58  1  0.92930000  0.29860000  0.88940000  1.0 -0.1481057572
C  C59  1  0.93210000  0.29430000  0.82610000  1.0 -0.0158371603
C  C60  1  0.98780000  0.28660000  0.79790000  1.0 -0.0903439596
C  C61  1  0.04200000  0.28390000  0.83190000  1.0 -0.0081655429
C  C62  1  0.03840000  0.28910000  0.89380000  1.0 -0.1481057572
C  C63  1  0.87400000  0.29510000  0.79200000  1.0 0.6100777712
C  C64  1  0.10290000  0.27730000  0.80310000  1.0 0.6100777712
C  C65  1  0.07740000  0.01740000  0.29650000  1.0 0.1642468822
C  C66  1  0.11060000  0.07070000  0.29860000  1.0 -0.1481057572
C  C67  1  0.17390000  0.06790000  0.29430000  1.0 -0.0158371603
C  C68  1  0.20210000  0.01220000  0.28660000  1.0 -0.0903439596
C  C69  1  0.16810000  0.95800000  0.28390000  1.0 -0.0081655429
C  C70  1  0.10620000  0.96160000  0.28910000  1.0 -0.1481057572
C  C71  1  0.20800000  0.12600000  0.29510000  1.0 0.6100777712
C  C72  1  0.19690000  0.89710000  0.27730000  1.0 0.6100777712
C  C73  1  0.92260000  0.01740000  0.70350000  1.0 0.1642468822
C  C74  1  0.88940000  0.07070000  0.70140000  1.0 -0.1481057572
C  C75  1  0.82610000  0.06790000  0.70570000  1.0 -0.0158371603
C  C76  1  0.79790000  0.01220000  0.71340000  1.0 -0.0903439596
C  C77  1  0.83190000  0.95800000  0.71610000  1.0 -0.0081655429
C  C78  1  0.89380000  0.96160000  0.71090000  1.0 -0.1481057572
C  C79  1  0.79200000  0.12600000  0.70490000  1.0 0.6100777712
C  C80  1  0.80310000  0.89710000  0.72270000  1.0 0.6100777712
C  C81  1  0.07740000  0.98260000  0.70350000  1.0 0.1642468822
C  C82  1  0.11060000  0.92930000  0.70140000  1.0 -0.1481057572
C  C83  1  0.17390000  0.93210000  0.70570000  1.0 -0.0158371603
C  C84  1  0.20210000  0.98780000  0.71340000  1.0 -0.0903439596
C  C85  1  0.16810000  0.04200000  0.71610000  1.0 -0.0081655429
C  C86  1  0.10620000  0.03840000  0.71090000  1.0 -0.1481057572
C  C87  1  0.20800000  0.87400000  0.70490000  1.0 0.6100777712
C  C88  1  0.19690000  0.10290000  0.72270000  1.0 0.6100777712
C  C89  1  0.92260000  0.98260000  0.29650000  1.0 0.1642468822
C  C90  1  0.88940000  0.92930000  0.29860000  1.0 -0.1481057572
C  C91  1  0.82610000  0.93210000  0.29430000  1.0 -0.0158371603
C  C92  1  0.79790000  0.98780000  0.28660000  1.0 -0.0903439596
C  C93  1  0.83190000  0.04200000  0.28390000  1.0 -0.0081655429
C  C94  1  0.89380000  0.03840000  0.28910000  1.0 -0.1481057572
C  C95  1  0.79200000  0.87400000  0.29510000  1.0 0.6100777712
C  C96  1  0.80310000  0.10290000  0.27730000  1.0 0.6100777712
C  C97  1  0.57740000  0.79650000  0.51740000  1.0 0.1642468822
C  C98  1  0.61060000  0.79860000  0.57070000  1.0 -0.1481057572
C  C99  1  0.67390000  0.79430000  0.56790000  1.0 -0.0158371603
C  C100  1  0.70210000  0.78660000  0.51220000  1.0 -0.0903439596
C  C101  1  0.66810000  0.78390000  0.45800000  1.0 -0.0081655429
C  C102  1  0.60620000  0.78910000  0.46160000  1.0 -0.1481057572
C  C103  1  0.70800000  0.79510000  0.62600000  1.0 0.6100777712
C  C104  1  0.69690000  0.77730000  0.39710000  1.0 0.6100777712
C  C105  1  0.42260000  0.20350000  0.51740000  1.0 0.1642468822
C  C106  1  0.38940000  0.20140000  0.57070000  1.0 -0.1481057572
C  C107  1  0.32610000  0.20570000  0.56790000  1.0 -0.0158371603
C  C108  1  0.29790000  0.21340000  0.51220000  1.0 -0.0903439596
C  C109  1  0.33190000  0.21610000  0.45800000  1.0 -0.0081655429
C  C110  1  0.39380000  0.21090000  0.46160000  1.0 -0.1481057572
C  C111  1  0.29200000  0.20490000  0.62600000  1.0 0.6100777712
C  C112  1  0.30310000  0.22270000  0.39710000  1.0 0.6100777712
C  C113  1  0.57740000  0.20350000  0.48260000  1.0 0.1642468822
C  C114  1  0.61060000  0.20140000  0.42930000  1.0 -0.1481057572
C  C115  1  0.67390000  0.20570000  0.43210000  1.0 -0.0158371603
C  C116  1  0.70210000  0.21340000  0.48780000  1.0 -0.0903439596
C  C117  1  0.66810000  0.21610000  0.54200000  1.0 -0.0081655429
C  C118  1  0.60620000  0.21090000  0.53840000  1.0 -0.1481057572
C  C119  1  0.70800000  0.20490000  0.37400000  1.0 0.6100777712
C  C120  1  0.69690000  0.22270000  0.60290000  1.0 0.6100777712
C  C121  1  0.42260000  0.79650000  0.48260000  1.0 0.1642468822
C  C122  1  0.38940000  0.79860000  0.42930000  1.0 -0.1481057572
C  C123  1  0.32610000  0.79430000  0.43210000  1.0 -0.0158371603
C  C124  1  0.29790000  0.78660000  0.48780000  1.0 -0.0903439596
C  C125  1  0.33190000  0.78390000  0.54200000  1.0 -0.0081655429
C  C126  1  0.39380000  0.78910000  0.53840000  1.0 -0.1481057572
C  C127  1  0.29200000  0.79510000  0.37400000  1.0 0.6100777712
C  C128  1  0.30310000  0.77730000  0.60290000  1.0 0.6100777712
C  C129  1  0.79650000  0.51740000  0.57740000  1.0 0.1642468822
C  C130  1  0.79860000  0.57070000  0.61060000  1.0 -0.1481057572
C  C131  1  0.79430000  0.56790000  0.67390000  1.0 -0.0158371603
C  C132  1  0.78660000  0.51220000  0.70210000  1.0 -0.0903439596
C  C133  1  0.78390000  0.45800000  0.66810000  1.0 -0.0081655429
C  C134  1  0.78910000  0.46160000  0.60620000  1.0 -0.1481057572
C  C135  1  0.79510000  0.62600000  0.70800000  1.0 0.6100777712
C  C136  1  0.77730000  0.39710000  0.69690000  1.0 0.6100777712
C  C137  1  0.20350000  0.51740000  0.42260000  1.0 0.1642468822
C  C138  1  0.20140000  0.57070000  0.38940000  1.0 -0.1481057572
C  C139  1  0.20570000  0.56790000  0.32610000  1.0 -0.0158371603
C  C140  1  0.21340000  0.51220000  0.29790000  1.0 -0.0903439596
C  C141  1  0.21610000  0.45800000  0.33190000  1.0 -0.0081655429
C  C142  1  0.21090000  0.46160000  0.39380000  1.0 -0.1481057572
C  C143  1  0.20490000  0.62600000  0.29200000  1.0 0.6100777712
C  C144  1  0.22270000  0.39710000  0.30310000  1.0 0.6100777712
C  C145  1  0.20350000  0.48260000  0.57740000  1.0 0.1642468822
C  C146  1  0.20140000  0.42930000  0.61060000  1.0 -0.1481057572
C  C147  1  0.20570000  0.43210000  0.67390000  1.0 -0.0158371603
C  C148  1  0.21340000  0.48780000  0.70210000  1.0 -0.0903439596
C  C149  1  0.21610000  0.54200000  0.66810000  1.0 -0.0081655429
C  C150  1  0.21090000  0.53840000  0.60620000  1.0 -0.1481057572
C  C151  1  0.20490000  0.37400000  0.70800000  1.0 0.6100777712
C  C152  1  0.22270000  0.60290000  0.69690000  1.0 0.6100777712
C  C153  1  0.79650000  0.48260000  0.42260000  1.0 0.1642468822
C  C154  1  0.79860000  0.42930000  0.38940000  1.0 -0.1481057572
C  C155  1  0.79430000  0.43210000  0.32610000  1.0 -0.0158371603
C  C156  1  0.78660000  0.48780000  0.29790000  1.0 -0.0903439596
C  C157  1  0.78390000  0.54200000  0.33190000  1.0 -0.0081655429
C  C158  1  0.78910000  0.53840000  0.39380000  1.0 -0.1481057572
C  C159  1  0.79510000  0.37400000  0.29200000  1.0 0.6100777712
C  C160  1  0.77730000  0.60290000  0.30310000  1.0 0.6100777712
C  C161  1  0.51740000  0.57740000  0.79650000  1.0 0.1642468822
C  C162  1  0.57070000  0.61060000  0.79860000  1.0 -0.1481057572
C  C163  1  0.56790000  0.67390000  0.79430000  1.0 -0.0158371603
C  C164  1  0.51220000  0.70210000  0.78660000  1.0 -0.0903439596
C  C165  1  0.45800000  0.66810000  0.78390000  1.0 -0.0081655429
C  C166  1  0.46160000  0.60620000  0.78910000  1.0 -0.1481057572
C  C167  1  0.62600000  0.70800000  0.79510000  1.0 0.6100777712
C  C168  1  0.39710000  0.69690000  0.77730000  1.0 0.6100777712
C  C169  1  0.51740000  0.42260000  0.20350000  1.0 0.1642468822
C  C170  1  0.57070000  0.38940000  0.20140000  1.0 -0.1481057572
C  C171  1  0.56790000  0.32610000  0.20570000  1.0 -0.0158371603
C  C172  1  0.51220000  0.29790000  0.21340000  1.0 -0.0903439596
C  C173  1  0.45800000  0.33190000  0.21610000  1.0 -0.0081655429
C  C174  1  0.46160000  0.39380000  0.21090000  1.0 -0.1481057572
C  C175  1  0.62600000  0.29200000  0.20490000  1.0 0.6100777712
C  C176  1  0.39710000  0.30310000  0.22270000  1.0 0.6100777712
C  C177  1  0.48260000  0.57740000  0.20350000  1.0 0.1642468822
C  C178  1  0.42930000  0.61060000  0.20140000  1.0 -0.1481057572
C  C179  1  0.43210000  0.67390000  0.20570000  1.0 -0.0158371603
C  C180  1  0.48780000  0.70210000  0.21340000  1.0 -0.0903439596
C  C181  1  0.54200000  0.66810000  0.21610000  1.0 -0.0081655429
C  C182  1  0.53840000  0.60620000  0.21090000  1.0 -0.1481057572
C  C183  1  0.37400000  0.70800000  0.20490000  1.0 0.6100777712
C  C184  1  0.60290000  0.69690000  0.22270000  1.0 0.6100777712
C  C185  1  0.48260000  0.42260000  0.79650000  1.0 0.1642468822
C  C186  1  0.42930000  0.38940000  0.79860000  1.0 -0.1481057572
C  C187  1  0.43210000  0.32610000  0.79430000  1.0 -0.0158371603
C  C188  1  0.48780000  0.29790000  0.78660000  1.0 -0.0903439596
C  C189  1  0.54200000  0.33190000  0.78390000  1.0 -0.0081655429
C  C190  1  0.53840000  0.39380000  0.78910000  1.0 -0.1481057572
C  C191  1  0.37400000  0.29200000  0.79510000  1.0 0.6100777712
C  C192  1  0.60290000  0.30310000  0.77730000  1.0 0.6100777712
N  N1  1  0.29800000  0.01430000  0.02380000  1.0 -0.1201039676
N  N2  1  0.70200000  0.98570000  0.02380000  1.0 -0.1201039676
N  N3  1  0.70200000  0.01430000  0.97620000  1.0 -0.1201039676
N  N4  1  0.29800000  0.98570000  0.97620000  1.0 -0.1201039676
N  N5  1  0.02380000  0.29800000  0.01430000  1.0 -0.1201039676
N  N6  1  0.02380000  0.70200000  0.98570000  1.0 -0.1201039676
N  N7  1  0.97620000  0.70200000  0.01430000  1.0 -0.1201039676
N  N8  1  0.97620000  0.29800000  0.98570000  1.0 -0.1201039676
N  N9  1  0.01430000  0.02380000  0.29800000  1.0 -0.1201039676
N  N10  1  0.98570000  0.02380000  0.70200000  1.0 -0.1201039676
N  N11  1  0.01430000  0.97620000  0.70200000  1.0 -0.1201039676
N  N12  1  0.98570000  0.97620000  0.29800000  1.0 -0.1201039676
N  N13  1  0.51430000  0.79800000  0.52380000  1.0 -0.1201039676
N  N14  1  0.48570000  0.20200000  0.52380000  1.0 -0.1201039676
N  N15  1  0.51430000  0.20200000  0.47620000  1.0 -0.1201039676
N  N16  1  0.48570000  0.79800000  0.47620000  1.0 -0.1201039676
N  N17  1  0.79800000  0.52380000  0.51430000  1.0 -0.1201039676
N  N18  1  0.20200000  0.52380000  0.48570000  1.0 -0.1201039676
N  N19  1  0.20200000  0.47620000  0.51430000  1.0 -0.1201039676
N  N20  1  0.79800000  0.47620000  0.48570000  1.0 -0.1201039676
N  N21  1  0.52380000  0.51430000  0.79800000  1.0 -0.1201039676
N  N22  1  0.52380000  0.48570000  0.20200000  1.0 -0.1201039676
N  N23  1  0.47620000  0.51430000  0.20200000  1.0 -0.1201039676
N  N24  1  0.47620000  0.48570000  0.79800000  1.0 -0.1201039676
O  O1  1  0.31120000  0.17790000  0.17230000  1.0 -0.5629557991
O  O2  1  0.27960000  0.26160000  0.12530000  1.0 -0.5324511552
O  O3  1  0.25820000  0.25010000  0.89600000  1.0 -0.5485338158
O  O4  1  0.28990000  0.16390000  0.85330000  1.0 -0.5485338158
O  O5  1  0.68880000  0.82210000  0.17230000  1.0 -0.5629557991
O  O6  1  0.72040000  0.73840000  0.12530000  1.0 -0.5324511552
O  O7  1  0.74180000  0.74990000  0.89600000  1.0 -0.5485338158
O  O8  1  0.71010000  0.83610000  0.85330000  1.0 -0.5485338158
O  O9  1  0.68880000  0.17790000  0.82770000  1.0 -0.5629557991
O  O10  1  0.72040000  0.26160000  0.87470000  1.0 -0.5324511552
O  O11  1  0.74180000  0.25010000  0.10400000  1.0 -0.5485338158
O  O12  1  0.71010000  0.16390000  0.14670000  1.0 -0.5485338158
O  O13  1  0.31120000  0.82210000  0.82770000  1.0 -0.5629557991
O  O14  1  0.27960000  0.73840000  0.87470000  1.0 -0.5324511552
O  O15  1  0.25820000  0.74990000  0.10400000  1.0 -0.5485338158
O  O16  1  0.28990000  0.83610000  0.14670000  1.0 -0.5485338158
O  O17  1  0.17230000  0.31120000  0.17790000  1.0 -0.5629557991
O  O18  1  0.12530000  0.27960000  0.26160000  1.0 -0.5324511552
O  O19  1  0.89600000  0.25820000  0.25010000  1.0 -0.5485338158
O  O20  1  0.85330000  0.28990000  0.16390000  1.0 -0.5485338158
O  O21  1  0.17230000  0.68880000  0.82210000  1.0 -0.5629557991
O  O22  1  0.12530000  0.72040000  0.73840000  1.0 -0.5324511552
O  O23  1  0.89600000  0.74180000  0.74990000  1.0 -0.5485338158
O  O24  1  0.85330000  0.71010000  0.83610000  1.0 -0.5485338158
O  O25  1  0.82770000  0.68880000  0.17790000  1.0 -0.5629557991
O  O26  1  0.87470000  0.72040000  0.26160000  1.0 -0.5324511552
O  O27  1  0.10400000  0.74180000  0.25010000  1.0 -0.5485338158
O  O28  1  0.14670000  0.71010000  0.16390000  1.0 -0.5485338158
O  O29  1  0.82770000  0.31120000  0.82210000  1.0 -0.5629557991
O  O30  1  0.87470000  0.27960000  0.73840000  1.0 -0.5324511552
O  O31  1  0.10400000  0.25820000  0.74990000  1.0 -0.5485338158
O  O32  1  0.14670000  0.28990000  0.83610000  1.0 -0.5485338158
O  O33  1  0.17790000  0.17230000  0.31120000  1.0 -0.5629557991
O  O34  1  0.26160000  0.12530000  0.27960000  1.0 -0.5324511552
O  O35  1  0.25010000  0.89600000  0.25820000  1.0 -0.5485338158
O  O36  1  0.16390000  0.85330000  0.28990000  1.0 -0.5485338158
O  O37  1  0.82210000  0.17230000  0.68880000  1.0 -0.5629557991
O  O38  1  0.73840000  0.12530000  0.72040000  1.0 -0.5324511552
O  O39  1  0.74990000  0.89600000  0.74180000  1.0 -0.5485338158
O  O40  1  0.83610000  0.85330000  0.71010000  1.0 -0.5485338158
O  O41  1  0.17790000  0.82770000  0.68880000  1.0 -0.5629557991
O  O42  1  0.26160000  0.87470000  0.72040000  1.0 -0.5324511552
O  O43  1  0.25010000  0.10400000  0.74180000  1.0 -0.5485338158
O  O44  1  0.16390000  0.14670000  0.71010000  1.0 -0.5485338158
O  O45  1  0.82210000  0.82770000  0.31120000  1.0 -0.5629557991
O  O46  1  0.73840000  0.87470000  0.27960000  1.0 -0.5324511552
O  O47  1  0.74990000  0.10400000  0.25820000  1.0 -0.5485338158
O  O48  1  0.83610000  0.14670000  0.28990000  1.0 -0.5485338158
O  O49  1  0.67790000  0.81120000  0.67230000  1.0 -0.5629557991
O  O50  1  0.76160000  0.77960000  0.62530000  1.0 -0.5324511552
O  O51  1  0.75010000  0.75820000  0.39600000  1.0 -0.5485338158
O  O52  1  0.66390000  0.78990000  0.35330000  1.0 -0.5485338158
O  O53  1  0.32210000  0.18880000  0.67230000  1.0 -0.5629557991
O  O54  1  0.23840000  0.22040000  0.62530000  1.0 -0.5324511552
O  O55  1  0.24990000  0.24180000  0.39600000  1.0 -0.5485338158
O  O56  1  0.33610000  0.21010000  0.35330000  1.0 -0.5485338158
O  O57  1  0.67790000  0.18880000  0.32770000  1.0 -0.5629557991
O  O58  1  0.76160000  0.22040000  0.37470000  1.0 -0.5324511552
O  O59  1  0.75010000  0.24180000  0.60400000  1.0 -0.5485338158
O  O60  1  0.66390000  0.21010000  0.64670000  1.0 -0.5485338158
O  O61  1  0.32210000  0.81120000  0.32770000  1.0 -0.5629557991
O  O62  1  0.23840000  0.77960000  0.37470000  1.0 -0.5324511552
O  O63  1  0.24990000  0.75820000  0.60400000  1.0 -0.5485338158
O  O64  1  0.33610000  0.78990000  0.64670000  1.0 -0.5485338158
O  O65  1  0.81120000  0.67230000  0.67790000  1.0 -0.5629557991
O  O66  1  0.77960000  0.62530000  0.76160000  1.0 -0.5324511552
O  O67  1  0.75820000  0.39600000  0.75010000  1.0 -0.5485338158
O  O68  1  0.78990000  0.35330000  0.66390000  1.0 -0.5485338158
O  O69  1  0.18880000  0.67230000  0.32210000  1.0 -0.5629557991
O  O70  1  0.22040000  0.62530000  0.23840000  1.0 -0.5324511552
O  O71  1  0.24180000  0.39600000  0.24990000  1.0 -0.5485338158
O  O72  1  0.21010000  0.35330000  0.33610000  1.0 -0.5485338158
O  O73  1  0.18880000  0.32770000  0.67790000  1.0 -0.5629557991
O  O74  1  0.22040000  0.37470000  0.76160000  1.0 -0.5324511552
O  O75  1  0.24180000  0.60400000  0.75010000  1.0 -0.5485338158
O  O76  1  0.21010000  0.64670000  0.66390000  1.0 -0.5485338158
O  O77  1  0.81120000  0.32770000  0.32210000  1.0 -0.5629557991
O  O78  1  0.77960000  0.37470000  0.23840000  1.0 -0.5324511552
O  O79  1  0.75820000  0.60400000  0.24990000  1.0 -0.5485338158
O  O80  1  0.78990000  0.64670000  0.33610000  1.0 -0.5485338158
O  O81  1  0.67230000  0.67790000  0.81120000  1.0 -0.5629557991
O  O82  1  0.62530000  0.76160000  0.77960000  1.0 -0.5324511552
O  O83  1  0.39600000  0.75010000  0.75820000  1.0 -0.5485338158
O  O84  1  0.35330000  0.66390000  0.78990000  1.0 -0.5485338158
O  O85  1  0.67230000  0.32210000  0.18880000  1.0 -0.5629557991
O  O86  1  0.62530000  0.23840000  0.22040000  1.0 -0.5324511552
O  O87  1  0.39600000  0.24990000  0.24180000  1.0 -0.5485338158
O  O88  1  0.35330000  0.33610000  0.21010000  1.0 -0.5485338158
O  O89  1  0.32770000  0.67790000  0.18880000  1.0 -0.5629557991
O  O90  1  0.37470000  0.76160000  0.22040000  1.0 -0.5324511552
O  O91  1  0.60400000  0.75010000  0.24180000  1.0 -0.5485338158
O  O92  1  0.64670000  0.66390000  0.21010000  1.0 -0.5485338158
O  O93  1  0.32770000  0.32210000  0.81120000  1.0 -0.5629557991
O  O94  1  0.37470000  0.23840000  0.77960000  1.0 -0.5324511552
O  O95  1  0.60400000  0.24990000  0.75820000  1.0 -0.5485338158
O  O96  1  0.64670000  0.33610000  0.78990000  1.0 -0.5485338158
O  O97  1  0.24050000  0.24050000  0.75950000  1.0 -0.950693802
O  O98  1  0.75950000  0.75950000  0.75950000  1.0 -0.950693802
O  O99  1  0.75950000  0.24050000  0.24050000  1.0 -0.950693802
O  O100  1  0.24050000  0.75950000  0.24050000  1.0 -0.950693802
O  O101  1  0.74050000  0.74050000  0.25950000  1.0 -0.950693802
O  O102  1  0.25950000  0.25950000  0.25950000  1.0 -0.9567763879
O  O103  1  0.74050000  0.25950000  0.74050000  1.0 -0.950693802
O  O104  1  0.25950000  0.74050000  0.74050000  1.0 -0.950693802
