# DDEC6 charges by PACMAN v1.1 (https://github.com/mtap-research/PACMAN-charge/)
data_BAZDAJ_ASR_pacman
_symmetry_space_group_name_H-M   'P 1'
_cell_length_a   13.30820000
_cell_length_b   15.62190000
_cell_length_c   16.47270000
_cell_angle_alpha   90.00000000
_cell_angle_beta   90.00000000
_cell_angle_gamma   90.00000000
_symmetry_Int_Tables_number   1
_chemical_formula_structural   MnCrFeH22C26N4(ClO7)2
_chemical_formula_sum   'Mn4 Cr4 Fe4 H88 C104 N16 Cl8 O56'
_cell_volume   3424.66394528
_cell_formula_units_Z   4
loop_
 _symmetry_equiv_pos_site_id
 _symmetry_equiv_pos_as_xyz
  1  'x, y, z'
loop_
 _atom_site_type_symbol
 _atom_site_label
 _atom_site_symmetry_multiplicity
 _atom_site_fract_x
 _atom_site_fract_y
 _atom_site_fract_z
 _atom_site_occupancy
 _atom_site_charge
Mn  Mn1  1  0.82470000  0.86006000  0.85701000  1.0 0.939945464
Mn  Mn2  1  0.67530000  0.13994000  0.35701000  1.0 0.939945464
Mn  Mn3  1  0.32470000  0.63994000  0.14299000  1.0 0.939945464
Mn  Mn4  1  0.17530000  0.36006000  0.64299000  1.0 0.939945464
Cr  Cr1  1  0.11215000  0.61551000  0.86353000  1.0 1.2672604071
Cr  Cr2  1  0.38785000  0.38449000  0.36353000  1.0 1.2672604071
Cr  Cr3  1  0.61215000  0.88449000  0.13647000  1.0 1.2672604071
Cr  Cr4  1  0.88785000  0.11551000  0.63647000  1.0 1.2672604071
Fe  Fe1  1  0.90049000  0.25243000  0.96593000  1.0 0.4976277696
Fe  Fe2  1  0.59951000  0.74757000  0.46593000  1.0 0.4976277696
Fe  Fe3  1  0.40049000  0.24757000  0.03407000  1.0 0.4976277696
Fe  Fe4  1  0.09951000  0.75243000  0.53407000  1.0 0.4976277696
H  H1  1  0.98480000  0.25390000  0.22330000  1.0 0.1474049051
H  H2  1  0.04900000  0.36340000  0.30350000  1.0 0.1397235018
H  H3  1  0.01770000  0.53020000  0.12160000  1.0 0.1397235018
H  H4  1  0.94930000  0.48990000  0.99360000  1.0 0.1188289956
H  H5  1  0.92720000  0.46150000  0.86050000  1.0 0.1262986222
H  H6  1  0.81230000  0.43280000  0.87360000  1.0 0.1097474306
H  H7  1  0.96980000  0.33100000  0.80790000  1.0 0.1262986222
H  H8  1  0.86700000  0.35690000  0.76320000  1.0 0.1097474306
H  H9  1  0.71190000  0.20660000  0.82980000  1.0 0.1188289956
H  H10  1  0.71460000  0.30480000  0.80150000  1.0 0.1097474306
H  H11  1  0.69880000  0.35420000  0.93360000  1.0 0.1097474306
H  H12  1  0.62030000  0.27600000  0.92930000  1.0 0.1188289956
H  H13  1  0.70060000  0.12920000  0.94470000  1.0 0.1097474306
H  H14  1  0.65940000  0.14970000  0.03440000  1.0 0.1188289956
H  H15  1  0.81730000  0.12200000  0.09180000  1.0 0.1188289956
H  H16  1  0.79440000  0.04250000  0.03250000  1.0 0.1188289956
H  H17  1  0.95120000  0.01600000  0.98650000  1.0 0.1188289956
H  H18  1  0.09440000  0.96170000  0.91170000  1.0 0.1474049051
H  H19  1  0.27590000  0.12380000  0.79180000  1.0 0.1397235018
H  H20  1  0.18000000  0.23780000  0.82960000  1.0 0.1474049051
H  H21  1  0.87120000  0.21710000  0.81990000  1.0 0.2693743752
H  H22  1  0.74000000  0.27180000  0.03860000  1.0 0.2533144103
H  H23  1  0.51520000  0.74610000  0.72330000  1.0 0.1474049051
H  H24  1  0.45100000  0.63660000  0.80350000  1.0 0.1397235018
H  H25  1  0.48230000  0.46980000  0.62160000  1.0 0.1397235018
H  H26  1  0.55070000  0.51010000  0.49360000  1.0 0.1188289956
H  H27  1  0.57280000  0.53850000  0.36050000  1.0 0.1262986222
H  H28  1  0.68770000  0.56720000  0.37360000  1.0 0.1097474306
H  H29  1  0.53020000  0.66900000  0.30790000  1.0 0.1262986222
H  H30  1  0.63300000  0.64310000  0.26320000  1.0 0.1097474306
H  H31  1  0.78810000  0.79340000  0.32980000  1.0 0.1188289956
H  H32  1  0.78540000  0.69520000  0.30150000  1.0 0.1097474306
H  H33  1  0.80120000  0.64580000  0.43360000  1.0 0.1097474306
H  H34  1  0.87970000  0.72400000  0.42930000  1.0 0.1188289956
H  H35  1  0.79940000  0.87080000  0.44470000  1.0 0.1097474306
H  H36  1  0.84060000  0.85030000  0.53440000  1.0 0.1188289956
H  H37  1  0.68270000  0.87800000  0.59180000  1.0 0.1188289956
H  H38  1  0.70560000  0.95750000  0.53250000  1.0 0.1188289956
H  H39  1  0.54880000  0.98400000  0.48650000  1.0 0.1188289956
H  H40  1  0.40560000  0.03830000  0.41170000  1.0 0.1474049051
H  H41  1  0.22410000  0.87620000  0.29180000  1.0 0.1397235018
H  H42  1  0.32000000  0.76220000  0.32960000  1.0 0.1474049051
H  H43  1  0.62880000  0.78290000  0.31990000  1.0 0.2693743752
H  H44  1  0.76000000  0.72820000  0.53860000  1.0 0.2533144103
H  H45  1  0.48480000  0.24610000  0.77670000  1.0 0.1474049051
H  H46  1  0.54900000  0.13660000  0.69650000  1.0 0.1397235018
H  H47  1  0.51770000  0.96980000  0.87840000  1.0 0.1397235018
H  H48  1  0.44930000  0.01010000  0.00640000  1.0 0.1188289956
H  H49  1  0.42720000  0.03850000  0.13950000  1.0 0.1262986222
H  H50  1  0.31230000  0.06720000  0.12640000  1.0 0.1097474306
H  H51  1  0.46980000  0.16900000  0.19210000  1.0 0.1262986222
H  H52  1  0.36700000  0.14310000  0.23680000  1.0 0.1097474306
H  H53  1  0.21190000  0.29340000  0.17020000  1.0 0.1188289956
H  H54  1  0.21460000  0.19520000  0.19850000  1.0 0.1097474306
H  H55  1  0.19880000  0.14580000  0.06640000  1.0 0.1097474306
H  H56  1  0.12030000  0.22400000  0.07070000  1.0 0.1188289956
H  H57  1  0.20060000  0.37080000  0.05530000  1.0 0.1097474306
H  H58  1  0.15940000  0.35030000  0.96560000  1.0 0.1188289956
H  H59  1  0.31730000  0.37800000  0.90820000  1.0 0.1188289956
H  H60  1  0.29440000  0.45750000  0.96750000  1.0 0.1188289956
H  H61  1  0.45120000  0.48400000  0.01350000  1.0 0.1188289956
H  H62  1  0.59440000  0.53830000  0.08830000  1.0 0.1474049051
H  H63  1  0.77590000  0.37620000  0.20820000  1.0 0.1397235018
H  H64  1  0.68000000  0.26220000  0.17040000  1.0 0.1474049051
H  H65  1  0.37120000  0.28290000  0.18010000  1.0 0.2693743752
H  H66  1  0.24000000  0.22820000  0.96140000  1.0 0.2533144103
H  H67  1  0.01520000  0.75390000  0.27670000  1.0 0.1474049051
H  H68  1  0.95100000  0.86340000  0.19650000  1.0 0.1397235018
H  H69  1  0.98230000  0.03020000  0.37840000  1.0 0.1397235018
H  H70  1  0.05070000  0.98990000  0.50640000  1.0 0.1188289956
H  H71  1  0.07280000  0.96150000  0.63950000  1.0 0.1262986222
H  H72  1  0.18770000  0.93280000  0.62640000  1.0 0.1097474306
H  H73  1  0.03020000  0.83100000  0.69210000  1.0 0.1262986222
H  H74  1  0.13300000  0.85690000  0.73680000  1.0 0.1097474306
H  H75  1  0.28810000  0.70660000  0.67020000  1.0 0.1188289956
H  H76  1  0.28540000  0.80480000  0.69850000  1.0 0.1097474306
H  H77  1  0.30120000  0.85420000  0.56640000  1.0 0.1097474306
H  H78  1  0.37970000  0.77600000  0.57070000  1.0 0.1188289956
H  H79  1  0.29940000  0.62920000  0.55530000  1.0 0.1097474306
H  H80  1  0.34060000  0.64970000  0.46560000  1.0 0.1188289956
H  H81  1  0.18270000  0.62200000  0.40820000  1.0 0.1188289956
H  H82  1  0.20560000  0.54250000  0.46750000  1.0 0.1188289956
H  H83  1  0.04880000  0.51600000  0.51350000  1.0 0.1188289956
H  H84  1  0.90560000  0.46170000  0.58830000  1.0 0.1474049051
H  H85  1  0.72410000  0.62380000  0.70820000  1.0 0.1397235018
H  H86  1  0.82000000  0.73780000  0.67040000  1.0 0.1474049051
H  H87  1  0.12880000  0.71710000  0.68010000  1.0 0.2693743752
H  H88  1  0.26000000  0.77180000  0.46140000  1.0 0.2533144103
C  C1  1  0.01370000  0.76810000  0.85550000  1.0 0.4696337236
C  C2  1  0.48630000  0.23190000  0.35550000  1.0 0.4696337236
C  C3  1  0.51370000  0.73190000  0.14450000  1.0 0.4696337236
C  C4  1  0.98630000  0.26810000  0.64450000  1.0 0.4696337236
C  C5  1  0.93210000  0.69760000  0.84920000  1.0 0.4797894256
C  C6  1  0.56790000  0.30240000  0.34920000  1.0 0.4797894256
C  C7  1  0.43210000  0.80240000  0.15080000  1.0 0.4797894256
C  C8  1  0.06790000  0.19760000  0.65080000  1.0 0.4797894256
C  C9  1  0.76590000  0.87110000  0.02770000  1.0 0.4696337236
C  C10  1  0.73410000  0.12890000  0.52770000  1.0 0.4696337236
C  C11  1  0.26590000  0.62890000  0.97230000  1.0 0.4696337236
C  C12  1  0.23410000  0.37110000  0.47230000  1.0 0.4696337236
C  C13  1  0.66750000  0.86960000  0.97760000  1.0 0.4797894256
C  C14  1  0.83250000  0.13040000  0.47760000  1.0 0.4797894256
C  C15  1  0.16750000  0.63040000  0.02240000  1.0 0.4797894256
C  C16  1  0.33250000  0.36960000  0.52240000  1.0 0.4797894256
C  C17  1  0.85490000  0.95910000  0.70820000  1.0 0.4696337236
C  C18  1  0.64510000  0.04090000  0.20820000  1.0 0.4696337236
C  C19  1  0.35490000  0.54090000  0.29180000  1.0 0.4696337236
C  C20  1  0.14510000  0.45910000  0.79180000  1.0 0.4696337236
C  C21  1  0.84160000  0.02640000  0.77660000  1.0 0.4696337236
C  C22  1  0.65840000  0.97360000  0.27660000  1.0 0.4696337236
C  C23  1  0.34160000  0.47360000  0.22340000  1.0 0.4696337236
C  C24  1  0.15840000  0.52640000  0.72340000  1.0 0.4696337236
C  C25  1  0.96440000  0.32420000  0.12130000  1.0 0.2693743752
C  C26  1  0.99190000  0.30960000  0.20100000  1.0 -0.2293063728
C  C27  1  0.02970000  0.37500000  0.24900000  1.0 -0.1394177603
C  C28  1  0.03940000  0.45650000  0.21850000  1.0 0.1097474306
C  C29  1  0.01170000  0.47340000  0.14170000  1.0 -0.1986674899
C  C30  1  0.97400000  0.40880000  0.09030000  1.0 -0.0615180563
C  C31  1  0.94330000  0.43150000  0.00890000  1.0 0.0677234708
C  C32  1  0.88290000  0.41280000  0.87460000  1.0 -0.1069891108
C  C33  1  0.89720000  0.34180000  0.81620000  1.0 -0.1002790707
C  C34  1  0.73650000  0.26450000  0.84430000  1.0 -0.1002790707
C  C35  1  0.69230000  0.29160000  0.92610000  1.0 -0.1069891108
C  C36  1  0.71870000  0.15350000  0.99820000  1.0 -0.1002790707
C  C37  1  0.80660000  0.10500000  0.03460000  1.0 -0.0943682445
C  C38  1  0.96100000  0.07260000  0.96710000  1.0 0.0855999785
C  C39  1  0.04880000  0.08830000  0.92100000  1.0 -0.0615180563
C  C40  1  0.11060000  0.01870000  0.89630000  1.0 -0.1986674899
C  C41  1  0.19620000  0.03570000  0.84880000  1.0 0.1000043517
C  C42  1  0.21860000  0.11470000  0.82520000  1.0 -0.1253598584
C  C43  1  0.16190000  0.18210000  0.84750000  1.0 -0.210277359
C  C44  1  0.07700000  0.17200000  0.89630000  1.0 0.2693743752
C  C45  1  0.53560000  0.67580000  0.62130000  1.0 0.2693743752
C  C46  1  0.50810000  0.69040000  0.70100000  1.0 -0.2293063728
C  C47  1  0.47030000  0.62500000  0.74900000  1.0 -0.1394177603
C  C48  1  0.46060000  0.54350000  0.71850000  1.0 0.1097474306
C  C49  1  0.48830000  0.52660000  0.64170000  1.0 -0.1986674899
C  C50  1  0.52600000  0.59120000  0.59030000  1.0 -0.0615180563
C  C51  1  0.55670000  0.56850000  0.50890000  1.0 0.0677234708
C  C52  1  0.61710000  0.58720000  0.37460000  1.0 -0.1069891108
C  C53  1  0.60280000  0.65820000  0.31620000  1.0 -0.1002790707
C  C54  1  0.76350000  0.73550000  0.34430000  1.0 -0.1002790707
C  C55  1  0.80770000  0.70840000  0.42610000  1.0 -0.1069891108
C  C56  1  0.78130000  0.84650000  0.49820000  1.0 -0.1002790707
C  C57  1  0.69340000  0.89500000  0.53460000  1.0 -0.0943682445
C  C58  1  0.53900000  0.92740000  0.46710000  1.0 0.0855999785
C  C59  1  0.45120000  0.91170000  0.42100000  1.0 -0.0615180563
C  C60  1  0.38940000  0.98130000  0.39630000  1.0 -0.1986674899
C  C61  1  0.30380000  0.96430000  0.34880000  1.0 0.1000043517
C  C62  1  0.28140000  0.88530000  0.32520000  1.0 -0.1253598584
C  C63  1  0.33810000  0.81790000  0.34750000  1.0 -0.210277359
C  C64  1  0.42300000  0.82800000  0.39630000  1.0 0.2693743752
C  C65  1  0.46440000  0.17580000  0.87870000  1.0 0.2693743752
C  C66  1  0.49190000  0.19040000  0.79900000  1.0 -0.2293063728
C  C67  1  0.52970000  0.12500000  0.75100000  1.0 -0.1394177603
C  C68  1  0.53940000  0.04350000  0.78150000  1.0 0.1097474306
C  C69  1  0.51170000  0.02660000  0.85830000  1.0 -0.1986674899
C  C70  1  0.47400000  0.09120000  0.90970000  1.0 -0.0615180563
C  C71  1  0.44330000  0.06850000  0.99110000  1.0 0.0677234708
C  C72  1  0.38290000  0.08720000  0.12540000  1.0 -0.1069891108
C  C73  1  0.39720000  0.15820000  0.18380000  1.0 -0.1002790707
C  C74  1  0.23650000  0.23550000  0.15570000  1.0 -0.1002790707
C  C75  1  0.19230000  0.20840000  0.07390000  1.0 -0.1069891108
C  C76  1  0.21870000  0.34650000  0.00180000  1.0 -0.1002790707
C  C77  1  0.30660000  0.39500000  0.96540000  1.0 -0.0943682445
C  C78  1  0.46100000  0.42740000  0.03290000  1.0 0.0855999785
C  C79  1  0.54880000  0.41170000  0.07900000  1.0 -0.0615180563
C  C80  1  0.61060000  0.48130000  0.10370000  1.0 -0.1986674899
C  C81  1  0.69620000  0.46430000  0.15120000  1.0 0.1000043517
C  C82  1  0.71860000  0.38530000  0.17480000  1.0 -0.1253598584
C  C83  1  0.66190000  0.31790000  0.15250000  1.0 -0.210277359
C  C84  1  0.57700000  0.32800000  0.10370000  1.0 0.2693743752
C  C85  1  0.03560000  0.82420000  0.37870000  1.0 0.2693743752
C  C86  1  0.00810000  0.80960000  0.29900000  1.0 -0.2293063728
C  C87  1  0.97030000  0.87500000  0.25100000  1.0 -0.1394177603
C  C88  1  0.96060000  0.95650000  0.28150000  1.0 0.1097474306
C  C89  1  0.98830000  0.97340000  0.35830000  1.0 -0.1986674899
C  C90  1  0.02600000  0.90880000  0.40970000  1.0 -0.0615180563
C  C91  1  0.05670000  0.93150000  0.49110000  1.0 0.0677234708
C  C92  1  0.11710000  0.91280000  0.62540000  1.0 -0.1069891108
C  C93  1  0.10280000  0.84180000  0.68380000  1.0 -0.1002790707
C  C94  1  0.26350000  0.76450000  0.65570000  1.0 -0.1002790707
C  C95  1  0.30770000  0.79160000  0.57390000  1.0 -0.1069891108
C  C96  1  0.28130000  0.65350000  0.50180000  1.0 -0.1002790707
C  C97  1  0.19340000  0.60500000  0.46540000  1.0 -0.0943682445
C  C98  1  0.03900000  0.57260000  0.53290000  1.0 0.0855999785
C  C99  1  0.95120000  0.58830000  0.57900000  1.0 -0.0615180563
C  C100  1  0.88940000  0.51870000  0.60370000  1.0 -0.1986674899
C  C101  1  0.80380000  0.53570000  0.65120000  1.0 0.1000043517
C  C102  1  0.78140000  0.61470000  0.67480000  1.0 -0.1253598584
C  C103  1  0.83810000  0.68210000  0.65250000  1.0 -0.210277359
C  C104  1  0.92300000  0.67200000  0.60370000  1.0 0.2693743752
N  N1  1  0.90860000  0.37913000  0.95533000  1.0 -0.1394177603
N  N2  1  0.84800000  0.26390000  0.84940000  1.0 -0.2293063728
N  N3  1  0.75140000  0.24470000  0.98923000  1.0 -0.2212633146
N  N4  1  0.89390000  0.12790000  0.98480000  1.0 -0.1394177603
N  N5  1  0.59140000  0.62087000  0.45533000  1.0 -0.1394177603
N  N6  1  0.65200000  0.73610000  0.34940000  1.0 -0.2293063728
N  N7  1  0.74860000  0.75530000  0.48923000  1.0 -0.2212633146
N  N8  1  0.60610000  0.87210000  0.48480000  1.0 -0.1394177603
N  N9  1  0.40860000  0.12087000  0.04467000  1.0 -0.1394177603
N  N10  1  0.34800000  0.23610000  0.15060000  1.0 -0.2293063728
N  N11  1  0.25140000  0.25530000  0.01077000  1.0 -0.2212633146
N  N12  1  0.39390000  0.37210000  0.01520000  1.0 -0.1394177603
N  N13  1  0.09140000  0.87913000  0.54467000  1.0 -0.1394177603
N  N14  1  0.15200000  0.76390000  0.65060000  1.0 -0.2293063728
N  N15  1  0.24860000  0.74470000  0.51077000  1.0 -0.2212633146
N  N16  1  0.10610000  0.62790000  0.51520000  1.0 -0.1394177603
Cl  Cl1  1  0.08505000  0.53757000  0.28081000  1.0 -0.0698983102
Cl  Cl2  1  0.27197000  0.94740000  0.82544000  1.0 -0.0698983102
Cl  Cl3  1  0.41495000  0.46243000  0.78081000  1.0 -0.0698983102
Cl  Cl4  1  0.22803000  0.05260000  0.32544000  1.0 -0.0698983102
Cl  Cl5  1  0.58505000  0.96243000  0.71919000  1.0 -0.0698983102
Cl  Cl6  1  0.77197000  0.55260000  0.17456000  1.0 -0.0698983102
Cl  Cl7  1  0.91495000  0.03757000  0.21919000  1.0 -0.0698983102
Cl  Cl8  1  0.72803000  0.44740000  0.67456000  1.0 -0.0698983102
O  O1  1  0.10314000  0.74132000  0.85631000  1.0 -0.5104180329
O  O2  1  0.39686000  0.25868000  0.35631000  1.0 -0.5104180329
O  O3  1  0.60314000  0.75868000  0.14369000  1.0 -0.5104180329
O  O4  1  0.89686000  0.24132000  0.64369000  1.0 -0.5104180329
O  O5  1  0.96558000  0.62226000  0.84465000  1.0 -0.5207640482
O  O6  1  0.53442000  0.37774000  0.34465000  1.0 -0.5207640482
O  O7  1  0.46558000  0.87774000  0.15535000  1.0 -0.5207640482
O  O8  1  0.03442000  0.12226000  0.65535000  1.0 -0.5207640482
O  O9  1  0.98767000  0.84468000  0.85804000  1.0 -0.45890941
O  O10  1  0.51233000  0.15532000  0.35804000  1.0 -0.45890941
O  O11  1  0.48767000  0.65532000  0.14196000  1.0 -0.45890941
O  O12  1  0.01233000  0.34468000  0.64196000  1.0 -0.45890941
O  O13  1  0.84295000  0.72124000  0.84788000  1.0 -0.45890941
O  O14  1  0.65705000  0.27876000  0.34788000  1.0 -0.45890941
O  O15  1  0.34295000  0.77876000  0.15212000  1.0 -0.45890941
O  O16  1  0.15705000  0.22124000  0.65212000  1.0 -0.45890941
O  O17  1  0.84667000  0.86882000  0.98980000  1.0 -0.45890941
O  O18  1  0.65333000  0.13118000  0.48980000  1.0 -0.45890941
O  O19  1  0.34667000  0.63118000  0.01020000  1.0 -0.45890941
O  O20  1  0.15333000  0.36882000  0.51020000  1.0 -0.45890941
O  O21  1  0.75494000  0.87937000  0.10298000  1.0 -0.5104180329
O  O22  1  0.74506000  0.12063000  0.60298000  1.0 -0.5104180329
O  O23  1  0.25494000  0.62063000  0.89702000  1.0 -0.5104180329
O  O24  1  0.24506000  0.37937000  0.39702000  1.0 -0.5104180329
O  O25  1  0.67280000  0.85912000  0.90303000  1.0 -0.45890941
O  O26  1  0.82720000  0.14088000  0.40303000  1.0 -0.45890941
O  O27  1  0.17280000  0.64088000  0.09697000  1.0 -0.45890941
O  O28  1  0.32720000  0.35912000  0.59697000  1.0 -0.45890941
O  O29  1  0.58785000  0.87954000  0.01791000  1.0 -0.5104180329
O  O30  1  0.91215000  0.12046000  0.51791000  1.0 -0.5104180329
O  O31  1  0.08785000  0.62046000  0.98209000  1.0 -0.5104180329
O  O32  1  0.41215000  0.37954000  0.48209000  1.0 -0.5104180329
O  O33  1  0.83960000  0.88296000  0.72581000  1.0 -0.4747857405
O  O34  1  0.66040000  0.11704000  0.22581000  1.0 -0.4747857405
O  O35  1  0.33960000  0.61704000  0.27419000  1.0 -0.4747857405
O  O36  1  0.16040000  0.38296000  0.77419000  1.0 -0.4747857405
O  O37  1  0.88093000  0.98830000  0.63977000  1.0 -0.5207640482
O  O38  1  0.61907000  0.01170000  0.13977000  1.0 -0.5207640482
O  O39  1  0.38093000  0.51170000  0.36023000  1.0 -0.5207640482
O  O40  1  0.11907000  0.48830000  0.86023000  1.0 -0.5207640482
O  O41  1  0.82170000  0.00137000  0.84530000  1.0 -0.45890941
O  O42  1  0.67830000  0.99863000  0.34530000  1.0 -0.45890941
O  O43  1  0.32170000  0.49863000  0.15470000  1.0 -0.45890941
O  O44  1  0.17830000  0.50137000  0.65470000  1.0 -0.45890941
O  O45  1  0.85485000  0.10360000  0.75371000  1.0 -0.5398735804
O  O46  1  0.64515000  0.89640000  0.25371000  1.0 -0.5398735804
O  O47  1  0.35485000  0.39640000  0.24629000  1.0 -0.5398735804
O  O48  1  0.14515000  0.60360000  0.74629000  1.0 -0.5398735804
O  O49  1  0.93100000  0.25946000  0.07862000  1.0 -0.4384381129
O  O50  1  0.03017000  0.24185000  0.92121000  1.0 -0.4384381129
O  O51  1  0.56900000  0.74054000  0.57862000  1.0 -0.4384381129
O  O52  1  0.46983000  0.75815000  0.42121000  1.0 -0.4384381129
O  O53  1  0.43100000  0.24054000  0.92138000  1.0 -0.4384381129
O  O54  1  0.53017000  0.25815000  0.07879000  1.0 -0.4384381129
O  O55  1  0.06900000  0.75946000  0.42138000  1.0 -0.4384381129
O  O56  1  0.96983000  0.74185000  0.57879000  1.0 -0.4384381129
