# DDEC6 charges by PACMAN v1.1 (https://github.com/mtap-research/PACMAN-charge/)
data_BAZGAM_ASR_pacman
_symmetry_space_group_name_H-M   'P 1'
_cell_length_a   48.30330000
_cell_length_b   48.30330000
_cell_length_c   48.30330000
_cell_angle_alpha   60.00000000
_cell_angle_beta   60.00000000
_cell_angle_gamma   60.00000000
_symmetry_Int_Tables_number   1
_chemical_formula_structural   CuH18(C15O2)2
_chemical_formula_sum   'Cu12 H216 C360 O48'
_cell_volume   79692.12514118
_cell_formula_units_Z   12
loop_
 _symmetry_equiv_pos_site_id
 _symmetry_equiv_pos_as_xyz
  1  'x, y, z'
loop_
 _atom_site_type_symbol
 _atom_site_label
 _atom_site_symmetry_multiplicity
 _atom_site_fract_x
 _atom_site_fract_y
 _atom_site_fract_z
 _atom_site_occupancy
 _atom_site_charge
Cu  Cu1  1  0.50000000  0.97272000  0.02728000  1.0 0.85302789
Cu  Cu2  1  0.97272000  0.50000000  0.50000000  1.0 0.85302789
Cu  Cu3  1  0.02728000  0.50000000  0.50000000  1.0 0.85302789
Cu  Cu4  1  0.50000000  0.02728000  0.97272000  1.0 0.85302789
Cu  Cu5  1  0.02728000  0.50000000  0.97272000  1.0 0.85302789
Cu  Cu6  1  0.50000000  0.97272000  0.50000000  1.0 0.85302789
Cu  Cu7  1  0.50000000  0.02728000  0.50000000  1.0 0.85302789
Cu  Cu8  1  0.97272000  0.50000000  0.02728000  1.0 0.85302789
Cu  Cu9  1  0.97272000  0.02728000  0.50000000  1.0 0.85302789
Cu  Cu10  1  0.50000000  0.50000000  0.97272000  1.0 0.85302789
Cu  Cu11  1  0.50000000  0.50000000  0.02728000  1.0 0.85302789
Cu  Cu12  1  0.02728000  0.97272000  0.50000000  1.0 0.85302789
H  H1  1  0.18440000  0.09960000  0.18440000  1.0 0.1135621561
H  H2  1  0.09960000  0.18440000  0.53160000  1.0 0.1135621561
H  H3  1  0.18440000  0.53160000  0.18440000  1.0 0.1135621561
H  H4  1  0.53160000  0.18440000  0.09960000  1.0 0.1135621561
H  H5  1  0.18440000  0.18440000  0.09960000  1.0 0.1135621561
H  H6  1  0.53160000  0.09960000  0.18440000  1.0 0.1135621561
H  H7  1  0.18440000  0.18440000  0.53160000  1.0 0.1135621561
H  H8  1  0.09960000  0.53160000  0.18440000  1.0 0.1135621561
H  H9  1  0.09960000  0.18440000  0.18440000  1.0 0.1135621561
H  H10  1  0.18440000  0.53160000  0.09960000  1.0 0.1135621561
H  H11  1  0.53160000  0.18440000  0.18440000  1.0 0.1135621561
H  H12  1  0.18440000  0.09960000  0.53160000  1.0 0.1135621561
H  H13  1  0.81560000  0.90040000  0.46840000  1.0 0.1135621561
H  H14  1  0.90040000  0.81560000  0.81560000  1.0 0.1135621561
H  H15  1  0.81560000  0.46840000  0.90040000  1.0 0.1135621561
H  H16  1  0.46840000  0.81560000  0.81560000  1.0 0.1135621561
H  H17  1  0.81560000  0.81560000  0.46840000  1.0 0.1135621561
H  H18  1  0.46840000  0.90040000  0.81560000  1.0 0.1135621561
H  H19  1  0.81560000  0.81560000  0.90040000  1.0 0.1135621561
H  H20  1  0.90040000  0.46840000  0.81560000  1.0 0.1135621561
H  H21  1  0.90040000  0.81560000  0.46840000  1.0 0.1135621561
H  H22  1  0.81560000  0.46840000  0.81560000  1.0 0.1135621561
H  H23  1  0.46840000  0.81560000  0.90040000  1.0 0.1135621561
H  H24  1  0.81560000  0.90040000  0.81560000  1.0 0.1135621561
H  H25  1  0.23470000  0.07810000  0.16270000  1.0 0.1135621561
H  H26  1  0.07810000  0.23470000  0.52450000  1.0 0.1135621561
H  H27  1  0.16270000  0.52450000  0.23470000  1.0 0.1135621561
H  H28  1  0.52450000  0.16270000  0.07810000  1.0 0.1135621561
H  H29  1  0.16270000  0.23470000  0.07810000  1.0 0.1135621561
H  H30  1  0.52450000  0.07810000  0.23470000  1.0 0.1135621561
H  H31  1  0.23470000  0.16270000  0.52450000  1.0 0.1135621561
H  H32  1  0.07810000  0.52450000  0.16270000  1.0 0.1135621561
H  H33  1  0.07810000  0.16270000  0.23470000  1.0 0.1157827547
H  H34  1  0.23470000  0.52450000  0.07810000  1.0 0.1135621561
H  H35  1  0.52450000  0.23470000  0.16270000  1.0 0.1135621561
H  H36  1  0.16270000  0.07810000  0.52450000  1.0 0.1135621561
H  H37  1  0.76530000  0.92190000  0.47550000  1.0 0.1135621561
H  H38  1  0.92190000  0.76530000  0.83730000  1.0 0.1135621561
H  H39  1  0.83730000  0.47550000  0.92190000  1.0 0.1157827547
H  H40  1  0.47550000  0.83730000  0.76530000  1.0 0.1157827547
H  H41  1  0.83730000  0.76530000  0.47550000  1.0 0.1135621561
H  H42  1  0.47550000  0.92190000  0.83730000  1.0 0.1135621561
H  H43  1  0.76530000  0.83730000  0.92190000  1.0 0.1135621561
H  H44  1  0.92190000  0.47550000  0.76530000  1.0 0.1157827547
H  H45  1  0.92190000  0.83730000  0.47550000  1.0 0.1135621561
H  H46  1  0.76530000  0.47550000  0.83730000  1.0 0.1157827547
H  H47  1  0.47550000  0.76530000  0.92190000  1.0 0.1135621561
H  H48  1  0.83730000  0.92190000  0.76530000  1.0 0.1157827547
H  H49  1  0.76530000  0.92190000  0.83730000  1.0 0.1135621561
H  H50  1  0.92190000  0.76530000  0.47550000  1.0 0.1135621561
H  H51  1  0.83730000  0.47550000  0.76530000  1.0 0.1157827547
H  H52  1  0.47550000  0.83730000  0.92190000  1.0 0.1135621561
H  H53  1  0.83730000  0.76530000  0.92190000  1.0 0.1135621561
H  H54  1  0.47550000  0.92190000  0.76530000  1.0 0.1135621561
H  H55  1  0.76530000  0.83730000  0.47550000  1.0 0.1135621561
H  H56  1  0.92190000  0.47550000  0.83730000  1.0 0.1157827547
H  H57  1  0.92190000  0.83730000  0.76530000  1.0 0.1135621561
H  H58  1  0.76530000  0.47550000  0.92190000  1.0 0.1157827547
H  H59  1  0.47550000  0.76530000  0.83730000  1.0 0.1157827547
H  H60  1  0.83730000  0.92190000  0.47550000  1.0 0.1135621561
H  H61  1  0.23470000  0.07810000  0.52450000  1.0 0.1157827547
H  H62  1  0.07810000  0.23470000  0.16270000  1.0 0.1135621561
H  H63  1  0.16270000  0.52450000  0.07810000  1.0 0.1135621561
H  H64  1  0.52450000  0.16270000  0.23470000  1.0 0.1135621561
H  H65  1  0.16270000  0.23470000  0.52450000  1.0 0.1135621561
H  H66  1  0.52450000  0.07810000  0.16270000  1.0 0.1135621561
H  H67  1  0.23470000  0.16270000  0.07810000  1.0 0.1135621561
H  H68  1  0.07810000  0.52450000  0.23470000  1.0 0.1135621561
H  H69  1  0.07810000  0.16270000  0.52450000  1.0 0.1135621561
H  H70  1  0.23470000  0.52450000  0.16270000  1.0 0.1135621561
H  H71  1  0.52450000  0.23470000  0.07810000  1.0 0.1135621561
H  H72  1  0.16270000  0.07810000  0.23470000  1.0 0.1135621561
H  H73  1  0.29260000  0.05120000  0.13580000  1.0 0.1135621561
H  H74  1  0.05120000  0.29260000  0.52040000  1.0 0.1135621561
H  H75  1  0.13580000  0.52040000  0.29260000  1.0 0.1135621561
H  H76  1  0.52040000  0.13580000  0.05120000  1.0 0.1135621561
H  H77  1  0.13580000  0.29260000  0.05120000  1.0 0.1135621561
H  H78  1  0.52040000  0.05120000  0.29260000  1.0 0.1135621561
H  H79  1  0.29260000  0.13580000  0.52040000  1.0 0.1135621561
H  H80  1  0.05120000  0.52040000  0.13580000  1.0 0.1135621561
H  H81  1  0.05120000  0.13580000  0.29260000  1.0 0.1135621561
H  H82  1  0.29260000  0.52040000  0.05120000  1.0 0.1135621561
H  H83  1  0.52040000  0.29260000  0.13580000  1.0 0.1135621561
H  H84  1  0.13580000  0.05120000  0.52040000  1.0 0.1135621561
H  H85  1  0.70740000  0.94880000  0.47960000  1.0 0.1135621561
H  H86  1  0.94880000  0.70740000  0.86420000  1.0 0.1135621561
H  H87  1  0.86420000  0.47960000  0.94880000  1.0 0.1135621561
H  H88  1  0.47960000  0.86420000  0.70740000  1.0 0.1135621561
H  H89  1  0.86420000  0.70740000  0.47960000  1.0 0.1135621561
H  H90  1  0.47960000  0.94880000  0.86420000  1.0 0.1135621561
H  H91  1  0.70740000  0.86420000  0.94880000  1.0 0.1135621561
H  H92  1  0.94880000  0.47960000  0.70740000  1.0 0.1135621561
H  H93  1  0.94880000  0.86420000  0.47960000  1.0 0.1135621561
H  H94  1  0.70740000  0.47960000  0.86420000  1.0 0.1135621561
H  H95  1  0.47960000  0.70740000  0.94880000  1.0 0.1135621561
H  H96  1  0.86420000  0.94880000  0.70740000  1.0 0.1135621561
H  H97  1  0.70740000  0.94880000  0.86420000  1.0 0.1135621561
H  H98  1  0.94880000  0.70740000  0.47960000  1.0 0.1135621561
H  H99  1  0.86420000  0.47960000  0.70740000  1.0 0.1135621561
H  H100  1  0.47960000  0.86420000  0.94880000  1.0 0.1135621561
H  H101  1  0.86420000  0.70740000  0.94880000  1.0 0.1135621561
H  H102  1  0.47960000  0.94880000  0.70740000  1.0 0.1135621561
H  H103  1  0.70740000  0.86420000  0.47960000  1.0 0.1135621561
H  H104  1  0.94880000  0.47960000  0.86420000  1.0 0.1135621561
H  H105  1  0.94880000  0.86420000  0.70740000  1.0 0.1135621561
H  H106  1  0.70740000  0.47960000  0.94880000  1.0 0.1135621561
H  H107  1  0.47960000  0.70740000  0.86420000  1.0 0.1135621561
H  H108  1  0.86420000  0.94880000  0.47960000  1.0 0.1135621561
H  H109  1  0.29260000  0.05120000  0.52040000  1.0 0.1135621561
H  H110  1  0.05120000  0.29260000  0.13580000  1.0 0.1135621561
H  H111  1  0.13580000  0.52040000  0.05120000  1.0 0.1135621561
H  H112  1  0.52040000  0.13580000  0.29260000  1.0 0.1135621561
H  H113  1  0.13580000  0.29260000  0.52040000  1.0 0.1135621561
H  H114  1  0.52040000  0.05120000  0.13580000  1.0 0.1135621561
H  H115  1  0.29260000  0.13580000  0.05120000  1.0 0.1135621561
H  H116  1  0.05120000  0.52040000  0.29260000  1.0 0.1135621561
H  H117  1  0.05120000  0.13580000  0.52040000  1.0 0.1135621561
H  H118  1  0.29260000  0.52040000  0.13580000  1.0 0.1135621561
H  H119  1  0.52040000  0.29260000  0.05120000  1.0 0.1135621561
H  H120  1  0.13580000  0.05120000  0.29260000  1.0 0.1135621561
H  H121  1  0.33730000  0.02730000  0.11230000  1.0 0.1135621561
H  H122  1  0.02730000  0.33730000  0.52310000  1.0 0.1157827547
H  H123  1  0.11230000  0.52310000  0.33730000  1.0 0.1157827547
H  H124  1  0.52310000  0.11230000  0.02730000  1.0 0.1135621561
H  H125  1  0.11230000  0.33730000  0.02730000  1.0 0.1157827547
H  H126  1  0.52310000  0.02730000  0.33730000  1.0 0.1157827547
H  H127  1  0.33730000  0.11230000  0.52310000  1.0 0.1135621561
H  H128  1  0.02730000  0.52310000  0.11230000  1.0 0.1135621561
H  H129  1  0.02730000  0.11230000  0.33730000  1.0 0.1157827547
H  H130  1  0.33730000  0.52310000  0.02730000  1.0 0.1157827547
H  H131  1  0.52310000  0.33730000  0.11230000  1.0 0.1135621561
H  H132  1  0.11230000  0.02730000  0.52310000  1.0 0.1157827547
H  H133  1  0.66270000  0.97270000  0.47690000  1.0 0.1157827547
H  H134  1  0.97270000  0.66270000  0.88770000  1.0 0.1135621561
H  H135  1  0.88770000  0.47690000  0.97270000  1.0 0.1157827547
H  H136  1  0.47690000  0.88770000  0.66270000  1.0 0.1135621561
H  H137  1  0.88770000  0.66270000  0.47690000  1.0 0.1157827547
H  H138  1  0.47690000  0.97270000  0.88770000  1.0 0.1157827547
H  H139  1  0.66270000  0.88770000  0.97270000  1.0 0.1157827547
H  H140  1  0.97270000  0.47690000  0.66270000  1.0 0.1157827547
H  H141  1  0.97270000  0.88770000  0.47690000  1.0 0.1157827547
H  H142  1  0.66270000  0.47690000  0.88770000  1.0 0.1157827547
H  H143  1  0.47690000  0.66270000  0.97270000  1.0 0.1157827547
H  H144  1  0.88770000  0.97270000  0.66270000  1.0 0.1157827547
H  H145  1  0.66270000  0.97270000  0.88770000  1.0 0.1157827547
H  H146  1  0.97270000  0.66270000  0.47690000  1.0 0.1157827547
H  H147  1  0.88770000  0.47690000  0.66270000  1.0 0.1157827547
H  H148  1  0.47690000  0.88770000  0.97270000  1.0 0.1157827547
H  H149  1  0.88770000  0.66270000  0.97270000  1.0 0.1157827547
H  H150  1  0.47690000  0.97270000  0.66270000  1.0 0.1157827547
H  H151  1  0.66270000  0.88770000  0.47690000  1.0 0.1157827547
H  H152  1  0.97270000  0.47690000  0.88770000  1.0 0.1157827547
H  H153  1  0.97270000  0.88770000  0.66270000  1.0 0.1157827547
H  H154  1  0.66270000  0.47690000  0.97270000  1.0 0.1157827547
H  H155  1  0.47690000  0.66270000  0.88770000  1.0 0.1135621561
H  H156  1  0.88770000  0.97270000  0.47690000  1.0 0.1157827547
H  H157  1  0.33730000  0.02730000  0.52310000  1.0 0.1157827547
H  H158  1  0.02730000  0.33730000  0.11230000  1.0 0.1135621561
H  H159  1  0.11230000  0.52310000  0.02730000  1.0 0.1157827547
H  H160  1  0.52310000  0.11230000  0.33730000  1.0 0.1157827547
H  H161  1  0.11230000  0.33730000  0.52310000  1.0 0.1157827547
H  H162  1  0.52310000  0.02730000  0.11230000  1.0 0.1135621561
H  H163  1  0.33730000  0.11230000  0.02730000  1.0 0.1135621561
H  H164  1  0.02730000  0.52310000  0.33730000  1.0 0.1157827547
H  H165  1  0.02730000  0.11230000  0.52310000  1.0 0.1157827547
H  H166  1  0.33730000  0.52310000  0.11230000  1.0 0.1135621561
H  H167  1  0.52310000  0.33730000  0.02730000  1.0 0.1135621561
H  H168  1  0.11230000  0.02730000  0.33730000  1.0 0.1157827547
H  H169  1  0.39630000  0.00190000  0.08690000  1.0 0.128926839
H  H170  1  0.00190000  0.39630000  0.51490000  1.0 0.128926839
H  H171  1  0.08690000  0.51490000  0.39630000  1.0 0.128926839
H  H172  1  0.51490000  0.08690000  0.00190000  1.0 0.128926839
H  H173  1  0.08690000  0.39630000  0.00190000  1.0 0.128926839
H  H174  1  0.51490000  0.00190000  0.39630000  1.0 0.128926839
H  H175  1  0.39630000  0.08690000  0.51490000  1.0 0.128926839
H  H176  1  0.00190000  0.51490000  0.08690000  1.0 0.128926839
H  H177  1  0.00190000  0.08690000  0.39630000  1.0 0.128926839
H  H178  1  0.39630000  0.51490000  0.00190000  1.0 0.128926839
H  H179  1  0.51490000  0.39630000  0.08690000  1.0 0.128926839
H  H180  1  0.08690000  0.00190000  0.51490000  1.0 0.128926839
H  H181  1  0.60370000  0.99810000  0.48510000  1.0 0.128926839
H  H182  1  0.99810000  0.60370000  0.91310000  1.0 0.128926839
H  H183  1  0.91310000  0.48510000  0.99810000  1.0 0.128926839
H  H184  1  0.48510000  0.91310000  0.60370000  1.0 0.128926839
H  H185  1  0.91310000  0.60370000  0.48510000  1.0 0.128926839
H  H186  1  0.48510000  0.99810000  0.91310000  1.0 0.128926839
H  H187  1  0.60370000  0.91310000  0.99810000  1.0 0.128926839
H  H188  1  0.99810000  0.48510000  0.60370000  1.0 0.128926839
H  H189  1  0.99810000  0.91310000  0.48510000  1.0 0.128926839
H  H190  1  0.60370000  0.48510000  0.91310000  1.0 0.128926839
H  H191  1  0.48510000  0.60370000  0.99810000  1.0 0.128926839
H  H192  1  0.91310000  0.99810000  0.60370000  1.0 0.128926839
H  H193  1  0.60370000  0.99810000  0.91310000  1.0 0.128926839
H  H194  1  0.99810000  0.60370000  0.48510000  1.0 0.128926839
H  H195  1  0.91310000  0.48510000  0.60370000  1.0 0.128926839
H  H196  1  0.48510000  0.91310000  0.99810000  1.0 0.128926839
H  H197  1  0.91310000  0.60370000  0.99810000  1.0 0.128926839
H  H198  1  0.48510000  0.99810000  0.60370000  1.0 0.128926839
H  H199  1  0.60370000  0.91310000  0.48510000  1.0 0.128926839
H  H200  1  0.99810000  0.48510000  0.91310000  1.0 0.128926839
H  H201  1  0.99810000  0.91310000  0.60370000  1.0 0.128926839
H  H202  1  0.60370000  0.48510000  0.99810000  1.0 0.128926839
H  H203  1  0.48510000  0.60370000  0.91310000  1.0 0.128926839
H  H204  1  0.91310000  0.99810000  0.48510000  1.0 0.128926839
H  H205  1  0.39630000  0.00190000  0.51490000  1.0 0.128926839
H  H206  1  0.00190000  0.39630000  0.08690000  1.0 0.128926839
H  H207  1  0.08690000  0.51490000  0.00190000  1.0 0.128926839
H  H208  1  0.51490000  0.08690000  0.39630000  1.0 0.128926839
H  H209  1  0.08690000  0.39630000  0.51490000  1.0 0.128926839
H  H210  1  0.51490000  0.00190000  0.08690000  1.0 0.128926839
H  H211  1  0.39630000  0.08690000  0.00190000  1.0 0.128926839
H  H212  1  0.00190000  0.51490000  0.39630000  1.0 0.128926839
H  H213  1  0.00190000  0.08690000  0.51490000  1.0 0.128926839
H  H214  1  0.39630000  0.51490000  0.08690000  1.0 0.128926839
H  H215  1  0.51490000  0.39630000  0.00190000  1.0 0.128926839
H  H216  1  0.08690000  0.00190000  0.39630000  1.0 0.128926839
C  C1  1  0.17323000  0.12175000  0.17323000  1.0 -0.2459774129
C  C2  1  0.12175000  0.17323000  0.53179000  1.0 -0.2459774129
C  C3  1  0.17323000  0.53179000  0.17323000  1.0 -0.2459774129
C  C4  1  0.53179000  0.17323000  0.12175000  1.0 -0.2459774129
C  C5  1  0.17323000  0.17323000  0.12175000  1.0 -0.2459774129
C  C6  1  0.53179000  0.12175000  0.17323000  1.0 -0.2459774129
C  C7  1  0.17323000  0.17323000  0.53179000  1.0 -0.2459774129
C  C8  1  0.12175000  0.53179000  0.17323000  1.0 -0.2459774129
C  C9  1  0.12175000  0.17323000  0.17323000  1.0 -0.2459774129
C  C10  1  0.17323000  0.53179000  0.12175000  1.0 -0.244428595
C  C11  1  0.53179000  0.17323000  0.17323000  1.0 -0.2459774129
C  C12  1  0.17323000  0.12175000  0.53179000  1.0 -0.2459774129
C  C13  1  0.82677000  0.87825000  0.46821000  1.0 -0.2459774129
C  C14  1  0.87825000  0.82677000  0.82677000  1.0 -0.2459774129
C  C15  1  0.82677000  0.46821000  0.87825000  1.0 -0.2459774129
C  C16  1  0.46821000  0.82677000  0.82677000  1.0 -0.2459774129
C  C17  1  0.82677000  0.82677000  0.46821000  1.0 -0.2459774129
C  C18  1  0.46821000  0.87825000  0.82677000  1.0 -0.244428595
C  C19  1  0.82677000  0.82677000  0.87825000  1.0 -0.2459774129
C  C20  1  0.87825000  0.46821000  0.82677000  1.0 -0.2459774129
C  C21  1  0.87825000  0.82677000  0.46821000  1.0 -0.2459774129
C  C22  1  0.82677000  0.46821000  0.82677000  1.0 -0.2459774129
C  C23  1  0.46821000  0.82677000  0.87825000  1.0 -0.2459774129
C  C24  1  0.82677000  0.87825000  0.82677000  1.0 -0.2459774129
C  C25  1  0.19040000  0.13880000  0.13880000  1.0 0.1135621561
C  C26  1  0.13880000  0.19040000  0.53200000  1.0 0.1135621561
C  C27  1  0.13880000  0.53200000  0.19040000  1.0 0.1135621561
C  C28  1  0.53200000  0.13880000  0.13880000  1.0 0.1135621561
C  C29  1  0.13880000  0.19040000  0.13880000  1.0 0.1135621561
C  C30  1  0.53200000  0.13880000  0.19040000  1.0 0.1135621561
C  C31  1  0.19040000  0.13880000  0.53200000  1.0 0.1135621561
C  C32  1  0.13880000  0.53200000  0.13880000  1.0 0.1135621561
C  C33  1  0.13880000  0.13880000  0.19040000  1.0 0.1135621561
C  C34  1  0.19040000  0.53200000  0.13880000  1.0 0.1135621561
C  C35  1  0.53200000  0.19040000  0.13880000  1.0 0.1135621561
C  C36  1  0.13880000  0.13880000  0.53200000  1.0 0.1135621561
C  C37  1  0.80960000  0.86120000  0.46800000  1.0 0.1135621561
C  C38  1  0.86120000  0.80960000  0.86120000  1.0 0.1135621561
C  C39  1  0.86120000  0.46800000  0.86120000  1.0 0.1135621561
C  C40  1  0.46800000  0.86120000  0.80960000  1.0 0.1135621561
C  C41  1  0.86120000  0.80960000  0.46800000  1.0 0.1135621561
C  C42  1  0.46800000  0.86120000  0.86120000  1.0 0.1135621561
C  C43  1  0.80960000  0.86120000  0.86120000  1.0 0.1135621561
C  C44  1  0.86120000  0.46800000  0.80960000  1.0 0.1135621561
C  C45  1  0.86120000  0.86120000  0.46800000  1.0 0.1135621561
C  C46  1  0.80960000  0.46800000  0.86120000  1.0 0.1135621561
C  C47  1  0.46800000  0.80960000  0.86120000  1.0 0.1135621561
C  C48  1  0.86120000  0.86120000  0.80960000  1.0 0.1135621561
C  C49  1  0.22890000  0.12250000  0.12250000  1.0 0.0793571373
C  C50  1  0.12250000  0.22890000  0.52610000  1.0 0.0793571373
C  C51  1  0.12250000  0.52610000  0.22890000  1.0 0.0793571373
C  C52  1  0.52610000  0.12250000  0.12250000  1.0 0.0793571373
C  C53  1  0.12250000  0.22890000  0.12250000  1.0 0.0793571373
C  C54  1  0.52610000  0.12250000  0.22890000  1.0 0.0793571373
C  C55  1  0.22890000  0.12250000  0.52610000  1.0 0.0793571373
C  C56  1  0.12250000  0.52610000  0.12250000  1.0 0.0793571373
C  C57  1  0.12250000  0.12250000  0.22890000  1.0 0.0793571373
C  C58  1  0.22890000  0.52610000  0.12250000  1.0 0.0793571373
C  C59  1  0.52610000  0.22890000  0.12250000  1.0 0.0793571373
C  C60  1  0.12250000  0.12250000  0.52610000  1.0 0.0793571373
C  C61  1  0.77110000  0.87750000  0.47390000  1.0 0.0793571373
C  C62  1  0.87750000  0.77110000  0.87750000  1.0 0.0793571373
C  C63  1  0.87750000  0.47390000  0.87750000  1.0 0.0793571373
C  C64  1  0.47390000  0.87750000  0.77110000  1.0 0.0793571373
C  C65  1  0.87750000  0.77110000  0.47390000  1.0 0.0793571373
C  C66  1  0.47390000  0.87750000  0.87750000  1.0 0.0793571373
C  C67  1  0.77110000  0.87750000  0.87750000  1.0 0.0793571373
C  C68  1  0.87750000  0.47390000  0.77110000  1.0 0.0793571373
C  C69  1  0.87750000  0.87750000  0.47390000  1.0 0.0793571373
C  C70  1  0.77110000  0.47390000  0.87750000  1.0 0.0793571373
C  C71  1  0.47390000  0.77110000  0.87750000  1.0 0.0793571373
C  C72  1  0.87750000  0.87750000  0.77110000  1.0 0.0793571373
C  C73  1  0.24603000  0.08897000  0.14055000  1.0 -0.1596215171
C  C74  1  0.08897000  0.24603000  0.52445000  1.0 -0.1596215171
C  C75  1  0.14055000  0.52445000  0.24603000  1.0 -0.1596215171
C  C76  1  0.52445000  0.14055000  0.08897000  1.0 -0.1596215171
C  C77  1  0.14055000  0.24603000  0.08897000  1.0 -0.1596215171
C  C78  1  0.52445000  0.08897000  0.24603000  1.0 -0.1596215171
C  C79  1  0.24603000  0.14055000  0.52445000  1.0 -0.1596215171
C  C80  1  0.08897000  0.52445000  0.14055000  1.0 -0.1596215171
C  C81  1  0.08897000  0.14055000  0.24603000  1.0 -0.1596215171
C  C82  1  0.24603000  0.52445000  0.08897000  1.0 -0.1596215171
C  C83  1  0.52445000  0.24603000  0.14055000  1.0 -0.1596215171
C  C84  1  0.14055000  0.08897000  0.52445000  1.0 -0.1596215171
C  C85  1  0.75397000  0.91103000  0.47555000  1.0 -0.1596215171
C  C86  1  0.91103000  0.75397000  0.85945000  1.0 -0.1596215171
C  C87  1  0.85945000  0.47555000  0.91103000  1.0 -0.1596215171
C  C88  1  0.47555000  0.85945000  0.75397000  1.0 -0.1596215171
C  C89  1  0.85945000  0.75397000  0.47555000  1.0 -0.1596215171
C  C90  1  0.47555000  0.91103000  0.85945000  1.0 -0.1596215171
C  C91  1  0.75397000  0.85945000  0.91103000  1.0 -0.1596215171
C  C92  1  0.91103000  0.47555000  0.75397000  1.0 -0.1596215171
C  C93  1  0.91103000  0.85945000  0.47555000  1.0 -0.1596215171
C  C94  1  0.75397000  0.47555000  0.85945000  1.0 -0.1596215171
C  C95  1  0.47555000  0.75397000  0.91103000  1.0 -0.1596215171
C  C96  1  0.85945000  0.91103000  0.75397000  1.0 -0.1596215171
C  C97  1  0.75397000  0.91103000  0.85945000  1.0 -0.1596215171
C  C98  1  0.91103000  0.75397000  0.47555000  1.0 -0.1596215171
C  C99  1  0.85945000  0.47555000  0.75397000  1.0 -0.1596215171
C  C100  1  0.47555000  0.85945000  0.91103000  1.0 -0.1596215171
C  C101  1  0.85945000  0.75397000  0.91103000  1.0 -0.1596215171
C  C102  1  0.47555000  0.91103000  0.75397000  1.0 -0.1596215171
C  C103  1  0.75397000  0.85945000  0.47555000  1.0 -0.1596215171
C  C104  1  0.91103000  0.47555000  0.85945000  1.0 -0.1596215171
C  C105  1  0.91103000  0.85945000  0.75397000  1.0 -0.1596215171
C  C106  1  0.75397000  0.47555000  0.91103000  1.0 -0.1596215171
C  C107  1  0.47555000  0.75397000  0.85945000  1.0 -0.1596215171
C  C108  1  0.85945000  0.91103000  0.47555000  1.0 -0.1596215171
C  C109  1  0.24603000  0.08897000  0.52445000  1.0 -0.1596215171
C  C110  1  0.08897000  0.24603000  0.14055000  1.0 -0.1596215171
C  C111  1  0.14055000  0.52445000  0.08897000  1.0 -0.1596215171
C  C112  1  0.52445000  0.14055000  0.24603000  1.0 -0.1596215171
C  C113  1  0.14055000  0.24603000  0.52445000  1.0 -0.1596215171
C  C114  1  0.52445000  0.08897000  0.14055000  1.0 -0.1596215171
C  C115  1  0.24603000  0.14055000  0.08897000  1.0 -0.1596215171
C  C116  1  0.08897000  0.52445000  0.24603000  1.0 -0.1596215171
C  C117  1  0.08897000  0.14055000  0.52445000  1.0 -0.1596215171
C  C118  1  0.24603000  0.52445000  0.14055000  1.0 -0.1596215171
C  C119  1  0.52445000  0.24603000  0.08897000  1.0 -0.1596215171
C  C120  1  0.14055000  0.08897000  0.24603000  1.0 -0.1596215171
C  C121  1  0.28054000  0.07252000  0.12428000  1.0 -0.1596215171
C  C122  1  0.07252000  0.28054000  0.52266000  1.0 -0.1541375662
C  C123  1  0.12428000  0.52266000  0.28054000  1.0 -0.1596215171
C  C124  1  0.52266000  0.12428000  0.07252000  1.0 -0.1596215171
C  C125  1  0.12428000  0.28054000  0.07252000  1.0 -0.1596215171
C  C126  1  0.52266000  0.07252000  0.28054000  1.0 -0.1596215171
C  C127  1  0.28054000  0.12428000  0.52266000  1.0 -0.1596215171
C  C128  1  0.07252000  0.52266000  0.12428000  1.0 -0.1541375662
C  C129  1  0.07252000  0.12428000  0.28054000  1.0 -0.1541375662
C  C130  1  0.28054000  0.52266000  0.07252000  1.0 -0.1541375662
C  C131  1  0.52266000  0.28054000  0.12428000  1.0 -0.1541375662
C  C132  1  0.12428000  0.07252000  0.52266000  1.0 -0.1596215171
C  C133  1  0.71946000  0.92748000  0.47734000  1.0 -0.1596215171
C  C134  1  0.92748000  0.71946000  0.87572000  1.0 -0.1596215171
C  C135  1  0.87572000  0.47734000  0.92748000  1.0 -0.1596215171
C  C136  1  0.47734000  0.87572000  0.71946000  1.0 -0.1541375662
C  C137  1  0.87572000  0.71946000  0.47734000  1.0 -0.1541375662
C  C138  1  0.47734000  0.92748000  0.87572000  1.0 -0.1596215171
C  C139  1  0.71946000  0.87572000  0.92748000  1.0 -0.1596215171
C  C140  1  0.92748000  0.47734000  0.71946000  1.0 -0.1541375662
C  C141  1  0.92748000  0.87572000  0.47734000  1.0 -0.1596215171
C  C142  1  0.71946000  0.47734000  0.87572000  1.0 -0.1541375662
C  C143  1  0.47734000  0.71946000  0.92748000  1.0 -0.1596215171
C  C144  1  0.87572000  0.92748000  0.71946000  1.0 -0.1541375662
C  C145  1  0.71946000  0.92748000  0.87572000  1.0 -0.1596215171
C  C146  1  0.92748000  0.71946000  0.47734000  1.0 -0.1541375662
C  C147  1  0.87572000  0.47734000  0.71946000  1.0 -0.1541375662
C  C148  1  0.47734000  0.87572000  0.92748000  1.0 -0.1596215171
C  C149  1  0.87572000  0.71946000  0.92748000  1.0 -0.1596215171
C  C150  1  0.47734000  0.92748000  0.71946000  1.0 -0.1541375662
C  C151  1  0.71946000  0.87572000  0.47734000  1.0 -0.1596215171
C  C152  1  0.92748000  0.47734000  0.87572000  1.0 -0.1596215171
C  C153  1  0.92748000  0.87572000  0.71946000  1.0 -0.1541375662
C  C154  1  0.71946000  0.47734000  0.92748000  1.0 -0.1541375662
C  C155  1  0.47734000  0.71946000  0.87572000  1.0 -0.1596215171
C  C156  1  0.87572000  0.92748000  0.47734000  1.0 -0.1596215171
C  C157  1  0.28054000  0.07252000  0.52266000  1.0 -0.1596215171
C  C158  1  0.07252000  0.28054000  0.12428000  1.0 -0.1596215171
C  C159  1  0.12428000  0.52266000  0.07252000  1.0 -0.1541375662
C  C160  1  0.52266000  0.12428000  0.28054000  1.0 -0.1596215171
C  C161  1  0.12428000  0.28054000  0.52266000  1.0 -0.1596215171
C  C162  1  0.52266000  0.07252000  0.12428000  1.0 -0.1541375662
C  C163  1  0.28054000  0.12428000  0.07252000  1.0 -0.1596215171
C  C164  1  0.07252000  0.52266000  0.28054000  1.0 -0.1596215171
C  C165  1  0.07252000  0.12428000  0.52266000  1.0 -0.1596215171
C  C166  1  0.28054000  0.52266000  0.12428000  1.0 -0.1541375662
C  C167  1  0.52266000  0.28054000  0.07252000  1.0 -0.1541375662
C  C168  1  0.12428000  0.07252000  0.28054000  1.0 -0.1596215171
C  C169  1  0.29620000  0.08970000  0.08970000  1.0 0.0793571373
C  C170  1  0.08970000  0.29620000  0.52440000  1.0 0.0793571373
C  C171  1  0.08970000  0.52440000  0.29620000  1.0 0.0793571373
C  C172  1  0.52440000  0.08970000  0.08970000  1.0 0.0793571373
C  C173  1  0.08970000  0.29620000  0.08970000  1.0 0.0793571373
C  C174  1  0.52440000  0.08970000  0.29620000  1.0 0.0793571373
C  C175  1  0.29620000  0.08970000  0.52440000  1.0 0.0793571373
C  C176  1  0.08970000  0.52440000  0.08970000  1.0 0.0793571373
C  C177  1  0.08970000  0.08970000  0.29620000  1.0 0.0793571373
C  C178  1  0.29620000  0.52440000  0.08970000  1.0 0.0793571373
C  C179  1  0.52440000  0.29620000  0.08970000  1.0 0.0793571373
C  C180  1  0.08970000  0.08970000  0.52440000  1.0 0.0793571373
C  C181  1  0.70380000  0.91030000  0.47560000  1.0 0.0793571373
C  C182  1  0.91030000  0.70380000  0.91030000  1.0 0.0793571373
C  C183  1  0.91030000  0.47560000  0.91030000  1.0 0.0793571373
C  C184  1  0.47560000  0.91030000  0.70380000  1.0 0.0793571373
C  C185  1  0.91030000  0.70380000  0.47560000  1.0 0.0793571373
C  C186  1  0.47560000  0.91030000  0.91030000  1.0 0.0793571373
C  C187  1  0.70380000  0.91030000  0.91030000  1.0 0.0793571373
C  C188  1  0.91030000  0.47560000  0.70380000  1.0 0.0793571373
C  C189  1  0.91030000  0.91030000  0.47560000  1.0 0.0793571373
C  C190  1  0.70380000  0.47560000  0.91030000  1.0 0.0793571373
C  C191  1  0.47560000  0.70380000  0.91030000  1.0 0.0793571373
C  C192  1  0.91030000  0.91030000  0.70380000  1.0 0.0793571373
C  C193  1  0.33251000  0.07159000  0.07159000  1.0 0.0793571373
C  C194  1  0.07159000  0.33251000  0.52431000  1.0 0.0793571373
C  C195  1  0.07159000  0.52431000  0.33251000  1.0 0.0793571373
C  C196  1  0.52431000  0.07159000  0.07159000  1.0 0.0793571373
C  C197  1  0.07159000  0.33251000  0.07159000  1.0 0.0793571373
C  C198  1  0.52431000  0.07159000  0.33251000  1.0 0.0793571373
C  C199  1  0.33251000  0.07159000  0.52431000  1.0 0.0793571373
C  C200  1  0.07159000  0.52431000  0.07159000  1.0 0.0793571373
C  C201  1  0.07159000  0.07159000  0.33251000  1.0 0.0793571373
C  C202  1  0.33251000  0.52431000  0.07159000  1.0 0.0793571373
C  C203  1  0.52431000  0.33251000  0.07159000  1.0 0.0793571373
C  C204  1  0.07159000  0.07159000  0.52431000  1.0 0.0793571373
C  C205  1  0.66749000  0.92841000  0.47569000  1.0 0.0793571373
C  C206  1  0.92841000  0.66749000  0.92841000  1.0 0.0793571373
C  C207  1  0.92841000  0.47569000  0.92841000  1.0 0.0793571373
C  C208  1  0.47569000  0.92841000  0.66749000  1.0 0.0793571373
C  C209  1  0.92841000  0.66749000  0.47569000  1.0 0.0793571373
C  C210  1  0.47569000  0.92841000  0.92841000  1.0 0.0793571373
C  C211  1  0.66749000  0.92841000  0.92841000  1.0 0.0793571373
C  C212  1  0.92841000  0.47569000  0.66749000  1.0 0.0793571373
C  C213  1  0.92841000  0.92841000  0.47569000  1.0 0.0793571373
C  C214  1  0.66749000  0.47569000  0.92841000  1.0 0.0793571373
C  C215  1  0.47569000  0.66749000  0.92841000  1.0 0.0793571373
C  C216  1  0.92841000  0.92841000  0.66749000  1.0 0.0793571373
C  C217  1  0.34912000  0.03856000  0.09044000  1.0 -0.1657230005
C  C218  1  0.03856000  0.34912000  0.52188000  1.0 -0.1596215171
C  C219  1  0.09044000  0.52188000  0.34912000  1.0 -0.1657230005
C  C220  1  0.52188000  0.09044000  0.03856000  1.0 -0.1657230005
C  C221  1  0.09044000  0.34912000  0.03856000  1.0 -0.1596215171
C  C222  1  0.52188000  0.03856000  0.34912000  1.0 -0.1657230005
C  C223  1  0.34912000  0.09044000  0.52188000  1.0 -0.1657230005
C  C224  1  0.03856000  0.52188000  0.09044000  1.0 -0.1657230005
C  C225  1  0.03856000  0.09044000  0.34912000  1.0 -0.1657230005
C  C226  1  0.34912000  0.52188000  0.03856000  1.0 -0.1596215171
C  C227  1  0.52188000  0.34912000  0.09044000  1.0 -0.1657230005
C  C228  1  0.09044000  0.03856000  0.52188000  1.0 -0.1596215171
C  C229  1  0.65088000  0.96144000  0.47812000  1.0 -0.1596215171
C  C230  1  0.96144000  0.65088000  0.90956000  1.0 -0.1657230005
C  C231  1  0.90956000  0.47812000  0.96144000  1.0 -0.1596215171
C  C232  1  0.47812000  0.90956000  0.65088000  1.0 -0.1657230005
C  C233  1  0.90956000  0.65088000  0.47812000  1.0 -0.1596215171
C  C234  1  0.47812000  0.96144000  0.90956000  1.0 -0.1657230005
C  C235  1  0.65088000  0.90956000  0.96144000  1.0 -0.1657230005
C  C236  1  0.96144000  0.47812000  0.65088000  1.0 -0.1596215171
C  C237  1  0.96144000  0.90956000  0.47812000  1.0 -0.1596215171
C  C238  1  0.65088000  0.47812000  0.90956000  1.0 -0.1657230005
C  C239  1  0.47812000  0.65088000  0.96144000  1.0 -0.1596215171
C  C240  1  0.90956000  0.96144000  0.65088000  1.0 -0.1657230005
C  C241  1  0.65088000  0.96144000  0.90956000  1.0 -0.1596215171
C  C242  1  0.96144000  0.65088000  0.47812000  1.0 -0.1657230005
C  C243  1  0.90956000  0.47812000  0.65088000  1.0 -0.1596215171
C  C244  1  0.47812000  0.90956000  0.96144000  1.0 -0.1596215171
C  C245  1  0.90956000  0.65088000  0.96144000  1.0 -0.1596215171
C  C246  1  0.47812000  0.96144000  0.65088000  1.0 -0.1657230005
C  C247  1  0.65088000  0.90956000  0.47812000  1.0 -0.1596215171
C  C248  1  0.96144000  0.47812000  0.90956000  1.0 -0.1657230005
C  C249  1  0.96144000  0.90956000  0.65088000  1.0 -0.1657230005
C  C250  1  0.65088000  0.47812000  0.96144000  1.0 -0.1657230005
C  C251  1  0.47812000  0.65088000  0.90956000  1.0 -0.1657230005
C  C252  1  0.90956000  0.96144000  0.47812000  1.0 -0.1596215171
C  C253  1  0.34912000  0.03856000  0.52188000  1.0 -0.1596215171
C  C254  1  0.03856000  0.34912000  0.09044000  1.0 -0.1657230005
C  C255  1  0.09044000  0.52188000  0.03856000  1.0 -0.1596215171
C  C256  1  0.52188000  0.09044000  0.34912000  1.0 -0.1596215171
C  C257  1  0.09044000  0.34912000  0.52188000  1.0 -0.1657230005
C  C258  1  0.52188000  0.03856000  0.09044000  1.0 -0.1596215171
C  C259  1  0.34912000  0.09044000  0.03856000  1.0 -0.1596215171
C  C260  1  0.03856000  0.52188000  0.34912000  1.0 -0.1657230005
C  C261  1  0.03856000  0.09044000  0.52188000  1.0 -0.1657230005
C  C262  1  0.34912000  0.52188000  0.09044000  1.0 -0.1657230005
C  C263  1  0.52188000  0.34912000  0.03856000  1.0 -0.1657230005
C  C264  1  0.09044000  0.03856000  0.34912000  1.0 -0.1596215171
C  C265  1  0.38449000  0.02309000  0.07497000  1.0 -0.0929359289
C  C266  1  0.02309000  0.38449000  0.51745000  1.0 -0.0929359289
C  C267  1  0.07497000  0.51745000  0.38449000  1.0 -0.0929359289
C  C268  1  0.51745000  0.07497000  0.02309000  1.0 -0.0929359289
C  C269  1  0.07497000  0.38449000  0.02309000  1.0 -0.0929359289
C  C270  1  0.51745000  0.02309000  0.38449000  1.0 -0.0929359289
C  C271  1  0.38449000  0.07497000  0.51745000  1.0 -0.0929359289
C  C272  1  0.02309000  0.51745000  0.07497000  1.0 -0.0929359289
C  C273  1  0.02309000  0.07497000  0.38449000  1.0 -0.0929359289
C  C274  1  0.38449000  0.51745000  0.02309000  1.0 -0.0929359289
C  C275  1  0.51745000  0.38449000  0.07497000  1.0 -0.0929359289
C  C276  1  0.07497000  0.02309000  0.51745000  1.0 -0.0929359289
C  C277  1  0.61551000  0.97691000  0.48255000  1.0 -0.0929359289
C  C278  1  0.97691000  0.61551000  0.92503000  1.0 -0.0929359289
C  C279  1  0.92503000  0.48255000  0.97691000  1.0 -0.0929359289
C  C280  1  0.48255000  0.92503000  0.61551000  1.0 -0.0929359289
C  C281  1  0.92503000  0.61551000  0.48255000  1.0 -0.0929359289
C  C282  1  0.48255000  0.97691000  0.92503000  1.0 -0.0929359289
C  C283  1  0.61551000  0.92503000  0.97691000  1.0 -0.0929359289
C  C284  1  0.97691000  0.48255000  0.61551000  1.0 -0.0929359289
C  C285  1  0.97691000  0.92503000  0.48255000  1.0 -0.0929359289
C  C286  1  0.61551000  0.48255000  0.92503000  1.0 -0.0929359289
C  C287  1  0.48255000  0.61551000  0.97691000  1.0 -0.0929359289
C  C288  1  0.92503000  0.97691000  0.61551000  1.0 -0.0929359289
C  C289  1  0.61551000  0.97691000  0.92503000  1.0 -0.0929359289
C  C290  1  0.97691000  0.61551000  0.48255000  1.0 -0.0929359289
C  C291  1  0.92503000  0.48255000  0.61551000  1.0 -0.0929359289
C  C292  1  0.48255000  0.92503000  0.97691000  1.0 -0.0929359289
C  C293  1  0.92503000  0.61551000  0.97691000  1.0 -0.0929359289
C  C294  1  0.48255000  0.97691000  0.61551000  1.0 -0.0929359289
C  C295  1  0.61551000  0.92503000  0.48255000  1.0 -0.0929359289
C  C296  1  0.97691000  0.48255000  0.92503000  1.0 -0.0929359289
C  C297  1  0.97691000  0.92503000  0.61551000  1.0 -0.0929359289
C  C298  1  0.61551000  0.48255000  0.97691000  1.0 -0.0929359289
C  C299  1  0.48255000  0.61551000  0.92503000  1.0 -0.0929359289
C  C300  1  0.92503000  0.97691000  0.48255000  1.0 -0.0929359289
C  C301  1  0.38449000  0.02309000  0.51745000  1.0 -0.0929359289
C  C302  1  0.02309000  0.38449000  0.07497000  1.0 -0.0929359289
C  C303  1  0.07497000  0.51745000  0.02309000  1.0 -0.0929359289
C  C304  1  0.51745000  0.07497000  0.38449000  1.0 -0.0929359289
C  C305  1  0.07497000  0.38449000  0.51745000  1.0 -0.0929359289
C  C306  1  0.51745000  0.02309000  0.07497000  1.0 -0.0929359289
C  C307  1  0.38449000  0.07497000  0.02309000  1.0 -0.0929359289
C  C308  1  0.02309000  0.51745000  0.38449000  1.0 -0.0929359289
C  C309  1  0.02309000  0.07497000  0.51745000  1.0 -0.0929359289
C  C310  1  0.38449000  0.51745000  0.07497000  1.0 -0.0929359289
C  C311  1  0.51745000  0.38449000  0.02309000  1.0 -0.0929359289
C  C312  1  0.07497000  0.02309000  0.38449000  1.0 -0.0929359289
C  C313  1  0.40138000  0.04080000  0.04080000  1.0 -0.0028015431
C  C314  1  0.04080000  0.40138000  0.51702000  1.0 -0.0028015431
C  C315  1  0.04080000  0.51702000  0.40138000  1.0 -0.0028015431
C  C316  1  0.51702000  0.04080000  0.04080000  1.0 -0.0028015431
C  C317  1  0.04080000  0.40138000  0.04080000  1.0 -0.0028015431
C  C318  1  0.51702000  0.04080000  0.40138000  1.0 -0.0028015431
C  C319  1  0.40138000  0.04080000  0.51702000  1.0 -0.0028015431
C  C320  1  0.04080000  0.51702000  0.04080000  1.0 -0.0028015431
C  C321  1  0.04080000  0.04080000  0.40138000  1.0 -0.0028015431
C  C322  1  0.40138000  0.51702000  0.04080000  1.0 -0.0028015431
C  C323  1  0.51702000  0.40138000  0.04080000  1.0 -0.0028015431
C  C324  1  0.04080000  0.04080000  0.51702000  1.0 -0.0028015431
C  C325  1  0.59862000  0.95920000  0.48298000  1.0 -0.0028015431
C  C326  1  0.95920000  0.59862000  0.95920000  1.0 -0.0028015431
C  C327  1  0.95920000  0.48298000  0.95920000  1.0 -0.0028015431
C  C328  1  0.48298000  0.95920000  0.59862000  1.0 -0.0053665223
C  C329  1  0.95920000  0.59862000  0.48298000  1.0 -0.0028015431
C  C330  1  0.48298000  0.95920000  0.95920000  1.0 -0.0028015431
C  C331  1  0.59862000  0.95920000  0.95920000  1.0 0.0002043409
C  C332  1  0.95920000  0.48298000  0.59862000  1.0 -0.0053665223
C  C333  1  0.95920000  0.95920000  0.48298000  1.0 -0.0028015431
C  C334  1  0.59862000  0.48298000  0.95920000  1.0 -0.0028015431
C  C335  1  0.48298000  0.59862000  0.95920000  1.0 -0.0028015431
C  C336  1  0.95920000  0.95920000  0.59862000  1.0 -0.0028015431
C  C337  1  0.43988000  0.02520000  0.02520000  1.0 0.561379748
C  C338  1  0.02520000  0.43988000  0.50972000  1.0 0.561379748
C  C339  1  0.02520000  0.50972000  0.43988000  1.0 0.561379748
C  C340  1  0.50972000  0.02520000  0.02520000  1.0 0.561379748
C  C341  1  0.02520000  0.43988000  0.02520000  1.0 0.561379748
C  C342  1  0.50972000  0.02520000  0.43988000  1.0 0.561379748
C  C343  1  0.43988000  0.02520000  0.50972000  1.0 0.561379748
C  C344  1  0.02520000  0.50972000  0.02520000  1.0 0.561379748
C  C345  1  0.02520000  0.02520000  0.43988000  1.0 0.561379748
C  C346  1  0.43988000  0.50972000  0.02520000  1.0 0.561379748
C  C347  1  0.50972000  0.43988000  0.02520000  1.0 0.561379748
C  C348  1  0.02520000  0.02520000  0.50972000  1.0 0.561379748
C  C349  1  0.56012000  0.97480000  0.49028000  1.0 0.561379748
C  C350  1  0.97480000  0.56012000  0.97480000  1.0 0.561379748
C  C351  1  0.97480000  0.49028000  0.97480000  1.0 0.561379748
C  C352  1  0.49028000  0.97480000  0.56012000  1.0 0.561379748
C  C353  1  0.97480000  0.56012000  0.49028000  1.0 0.561379748
C  C354  1  0.49028000  0.97480000  0.97480000  1.0 0.561379748
C  C355  1  0.56012000  0.97480000  0.97480000  1.0 0.561379748
C  C356  1  0.97480000  0.49028000  0.56012000  1.0 0.561379748
C  C357  1  0.97480000  0.97480000  0.49028000  1.0 0.561379748
C  C358  1  0.56012000  0.49028000  0.97480000  1.0 0.561379748
C  C359  1  0.49028000  0.56012000  0.97480000  1.0 0.561379748
C  C360  1  0.97480000  0.97480000  0.56012000  1.0 0.561379748
O  O1  1  0.45251000  0.99603000  0.04285000  1.0 -0.5009821742
O  O2  1  0.99603000  0.45251000  0.50861000  1.0 -0.5009821742
O  O3  1  0.04285000  0.50861000  0.45251000  1.0 -0.5009821742
O  O4  1  0.50861000  0.04285000  0.99603000  1.0 -0.5009821742
O  O5  1  0.04285000  0.45251000  0.99603000  1.0 -0.5009821742
O  O6  1  0.50861000  0.99603000  0.45251000  1.0 -0.5009821742
O  O7  1  0.45251000  0.04285000  0.50861000  1.0 -0.5009821742
O  O8  1  0.99603000  0.50861000  0.04285000  1.0 -0.5009821742
O  O9  1  0.99603000  0.04285000  0.45251000  1.0 -0.5009821742
O  O10  1  0.45251000  0.50861000  0.99603000  1.0 -0.5009821742
O  O11  1  0.50861000  0.45251000  0.04285000  1.0 -0.5009821742
O  O12  1  0.04285000  0.99603000  0.50861000  1.0 -0.5009821742
O  O13  1  0.54749000  0.00397000  0.49139000  1.0 -0.5009821742
O  O14  1  0.00397000  0.54749000  0.95715000  1.0 -0.5009821742
O  O15  1  0.95715000  0.49139000  0.00397000  1.0 -0.5009821742
O  O16  1  0.49139000  0.95715000  0.54749000  1.0 -0.5009821742
O  O17  1  0.95715000  0.54749000  0.49139000  1.0 -0.5009821742
O  O18  1  0.49139000  0.00397000  0.95715000  1.0 -0.5009821742
O  O19  1  0.54749000  0.95715000  0.00397000  1.0 -0.5009821742
O  O20  1  0.00397000  0.49139000  0.54749000  1.0 -0.5009821742
O  O21  1  0.00397000  0.95715000  0.49139000  1.0 -0.5009821742
O  O22  1  0.54749000  0.49139000  0.95715000  1.0 -0.5009821742
O  O23  1  0.49139000  0.54749000  0.00397000  1.0 -0.5009821742
O  O24  1  0.95715000  0.00397000  0.54749000  1.0 -0.5009821742
O  O25  1  0.54749000  0.00397000  0.95715000  1.0 -0.5009821742
O  O26  1  0.00397000  0.54749000  0.49139000  1.0 -0.5009821742
O  O27  1  0.95715000  0.49139000  0.54749000  1.0 -0.5009821742
O  O28  1  0.49139000  0.95715000  0.00397000  1.0 -0.5009821742
O  O29  1  0.95715000  0.54749000  0.00397000  1.0 -0.5009821742
O  O30  1  0.49139000  0.00397000  0.54749000  1.0 -0.5009821742
O  O31  1  0.54749000  0.95715000  0.49139000  1.0 -0.5009821742
O  O32  1  0.00397000  0.49139000  0.95715000  1.0 -0.5009821742
O  O33  1  0.00397000  0.95715000  0.54749000  1.0 -0.5009821742
O  O34  1  0.54749000  0.49139000  0.00397000  1.0 -0.5009821742
O  O35  1  0.49139000  0.54749000  0.95715000  1.0 -0.5009821742
O  O36  1  0.95715000  0.00397000  0.49139000  1.0 -0.5009821742
O  O37  1  0.45251000  0.99603000  0.50861000  1.0 -0.5009821742
O  O38  1  0.99603000  0.45251000  0.04285000  1.0 -0.5009821742
O  O39  1  0.04285000  0.50861000  0.99603000  1.0 -0.5009821742
O  O40  1  0.50861000  0.04285000  0.45251000  1.0 -0.5009821742
O  O41  1  0.04285000  0.45251000  0.50861000  1.0 -0.5009821742
O  O42  1  0.50861000  0.99603000  0.04285000  1.0 -0.5009821742
O  O43  1  0.45251000  0.04285000  0.99603000  1.0 -0.5009821742
O  O44  1  0.99603000  0.50861000  0.45251000  1.0 -0.5009821742
O  O45  1  0.99603000  0.04285000  0.50861000  1.0 -0.5009821742
O  O46  1  0.45251000  0.50861000  0.04285000  1.0 -0.5009821742
O  O47  1  0.50861000  0.45251000  0.99603000  1.0 -0.5009821742
O  O48  1  0.04285000  0.99603000  0.45251000  1.0 -0.5009821742
