# DDEC6 charges by PACMAN v1.1 (https://github.com/mtap-research/PACMAN-charge/)
data_BAZGEQ_ASR_pacman
_symmetry_space_group_name_H-M   'P 1'
_cell_length_a   39.70700000
_cell_length_b   39.70700000
_cell_length_c   38.34200000
_cell_angle_alpha   90.00000000
_cell_angle_beta   90.00000000
_cell_angle_gamma   90.00000000
_symmetry_Int_Tables_number   1
_chemical_formula_structural   CuH16C28(NO2)2
_chemical_formula_sum   'Cu24 H384 C672 N48 O96'
_cell_volume   60451.75514236
_cell_formula_units_Z   24
loop_
 _symmetry_equiv_pos_site_id
 _symmetry_equiv_pos_as_xyz
  1  'x, y, z'
loop_
 _atom_site_type_symbol
 _atom_site_label
 _atom_site_symmetry_multiplicity
 _atom_site_fract_x
 _atom_site_fract_y
 _atom_site_fract_z
 _atom_site_occupancy
 _atom_site_charge
Cu  Cu1  1  0.00000000  0.50000000  0.79678000  1.0 0.8345843922
Cu  Cu2  1  0.00000000  0.50000000  0.29678000  1.0 0.8345843922
Cu  Cu3  1  0.00000000  0.50000000  0.86629000  1.0 0.8817586374
Cu  Cu4  1  0.00000000  0.50000000  0.36629000  1.0 0.8817586374
Cu  Cu5  1  0.50000000  0.71040000  0.06622000  1.0 0.8607286584
Cu  Cu6  1  0.50000000  0.28960000  0.06622000  1.0 0.8607286584
Cu  Cu7  1  0.78960000  0.00000000  0.56622000  1.0 0.8607286584
Cu  Cu8  1  0.21040000  0.00000000  0.56622000  1.0 0.8607286584
Cu  Cu9  1  0.50000000  0.77750000  0.06846000  1.0 0.851381458
Cu  Cu10  1  0.50000000  0.22250000  0.06846000  1.0 0.851381458
Cu  Cu11  1  0.72250000  0.00000000  0.56846000  1.0 0.851381458
Cu  Cu12  1  0.27750000  0.00000000  0.56846000  1.0 0.851381458
Cu  Cu13  1  0.50000000  0.00000000  0.70322000  1.0 0.8345843922
Cu  Cu14  1  0.50000000  0.00000000  0.20322000  1.0 0.8350610506
Cu  Cu15  1  0.50000000  0.00000000  0.63371000  1.0 0.8817586374
Cu  Cu16  1  0.50000000  0.00000000  0.13371000  1.0 0.8817586374
Cu  Cu17  1  0.00000000  0.78960000  0.43378000  1.0 0.8607286584
Cu  Cu18  1  0.00000000  0.21040000  0.43378000  1.0 0.8607286584
Cu  Cu19  1  0.28960000  0.50000000  0.93378000  1.0 0.8607286584
Cu  Cu20  1  0.71040000  0.50000000  0.93378000  1.0 0.8607286584
Cu  Cu21  1  0.00000000  0.72250000  0.43154000  1.0 0.851381458
Cu  Cu22  1  0.00000000  0.27750000  0.43154000  1.0 0.851381458
Cu  Cu23  1  0.22250000  0.50000000  0.93154000  1.0 0.851381458
Cu  Cu24  1  0.77750000  0.50000000  0.93154000  1.0 0.851381458
H  H1  1  0.82640000  0.71340000  0.77790000  1.0 0.1280757413
H  H2  1  0.17360000  0.28660000  0.77790000  1.0 0.1280757413
H  H3  1  0.78660000  0.32640000  0.27790000  1.0 0.1280757413
H  H4  1  0.21340000  0.67360000  0.27790000  1.0 0.1280757413
H  H5  1  0.17360000  0.71340000  0.77790000  1.0 0.1280757413
H  H6  1  0.82640000  0.28660000  0.77790000  1.0 0.1280757413
H  H7  1  0.21340000  0.32640000  0.27790000  1.0 0.1280757413
H  H8  1  0.78660000  0.67360000  0.27790000  1.0 0.1280757413
H  H9  1  0.86540000  0.66970000  0.77850000  1.0 0.1187635902
H  H10  1  0.13460000  0.33030000  0.77850000  1.0 0.1187635902
H  H11  1  0.83030000  0.36540000  0.27850000  1.0 0.1187635902
H  H12  1  0.16970000  0.63460000  0.27850000  1.0 0.1187635902
H  H13  1  0.13460000  0.66970000  0.77850000  1.0 0.1187635902
H  H14  1  0.86540000  0.33030000  0.77850000  1.0 0.1187635902
H  H15  1  0.16970000  0.36540000  0.27850000  1.0 0.1187635902
H  H16  1  0.83030000  0.63460000  0.27850000  1.0 0.1187635902
H  H17  1  0.83640000  0.64460000  0.87580000  1.0 0.1187635902
H  H18  1  0.16360000  0.35540000  0.87580000  1.0 0.1187635902
H  H19  1  0.85540000  0.33640000  0.37580000  1.0 0.1187635902
H  H20  1  0.14460000  0.66360000  0.37580000  1.0 0.1187635902
H  H21  1  0.16360000  0.64460000  0.87580000  1.0 0.1187635902
H  H22  1  0.83640000  0.35540000  0.87580000  1.0 0.1187635902
H  H23  1  0.14460000  0.33640000  0.37580000  1.0 0.1187635902
H  H24  1  0.85540000  0.66360000  0.37580000  1.0 0.1187635902
H  H25  1  0.79710000  0.68710000  0.87430000  1.0 0.1280757413
H  H26  1  0.20290000  0.31290000  0.87430000  1.0 0.1280757413
H  H27  1  0.81290000  0.29710000  0.37430000  1.0 0.1280757413
H  H28  1  0.18710000  0.70290000  0.37430000  1.0 0.1280757413
H  H29  1  0.20290000  0.68710000  0.87430000  1.0 0.1280757413
H  H30  1  0.79710000  0.31290000  0.87430000  1.0 0.1280757413
H  H31  1  0.18710000  0.29710000  0.37430000  1.0 0.1280757413
H  H32  1  0.81290000  0.70290000  0.37430000  1.0 0.1280757413
H  H33  1  0.88430000  0.61300000  0.77490000  1.0 0.1187635902
H  H34  1  0.11570000  0.38700000  0.77490000  1.0 0.1187635902
H  H35  1  0.88700000  0.38430000  0.27490000  1.0 0.1187635902
H  H36  1  0.11300000  0.61570000  0.27490000  1.0 0.1187635902
H  H37  1  0.11570000  0.61300000  0.77490000  1.0 0.1187635902
H  H38  1  0.88430000  0.38700000  0.77490000  1.0 0.1187635902
H  H39  1  0.11300000  0.38430000  0.27490000  1.0 0.1187635902
H  H40  1  0.88700000  0.61570000  0.27490000  1.0 0.1187635902
H  H41  1  0.92470000  0.57000000  0.77990000  1.0 0.1280757413
H  H42  1  0.07530000  0.43000000  0.77990000  1.0 0.1280757413
H  H43  1  0.93000000  0.42470000  0.27990000  1.0 0.1280757413
H  H44  1  0.07000000  0.57530000  0.27990000  1.0 0.1280757413
H  H45  1  0.07530000  0.57000000  0.77990000  1.0 0.1280757413
H  H46  1  0.92470000  0.43000000  0.77990000  1.0 0.1280757413
H  H47  1  0.07000000  0.42470000  0.27990000  1.0 0.1280757413
H  H48  1  0.93000000  0.57530000  0.27990000  1.0 0.1280757413
H  H49  1  0.92680000  0.58630000  0.88260000  1.0 0.1280757413
H  H50  1  0.07320000  0.41370000  0.88260000  1.0 0.1280757413
H  H51  1  0.91370000  0.42680000  0.38260000  1.0 0.1280757413
H  H52  1  0.08630000  0.57320000  0.38260000  1.0 0.1280757413
H  H53  1  0.07320000  0.58630000  0.88260000  1.0 0.1280757413
H  H54  1  0.92680000  0.41370000  0.88260000  1.0 0.1280757413
H  H55  1  0.08630000  0.42680000  0.38260000  1.0 0.1280757413
H  H56  1  0.91370000  0.57320000  0.38260000  1.0 0.1280757413
H  H57  1  0.88710000  0.62830000  0.87730000  1.0 0.1106314065
H  H58  1  0.11290000  0.37170000  0.87730000  1.0 0.1106314065
H  H59  1  0.87170000  0.38710000  0.37730000  1.0 0.1106314065
H  H60  1  0.12830000  0.61290000  0.37730000  1.0 0.1106314065
H  H61  1  0.11290000  0.62830000  0.87730000  1.0 0.1106314065
H  H62  1  0.88710000  0.37170000  0.87730000  1.0 0.1106314065
H  H63  1  0.12830000  0.38710000  0.37730000  1.0 0.1106314065
H  H64  1  0.87170000  0.61290000  0.37730000  1.0 0.1106314065
H  H65  1  0.71480000  0.70560000  0.89230000  1.0 0.1280757413
H  H66  1  0.28520000  0.29440000  0.89230000  1.0 0.1280757413
H  H67  1  0.79440000  0.21480000  0.39230000  1.0 0.1280757413
H  H68  1  0.20560000  0.78520000  0.39230000  1.0 0.1280757413
H  H69  1  0.28520000  0.70560000  0.89230000  1.0 0.1280757413
H  H70  1  0.71480000  0.29440000  0.89230000  1.0 0.1280757413
H  H71  1  0.20560000  0.21480000  0.39230000  1.0 0.1280757413
H  H72  1  0.79440000  0.78520000  0.39230000  1.0 0.1280757413
H  H73  1  0.67200000  0.70490000  0.93340000  1.0 0.1187635902
H  H74  1  0.32800000  0.29510000  0.93340000  1.0 0.1187635902
H  H75  1  0.79510000  0.17200000  0.43340000  1.0 0.1187635902
H  H76  1  0.20490000  0.82800000  0.43340000  1.0 0.1187635902
H  H77  1  0.32800000  0.70490000  0.93340000  1.0 0.1187635902
H  H78  1  0.67200000  0.29510000  0.93340000  1.0 0.1187635902
H  H79  1  0.20490000  0.17200000  0.43340000  1.0 0.1187635902
H  H80  1  0.79510000  0.82800000  0.43340000  1.0 0.1187635902
H  H81  1  0.63870000  0.79110000  0.89070000  1.0 0.1187635902
H  H82  1  0.36130000  0.20890000  0.89070000  1.0 0.1187635902
H  H83  1  0.70890000  0.13870000  0.39070000  1.0 0.1187635902
H  H84  1  0.29110000  0.86130000  0.39070000  1.0 0.1187635902
H  H85  1  0.36130000  0.79110000  0.89070000  1.0 0.1187635902
H  H86  1  0.63870000  0.20890000  0.89070000  1.0 0.1187635902
H  H87  1  0.29110000  0.13870000  0.39070000  1.0 0.1187635902
H  H88  1  0.70890000  0.86130000  0.39070000  1.0 0.1187635902
H  H89  1  0.68410000  0.79360000  0.85550000  1.0 0.1280757413
H  H90  1  0.31590000  0.20640000  0.85550000  1.0 0.1280757413
H  H91  1  0.70640000  0.18410000  0.35550000  1.0 0.1280757413
H  H92  1  0.29360000  0.81590000  0.35550000  1.0 0.1280757413
H  H93  1  0.31590000  0.79360000  0.85550000  1.0 0.1280757413
H  H94  1  0.68410000  0.20640000  0.85550000  1.0 0.1280757413
H  H95  1  0.29360000  0.18410000  0.35550000  1.0 0.1280757413
H  H96  1  0.70640000  0.81590000  0.35550000  1.0 0.1280757413
H  H97  1  0.62100000  0.69870000  0.94150000  1.0 0.1106314065
H  H98  1  0.37900000  0.30130000  0.94150000  1.0 0.1106314065
H  H99  1  0.80130000  0.12100000  0.44150000  1.0 0.1106314065
H  H100  1  0.19870000  0.87900000  0.44150000  1.0 0.1106314065
H  H101  1  0.37900000  0.69870000  0.94150000  1.0 0.1106314065
H  H102  1  0.62100000  0.30130000  0.94150000  1.0 0.1106314065
H  H103  1  0.19870000  0.12100000  0.44150000  1.0 0.1106314065
H  H104  1  0.80130000  0.87900000  0.44150000  1.0 0.1106314065
H  H105  1  0.58030000  0.69400000  0.98340000  1.0 0.1380167376
H  H106  1  0.41970000  0.30600000  0.98340000  1.0 0.1380167376
H  H107  1  0.80600000  0.08030000  0.48340000  1.0 0.1380167376
H  H108  1  0.19400000  0.91970000  0.48340000  1.0 0.1380167376
H  H109  1  0.41970000  0.69400000  0.98340000  1.0 0.1380167376
H  H110  1  0.58030000  0.30600000  0.98340000  1.0 0.1380167376
H  H111  1  0.19400000  0.08030000  0.48340000  1.0 0.1380167376
H  H112  1  0.80600000  0.91970000  0.48340000  1.0 0.1380167376
H  H113  1  0.57670000  0.79620000  0.99220000  1.0 0.1280757413
H  H114  1  0.42330000  0.20380000  0.99220000  1.0 0.1280757413
H  H115  1  0.70380000  0.07670000  0.49220000  1.0 0.1280757413
H  H116  1  0.29620000  0.92330000  0.49220000  1.0 0.1280757413
H  H117  1  0.42330000  0.79620000  0.99220000  1.0 0.1280757413
H  H118  1  0.57670000  0.20380000  0.99220000  1.0 0.1280757413
H  H119  1  0.29620000  0.07670000  0.49220000  1.0 0.1280757413
H  H120  1  0.70380000  0.92330000  0.49220000  1.0 0.1280757413
H  H121  1  0.61990000  0.79870000  0.95100000  1.0 0.1187635902
H  H122  1  0.38010000  0.20130000  0.95100000  1.0 0.1187635902
H  H123  1  0.70130000  0.11990000  0.45100000  1.0 0.1187635902
H  H124  1  0.29870000  0.88010000  0.45100000  1.0 0.1187635902
H  H125  1  0.38010000  0.79870000  0.95100000  1.0 0.1187635902
H  H126  1  0.61990000  0.20130000  0.95100000  1.0 0.1187635902
H  H127  1  0.29870000  0.11990000  0.45100000  1.0 0.1187635902
H  H128  1  0.70130000  0.88010000  0.45100000  1.0 0.1187635902
H  H129  1  0.71730000  0.82450000  0.78840000  1.0 0.1106314065
H  H130  1  0.28270000  0.17550000  0.78840000  1.0 0.1106314065
H  H131  1  0.67550000  0.21730000  0.28840000  1.0 0.1106314065
H  H132  1  0.32450000  0.78270000  0.28840000  1.0 0.1106314065
H  H133  1  0.28270000  0.82450000  0.78840000  1.0 0.1106314065
H  H134  1  0.71730000  0.17550000  0.78840000  1.0 0.1106314065
H  H135  1  0.32450000  0.21730000  0.28840000  1.0 0.1106314065
H  H136  1  0.67550000  0.78270000  0.28840000  1.0 0.1106314065
H  H137  1  0.71660000  0.86810000  0.74650000  1.0 0.1187635902
H  H138  1  0.28340000  0.13190000  0.74650000  1.0 0.1187635902
H  H139  1  0.63190000  0.21660000  0.24650000  1.0 0.1187635902
H  H140  1  0.36810000  0.78340000  0.24650000  1.0 0.1187635902
H  H141  1  0.28340000  0.86810000  0.74650000  1.0 0.1187635902
H  H142  1  0.71660000  0.13190000  0.74650000  1.0 0.1187635902
H  H143  1  0.36810000  0.21660000  0.24650000  1.0 0.1187635902
H  H144  1  0.63190000  0.78340000  0.24650000  1.0 0.1187635902
H  H145  1  0.79840000  0.82360000  0.70240000  1.0 0.1187635902
H  H146  1  0.20160000  0.17640000  0.70240000  1.0 0.1187635902
H  H147  1  0.67640000  0.29840000  0.20240000  1.0 0.1187635902
H  H148  1  0.32360000  0.70160000  0.20240000  1.0 0.1187635902
H  H149  1  0.20160000  0.82360000  0.70240000  1.0 0.1187635902
H  H150  1  0.79840000  0.17640000  0.70240000  1.0 0.1187635902
H  H151  1  0.32360000  0.29840000  0.20240000  1.0 0.1187635902
H  H152  1  0.67640000  0.70160000  0.20240000  1.0 0.1187635902
H  H153  1  0.79810000  0.78040000  0.74250000  1.0 0.1187635902
H  H154  1  0.20190000  0.21960000  0.74250000  1.0 0.1187635902
H  H155  1  0.71960000  0.29810000  0.24250000  1.0 0.1187635902
H  H156  1  0.28040000  0.70190000  0.24250000  1.0 0.1187635902
H  H157  1  0.20190000  0.78040000  0.74250000  1.0 0.1187635902
H  H158  1  0.79810000  0.21960000  0.74250000  1.0 0.1187635902
H  H159  1  0.28040000  0.29810000  0.24250000  1.0 0.1187635902
H  H160  1  0.71960000  0.70190000  0.24250000  1.0 0.1187635902
H  H161  1  0.70910000  0.88110000  0.69020000  1.0 0.1106314065
H  H162  1  0.29090000  0.11890000  0.69020000  1.0 0.1106314065
H  H163  1  0.61890000  0.20910000  0.19020000  1.0 0.1106314065
H  H164  1  0.38110000  0.79090000  0.19020000  1.0 0.1106314065
H  H165  1  0.29090000  0.88110000  0.69020000  1.0 0.1106314065
H  H166  1  0.70910000  0.11890000  0.69020000  1.0 0.1106314065
H  H167  1  0.38110000  0.20910000  0.19020000  1.0 0.1106314065
H  H168  1  0.61890000  0.79090000  0.19020000  1.0 0.1106314065
H  H169  1  0.70770000  0.92530000  0.65030000  1.0 0.1187635902
H  H170  1  0.29230000  0.07470000  0.65030000  1.0 0.1187635902
H  H171  1  0.57470000  0.20770000  0.15030000  1.0 0.1187635902
H  H172  1  0.42530000  0.79230000  0.15030000  1.0 0.1187635902
H  H173  1  0.29230000  0.92530000  0.65030000  1.0 0.1187635902
H  H174  1  0.70770000  0.07470000  0.65030000  1.0 0.1187635902
H  H175  1  0.42530000  0.20770000  0.15030000  1.0 0.1187635902
H  H176  1  0.57470000  0.79230000  0.15030000  1.0 0.1187635902
H  H177  1  0.80600000  0.92450000  0.64240000  1.0 0.1187635902
H  H178  1  0.19400000  0.07550000  0.64240000  1.0 0.1187635902
H  H179  1  0.57550000  0.30600000  0.14240000  1.0 0.1187635902
H  H180  1  0.42450000  0.69400000  0.14240000  1.0 0.1187635902
H  H181  1  0.19400000  0.92450000  0.64240000  1.0 0.1187635902
H  H182  1  0.80600000  0.07550000  0.64240000  1.0 0.1187635902
H  H183  1  0.42450000  0.30600000  0.14240000  1.0 0.1187635902
H  H184  1  0.57550000  0.69400000  0.14240000  1.0 0.1187635902
H  H185  1  0.81220000  0.88090000  0.68340000  1.0 0.1187635902
H  H186  1  0.18780000  0.11910000  0.68340000  1.0 0.1187635902
H  H187  1  0.61910000  0.31220000  0.18340000  1.0 0.1187635902
H  H188  1  0.38090000  0.68780000  0.18340000  1.0 0.1187635902
H  H189  1  0.18780000  0.88090000  0.68340000  1.0 0.1187635902
H  H190  1  0.81220000  0.11910000  0.68340000  1.0 0.1187635902
H  H191  1  0.38090000  0.31220000  0.18340000  1.0 0.1187635902
H  H192  1  0.61910000  0.68780000  0.18340000  1.0 0.1187635902
H  H193  1  0.32640000  0.78660000  0.72210000  1.0 0.1280757413
H  H194  1  0.67360000  0.21340000  0.72210000  1.0 0.1280757413
H  H195  1  0.28660000  0.17360000  0.22210000  1.0 0.1280757413
H  H196  1  0.71340000  0.82640000  0.22210000  1.0 0.1280757413
H  H197  1  0.67360000  0.78660000  0.72210000  1.0 0.1280757413
H  H198  1  0.32640000  0.21340000  0.72210000  1.0 0.1280757413
H  H199  1  0.71340000  0.17360000  0.22210000  1.0 0.1280757413
H  H200  1  0.28660000  0.82640000  0.22210000  1.0 0.1280757413
H  H201  1  0.36540000  0.83030000  0.72150000  1.0 0.1187635902
H  H202  1  0.63460000  0.16970000  0.72150000  1.0 0.1187635902
H  H203  1  0.33030000  0.13460000  0.22150000  1.0 0.1187635902
H  H204  1  0.66970000  0.86540000  0.22150000  1.0 0.1187635902
H  H205  1  0.63460000  0.83030000  0.72150000  1.0 0.1187635902
H  H206  1  0.36540000  0.16970000  0.72150000  1.0 0.1187635902
H  H207  1  0.66970000  0.13460000  0.22150000  1.0 0.1187635902
H  H208  1  0.33030000  0.86540000  0.22150000  1.0 0.1187635902
H  H209  1  0.33640000  0.85540000  0.62420000  1.0 0.1187635902
H  H210  1  0.66360000  0.14460000  0.62420000  1.0 0.1187635902
H  H211  1  0.35540000  0.16360000  0.12420000  1.0 0.1187635902
H  H212  1  0.64460000  0.83640000  0.12420000  1.0 0.1187635902
H  H213  1  0.66360000  0.85540000  0.62420000  1.0 0.1187635902
H  H214  1  0.33640000  0.14460000  0.62420000  1.0 0.1187635902
H  H215  1  0.64460000  0.16360000  0.12420000  1.0 0.1187635902
H  H216  1  0.35540000  0.83640000  0.12420000  1.0 0.1187635902
H  H217  1  0.29710000  0.81290000  0.62570000  1.0 0.1280757413
H  H218  1  0.70290000  0.18710000  0.62570000  1.0 0.1280757413
H  H219  1  0.31290000  0.20290000  0.12570000  1.0 0.1280757413
H  H220  1  0.68710000  0.79710000  0.12570000  1.0 0.1280757413
H  H221  1  0.70290000  0.81290000  0.62570000  1.0 0.1280757413
H  H222  1  0.29710000  0.18710000  0.62570000  1.0 0.1280757413
H  H223  1  0.68710000  0.20290000  0.12570000  1.0 0.1280757413
H  H224  1  0.31290000  0.79710000  0.12570000  1.0 0.1280757413
H  H225  1  0.38430000  0.88700000  0.72510000  1.0 0.1187635902
H  H226  1  0.61570000  0.11300000  0.72510000  1.0 0.1187635902
H  H227  1  0.38700000  0.11570000  0.22510000  1.0 0.1187635902
H  H228  1  0.61300000  0.88430000  0.22510000  1.0 0.1187635902
H  H229  1  0.61570000  0.88700000  0.72510000  1.0 0.1187635902
H  H230  1  0.38430000  0.11300000  0.72510000  1.0 0.1187635902
H  H231  1  0.61300000  0.11570000  0.22510000  1.0 0.1187635902
H  H232  1  0.38700000  0.88430000  0.22510000  1.0 0.1187635902
H  H233  1  0.42470000  0.93000000  0.72010000  1.0 0.1280757413
H  H234  1  0.57530000  0.07000000  0.72010000  1.0 0.1280757413
H  H235  1  0.43000000  0.07530000  0.22010000  1.0 0.1280757413
H  H236  1  0.57000000  0.92470000  0.22010000  1.0 0.1280757413
H  H237  1  0.57530000  0.93000000  0.72010000  1.0 0.1280757413
H  H238  1  0.42470000  0.07000000  0.72010000  1.0 0.1280757413
H  H239  1  0.57000000  0.07530000  0.22010000  1.0 0.1280757413
H  H240  1  0.43000000  0.92470000  0.22010000  1.0 0.1280757413
H  H241  1  0.42680000  0.91370000  0.61740000  1.0 0.1280757413
H  H242  1  0.57320000  0.08630000  0.61740000  1.0 0.1280757413
H  H243  1  0.41370000  0.07320000  0.11740000  1.0 0.1280757413
H  H244  1  0.58630000  0.92680000  0.11740000  1.0 0.1280757413
H  H245  1  0.57320000  0.91370000  0.61740000  1.0 0.1280757413
H  H246  1  0.42680000  0.08630000  0.61740000  1.0 0.1280757413
H  H247  1  0.58630000  0.07320000  0.11740000  1.0 0.1280757413
H  H248  1  0.41370000  0.92680000  0.11740000  1.0 0.1280757413
H  H249  1  0.38710000  0.87170000  0.62270000  1.0 0.1106314065
H  H250  1  0.61290000  0.12830000  0.62270000  1.0 0.1106314065
H  H251  1  0.37170000  0.11290000  0.12270000  1.0 0.1106314065
H  H252  1  0.62830000  0.88710000  0.12270000  1.0 0.1106314065
H  H253  1  0.61290000  0.87170000  0.62270000  1.0 0.1106314065
H  H254  1  0.38710000  0.12830000  0.62270000  1.0 0.1106314065
H  H255  1  0.62830000  0.11290000  0.12270000  1.0 0.1106314065
H  H256  1  0.37170000  0.88710000  0.12270000  1.0 0.1106314065
H  H257  1  0.21480000  0.79440000  0.60770000  1.0 0.1280757413
H  H258  1  0.78520000  0.20560000  0.60770000  1.0 0.1280757413
H  H259  1  0.29440000  0.28520000  0.10770000  1.0 0.1280757413
H  H260  1  0.70560000  0.71480000  0.10770000  1.0 0.1280757413
H  H261  1  0.78520000  0.79440000  0.60770000  1.0 0.1280757413
H  H262  1  0.21480000  0.20560000  0.60770000  1.0 0.1280757413
H  H263  1  0.70560000  0.28520000  0.10770000  1.0 0.1280757413
H  H264  1  0.29440000  0.71480000  0.10770000  1.0 0.1280757413
H  H265  1  0.17200000  0.79510000  0.56660000  1.0 0.1187635902
H  H266  1  0.82800000  0.20490000  0.56660000  1.0 0.1187635902
H  H267  1  0.29510000  0.32800000  0.06660000  1.0 0.1187635902
H  H268  1  0.70490000  0.67200000  0.06660000  1.0 0.1187635902
H  H269  1  0.82800000  0.79510000  0.56660000  1.0 0.1187635902
H  H270  1  0.17200000  0.20490000  0.56660000  1.0 0.1187635902
H  H271  1  0.70490000  0.32800000  0.06660000  1.0 0.1187635902
H  H272  1  0.29510000  0.67200000  0.06660000  1.0 0.1187635902
H  H273  1  0.13870000  0.70890000  0.60930000  1.0 0.1187635902
H  H274  1  0.86130000  0.29110000  0.60930000  1.0 0.1187635902
H  H275  1  0.20890000  0.36130000  0.10930000  1.0 0.1187635902
H  H276  1  0.79110000  0.63870000  0.10930000  1.0 0.1187635902
H  H277  1  0.86130000  0.70890000  0.60930000  1.0 0.1187635902
H  H278  1  0.13870000  0.29110000  0.60930000  1.0 0.1187635902
H  H279  1  0.79110000  0.36130000  0.10930000  1.0 0.1187635902
H  H280  1  0.20890000  0.63870000  0.10930000  1.0 0.1187635902
H  H281  1  0.18410000  0.70640000  0.64450000  1.0 0.1280757413
H  H282  1  0.81590000  0.29360000  0.64450000  1.0 0.1280757413
H  H283  1  0.20640000  0.31590000  0.14450000  1.0 0.1280757413
H  H284  1  0.79360000  0.68410000  0.14450000  1.0 0.1280757413
H  H285  1  0.81590000  0.70640000  0.64450000  1.0 0.1280757413
H  H286  1  0.18410000  0.29360000  0.64450000  1.0 0.1280757413
H  H287  1  0.79360000  0.31590000  0.14450000  1.0 0.1280757413
H  H288  1  0.20640000  0.68410000  0.14450000  1.0 0.1280757413
H  H289  1  0.12100000  0.80130000  0.55850000  1.0 0.1106314065
H  H290  1  0.87900000  0.19870000  0.55850000  1.0 0.1106314065
H  H291  1  0.30130000  0.37900000  0.05850000  1.0 0.1106314065
H  H292  1  0.69870000  0.62100000  0.05850000  1.0 0.1106314065
H  H293  1  0.87900000  0.80130000  0.55850000  1.0 0.1106314065
H  H294  1  0.12100000  0.19870000  0.55850000  1.0 0.1106314065
H  H295  1  0.69870000  0.37900000  0.05850000  1.0 0.1106314065
H  H296  1  0.30130000  0.62100000  0.05850000  1.0 0.1106314065
H  H297  1  0.08030000  0.80600000  0.51660000  1.0 0.1380167376
H  H298  1  0.91970000  0.19400000  0.51660000  1.0 0.1380167376
H  H299  1  0.30600000  0.41970000  0.01660000  1.0 0.1380167376
H  H300  1  0.69400000  0.58030000  0.01660000  1.0 0.1380167376
H  H301  1  0.91970000  0.80600000  0.51660000  1.0 0.1380167376
H  H302  1  0.08030000  0.19400000  0.51660000  1.0 0.1380167376
H  H303  1  0.69400000  0.41970000  0.01660000  1.0 0.1380167376
H  H304  1  0.30600000  0.58030000  0.01660000  1.0 0.1380167376
H  H305  1  0.07670000  0.70380000  0.50780000  1.0 0.1280757413
H  H306  1  0.92330000  0.29620000  0.50780000  1.0 0.1280757413
H  H307  1  0.20380000  0.42330000  0.00780000  1.0 0.1280757413
H  H308  1  0.79620000  0.57670000  0.00780000  1.0 0.1280757413
H  H309  1  0.92330000  0.70380000  0.50780000  1.0 0.1280757413
H  H310  1  0.07670000  0.29620000  0.50780000  1.0 0.1280757413
H  H311  1  0.79620000  0.42330000  0.00780000  1.0 0.1280757413
H  H312  1  0.20380000  0.57670000  0.00780000  1.0 0.1280757413
H  H313  1  0.11990000  0.70130000  0.54900000  1.0 0.1187635902
H  H314  1  0.88010000  0.29870000  0.54900000  1.0 0.1187635902
H  H315  1  0.20130000  0.38010000  0.04900000  1.0 0.1187635902
H  H316  1  0.79870000  0.61990000  0.04900000  1.0 0.1187635902
H  H317  1  0.88010000  0.70130000  0.54900000  1.0 0.1187635902
H  H318  1  0.11990000  0.29870000  0.54900000  1.0 0.1187635902
H  H319  1  0.79870000  0.38010000  0.04900000  1.0 0.1187635902
H  H320  1  0.20130000  0.61990000  0.04900000  1.0 0.1187635902
H  H321  1  0.21730000  0.67550000  0.71160000  1.0 0.1106314065
H  H322  1  0.78270000  0.32450000  0.71160000  1.0 0.1106314065
H  H323  1  0.17550000  0.28270000  0.21160000  1.0 0.1106314065
H  H324  1  0.82450000  0.71730000  0.21160000  1.0 0.1106314065
H  H325  1  0.78270000  0.67550000  0.71160000  1.0 0.1106314065
H  H326  1  0.21730000  0.32450000  0.71160000  1.0 0.1106314065
H  H327  1  0.82450000  0.28270000  0.21160000  1.0 0.1106314065
H  H328  1  0.17550000  0.71730000  0.21160000  1.0 0.1106314065
H  H329  1  0.21660000  0.63190000  0.75350000  1.0 0.1187635902
H  H330  1  0.78340000  0.36810000  0.75350000  1.0 0.1187635902
H  H331  1  0.13190000  0.28340000  0.25350000  1.0 0.1187635902
H  H332  1  0.86810000  0.71660000  0.25350000  1.0 0.1187635902
H  H333  1  0.78340000  0.63190000  0.75350000  1.0 0.1187635902
H  H334  1  0.21660000  0.36810000  0.75350000  1.0 0.1187635902
H  H335  1  0.86810000  0.28340000  0.25350000  1.0 0.1187635902
H  H336  1  0.13190000  0.71660000  0.25350000  1.0 0.1187635902
H  H337  1  0.29840000  0.67640000  0.79760000  1.0 0.1187635902
H  H338  1  0.70160000  0.32360000  0.79760000  1.0 0.1187635902
H  H339  1  0.17640000  0.20160000  0.29760000  1.0 0.1187635902
H  H340  1  0.82360000  0.79840000  0.29760000  1.0 0.1187635902
H  H341  1  0.70160000  0.67640000  0.79760000  1.0 0.1187635902
H  H342  1  0.29840000  0.32360000  0.79760000  1.0 0.1187635902
H  H343  1  0.82360000  0.20160000  0.29760000  1.0 0.1187635902
H  H344  1  0.17640000  0.79840000  0.29760000  1.0 0.1187635902
H  H345  1  0.29810000  0.71960000  0.75750000  1.0 0.1187635902
H  H346  1  0.70190000  0.28040000  0.75750000  1.0 0.1187635902
H  H347  1  0.21960000  0.20190000  0.25750000  1.0 0.1187635902
H  H348  1  0.78040000  0.79810000  0.25750000  1.0 0.1187635902
H  H349  1  0.70190000  0.71960000  0.75750000  1.0 0.1187635902
H  H350  1  0.29810000  0.28040000  0.75750000  1.0 0.1187635902
H  H351  1  0.78040000  0.20190000  0.25750000  1.0 0.1187635902
H  H352  1  0.21960000  0.79810000  0.25750000  1.0 0.1187635902
H  H353  1  0.20910000  0.61890000  0.80980000  1.0 0.1106314065
H  H354  1  0.79090000  0.38110000  0.80980000  1.0 0.1106314065
H  H355  1  0.11890000  0.29090000  0.30980000  1.0 0.1106314065
H  H356  1  0.88110000  0.70910000  0.30980000  1.0 0.1106314065
H  H357  1  0.79090000  0.61890000  0.80980000  1.0 0.1106314065
H  H358  1  0.20910000  0.38110000  0.80980000  1.0 0.1106314065
H  H359  1  0.88110000  0.29090000  0.30980000  1.0 0.1106314065
H  H360  1  0.11890000  0.70910000  0.30980000  1.0 0.1106314065
H  H361  1  0.20770000  0.57470000  0.84970000  1.0 0.1187635902
H  H362  1  0.79230000  0.42530000  0.84970000  1.0 0.1187635902
H  H363  1  0.07470000  0.29230000  0.34970000  1.0 0.1187635902
H  H364  1  0.92530000  0.70770000  0.34970000  1.0 0.1187635902
H  H365  1  0.79230000  0.57470000  0.84970000  1.0 0.1187635902
H  H366  1  0.20770000  0.42530000  0.84970000  1.0 0.1187635902
H  H367  1  0.92530000  0.29230000  0.34970000  1.0 0.1187635902
H  H368  1  0.07470000  0.70770000  0.34970000  1.0 0.1187635902
H  H369  1  0.30600000  0.57550000  0.85760000  1.0 0.1187635902
H  H370  1  0.69400000  0.42450000  0.85760000  1.0 0.1187635902
H  H371  1  0.07550000  0.19400000  0.35760000  1.0 0.1187635902
H  H372  1  0.92450000  0.80600000  0.35760000  1.0 0.1187635902
H  H373  1  0.69400000  0.57550000  0.85760000  1.0 0.1187635902
H  H374  1  0.30600000  0.42450000  0.85760000  1.0 0.1187635902
H  H375  1  0.92450000  0.19400000  0.35760000  1.0 0.1187635902
H  H376  1  0.07550000  0.80600000  0.35760000  1.0 0.1187635902
H  H377  1  0.31220000  0.61910000  0.81660000  1.0 0.1187635902
H  H378  1  0.68780000  0.38090000  0.81660000  1.0 0.1187635902
H  H379  1  0.11910000  0.18780000  0.31660000  1.0 0.1187635902
H  H380  1  0.88090000  0.81220000  0.31660000  1.0 0.1187635902
H  H381  1  0.68780000  0.61910000  0.81660000  1.0 0.1187635902
H  H382  1  0.31220000  0.38090000  0.81660000  1.0 0.1187635902
H  H383  1  0.88090000  0.18780000  0.31660000  1.0 0.1187635902
H  H384  1  0.11910000  0.81220000  0.31660000  1.0 0.1187635902
C  C1  1  0.78040000  0.72820000  0.82420000  1.0 0.3834312728
C  C2  1  0.21960000  0.27180000  0.82420000  1.0 0.3834312728
C  C3  1  0.77180000  0.28040000  0.32420000  1.0 0.3834312728
C  C4  1  0.22820000  0.71960000  0.32420000  1.0 0.3834312728
C  C5  1  0.21960000  0.72820000  0.82420000  1.0 0.3834312728
C  C6  1  0.78040000  0.27180000  0.82420000  1.0 0.3834312728
C  C7  1  0.22820000  0.28040000  0.32420000  1.0 0.3834312728
C  C8  1  0.77180000  0.71960000  0.32420000  1.0 0.3834312728
C  C9  1  0.73020000  0.75070000  0.84460000  1.0 0.3850174617
C  C10  1  0.26980000  0.24930000  0.84460000  1.0 0.3850174617
C  C11  1  0.74930000  0.23020000  0.34460000  1.0 0.3834312728
C  C12  1  0.25070000  0.76980000  0.34460000  1.0 0.3834312728
C  C13  1  0.26980000  0.75070000  0.84460000  1.0 0.3850174617
C  C14  1  0.73020000  0.24930000  0.84460000  1.0 0.3850174617
C  C15  1  0.25070000  0.23020000  0.34460000  1.0 0.3834312728
C  C16  1  0.74930000  0.76980000  0.34460000  1.0 0.3834312728
C  C17  1  0.75750000  0.77300000  0.79720000  1.0 0.3683857095
C  C18  1  0.24250000  0.22700000  0.79720000  1.0 0.3683857095
C  C19  1  0.72700000  0.25750000  0.29720000  1.0 0.3683857095
C  C20  1  0.27300000  0.74250000  0.29720000  1.0 0.3683857095
C  C21  1  0.24250000  0.77300000  0.79720000  1.0 0.3683857095
C  C22  1  0.75750000  0.22700000  0.79720000  1.0 0.3683857095
C  C23  1  0.27300000  0.25750000  0.29720000  1.0 0.3683857095
C  C24  1  0.72700000  0.74250000  0.29720000  1.0 0.3683857095
C  C25  1  0.80750000  0.70270000  0.82540000  1.0 0.0112052398
C  C26  1  0.19250000  0.29730000  0.82540000  1.0 0.0112052398
C  C27  1  0.79730000  0.30750000  0.32540000  1.0 0.0112052398
C  C28  1  0.20270000  0.69250000  0.32540000  1.0 0.0112052398
C  C29  1  0.19250000  0.70270000  0.82540000  1.0 0.0112052398
C  C30  1  0.80750000  0.29730000  0.82540000  1.0 0.0112052398
C  C31  1  0.20270000  0.30750000  0.32540000  1.0 0.0112052398
C  C32  1  0.79730000  0.69250000  0.32540000  1.0 0.0112052398
C  C33  1  0.82840000  0.69920000  0.79710000  1.0 -0.1084854369
C  C34  1  0.17160000  0.30080000  0.79710000  1.0 -0.1084854369
C  C35  1  0.80080000  0.32840000  0.29710000  1.0 -0.1084854369
C  C36  1  0.19920000  0.67160000  0.29710000  1.0 -0.1084854369
C  C37  1  0.17160000  0.69920000  0.79710000  1.0 -0.1084854369
C  C38  1  0.82840000  0.30080000  0.79710000  1.0 -0.1084854369
C  C39  1  0.19920000  0.32840000  0.29710000  1.0 -0.1084854369
C  C40  1  0.80080000  0.67160000  0.29710000  1.0 -0.1084854369
C  C41  1  0.85240000  0.67420000  0.79810000  1.0 -0.1525837893
C  C42  1  0.14760000  0.32580000  0.79810000  1.0 -0.1525837893
C  C43  1  0.82580000  0.35240000  0.29810000  1.0 -0.1525837893
C  C44  1  0.17420000  0.64760000  0.29810000  1.0 -0.1525837893
C  C45  1  0.14760000  0.67420000  0.79810000  1.0 -0.1525837893
C  C46  1  0.85240000  0.32580000  0.79810000  1.0 -0.1525837893
C  C47  1  0.17420000  0.35240000  0.29810000  1.0 -0.1525837893
C  C48  1  0.82580000  0.64760000  0.29810000  1.0 -0.1525837893
C  C49  1  0.85690000  0.65610000  0.82810000  1.0 0.0798832622
C  C50  1  0.14310000  0.34390000  0.82810000  1.0 0.0798832622
C  C51  1  0.84390000  0.35690000  0.32810000  1.0 0.0798832622
C  C52  1  0.15610000  0.64310000  0.32810000  1.0 0.0798832622
C  C53  1  0.14310000  0.65610000  0.82810000  1.0 0.0798832622
C  C54  1  0.85690000  0.34390000  0.82810000  1.0 0.0798832622
C  C55  1  0.15610000  0.35690000  0.32810000  1.0 0.0798832622
C  C56  1  0.84390000  0.64310000  0.32810000  1.0 0.0798832622
C  C57  1  0.83480000  0.65890000  0.85660000  1.0 -0.1525837893
C  C58  1  0.16520000  0.34110000  0.85660000  1.0 -0.1525837893
C  C59  1  0.84110000  0.33480000  0.35660000  1.0 -0.1525837893
C  C60  1  0.15890000  0.66520000  0.35660000  1.0 -0.1581336724
C  C61  1  0.16520000  0.65890000  0.85660000  1.0 -0.1525837893
C  C62  1  0.83480000  0.34110000  0.85660000  1.0 -0.1525837893
C  C63  1  0.15890000  0.33480000  0.35660000  1.0 -0.1525837893
C  C64  1  0.84110000  0.66520000  0.35660000  1.0 -0.1525837893
C  C65  1  0.81100000  0.68330000  0.85530000  1.0 -0.100999023
C  C66  1  0.18900000  0.31670000  0.85530000  1.0 -0.100999023
C  C67  1  0.81670000  0.31100000  0.35530000  1.0 -0.100999023
C  C68  1  0.18330000  0.68900000  0.35530000  1.0 -0.100999023
C  C69  1  0.18900000  0.68330000  0.85530000  1.0 -0.100999023
C  C70  1  0.81100000  0.31670000  0.85530000  1.0 -0.100999023
C  C71  1  0.18330000  0.31100000  0.35530000  1.0 -0.100999023
C  C72  1  0.81670000  0.68900000  0.35530000  1.0 -0.100999023
C  C73  1  0.88210000  0.62750000  0.82650000  1.0 0.0599732172
C  C74  1  0.11790000  0.37250000  0.82650000  1.0 0.0599732172
C  C75  1  0.87250000  0.38210000  0.32650000  1.0 0.0599732172
C  C76  1  0.12750000  0.61790000  0.32650000  1.0 0.0599732172
C  C77  1  0.11790000  0.62750000  0.82650000  1.0 0.0599732172
C  C78  1  0.88210000  0.37250000  0.82650000  1.0 0.0599732172
C  C79  1  0.12750000  0.38210000  0.32650000  1.0 0.0599732172
C  C80  1  0.87250000  0.61790000  0.32650000  1.0 0.0599732172
C  C81  1  0.89330000  0.60810000  0.79680000  1.0 -0.1721243815
C  C82  1  0.10670000  0.39190000  0.79680000  1.0 -0.1721243815
C  C83  1  0.89190000  0.39330000  0.29680000  1.0 -0.1721243815
C  C84  1  0.10810000  0.60670000  0.29680000  1.0 -0.1721243815
C  C85  1  0.10670000  0.60810000  0.79680000  1.0 -0.1721243815
C  C86  1  0.89330000  0.39190000  0.79680000  1.0 -0.1721243815
C  C87  1  0.10810000  0.39330000  0.29680000  1.0 -0.1721243815
C  C88  1  0.89190000  0.60670000  0.29680000  1.0 -0.1721243815
C  C89  1  0.91750000  0.58160000  0.79970000  1.0 -0.1084854369
C  C90  1  0.08250000  0.41840000  0.79970000  1.0 -0.1084854369
C  C91  1  0.91840000  0.41750000  0.29970000  1.0 -0.1084854369
C  C92  1  0.08160000  0.58250000  0.29970000  1.0 -0.1084854369
C  C93  1  0.08250000  0.58160000  0.79970000  1.0 -0.1084854369
C  C94  1  0.91750000  0.41840000  0.79970000  1.0 -0.1084854369
C  C95  1  0.08160000  0.41750000  0.29970000  1.0 -0.1084854369
C  C96  1  0.91840000  0.58250000  0.29970000  1.0 -0.1084854369
C  C97  1  0.93020000  0.57350000  0.83200000  1.0 -0.0243547602
C  C98  1  0.06980000  0.42650000  0.83200000  1.0 -0.0243547602
C  C99  1  0.92650000  0.43020000  0.33200000  1.0 -0.0243547602
C  C100  1  0.07350000  0.56980000  0.33200000  1.0 -0.0243547602
C  C101  1  0.06980000  0.57350000  0.83200000  1.0 -0.0243547602
C  C102  1  0.93020000  0.42650000  0.83200000  1.0 -0.0243547602
C  C103  1  0.07350000  0.43020000  0.33200000  1.0 -0.0243547602
C  C104  1  0.92650000  0.56980000  0.33200000  1.0 -0.0243547602
C  C105  1  0.91860000  0.59150000  0.86050000  1.0 -0.0867688287
C  C106  1  0.08140000  0.40850000  0.86050000  1.0 -0.0867688287
C  C107  1  0.90850000  0.41860000  0.36050000  1.0 -0.0867688287
C  C108  1  0.09150000  0.58140000  0.36050000  1.0 -0.0867688287
C  C109  1  0.08140000  0.59150000  0.86050000  1.0 -0.0867688287
C  C110  1  0.91860000  0.40850000  0.86050000  1.0 -0.0867688287
C  C111  1  0.09150000  0.41860000  0.36050000  1.0 -0.0867688287
C  C112  1  0.90850000  0.58140000  0.36050000  1.0 -0.0867688287
C  C113  1  0.89460000  0.61760000  0.85720000  1.0 -0.1525837893
C  C114  1  0.10540000  0.38240000  0.85720000  1.0 -0.1525837893
C  C115  1  0.88240000  0.39460000  0.35720000  1.0 -0.1525837893
C  C116  1  0.11760000  0.60540000  0.35720000  1.0 -0.1525837893
C  C117  1  0.10540000  0.61760000  0.85720000  1.0 -0.1525837893
C  C118  1  0.89460000  0.38240000  0.85720000  1.0 -0.1525837893
C  C119  1  0.11760000  0.39460000  0.35720000  1.0 -0.1525837893
C  C120  1  0.88240000  0.60540000  0.35720000  1.0 -0.1525837893
C  C121  1  0.95490000  0.54410000  0.82880000  1.0 0.5696565158
C  C122  1  0.04510000  0.45590000  0.82880000  1.0 0.5696565158
C  C123  1  0.95590000  0.45490000  0.32880000  1.0 0.5696565158
C  C124  1  0.04410000  0.54510000  0.32880000  1.0 0.5696565158
C  C125  1  0.04510000  0.54410000  0.82880000  1.0 0.5696565158
C  C126  1  0.95490000  0.45590000  0.82880000  1.0 0.5696565158
C  C127  1  0.04410000  0.45490000  0.32880000  1.0 0.5696565158
C  C128  1  0.95590000  0.54510000  0.32880000  1.0 0.5696565158
C  C129  1  0.70270000  0.75040000  0.87010000  1.0 -0.0048103141
C  C130  1  0.29730000  0.24960000  0.87010000  1.0 -0.0052428093
C  C131  1  0.74960000  0.20270000  0.37010000  1.0 -0.0048103141
C  C132  1  0.25040000  0.79730000  0.37010000  1.0 -0.0048103141
C  C133  1  0.29730000  0.75040000  0.87010000  1.0 -0.0048103141
C  C134  1  0.70270000  0.24960000  0.87010000  1.0 -0.0048103141
C  C135  1  0.25040000  0.20270000  0.37010000  1.0 -0.0052428093
C  C136  1  0.74960000  0.79730000  0.37010000  1.0 -0.0048103141
C  C137  1  0.69940000  0.72320000  0.89340000  1.0 -0.1264889695
C  C138  1  0.30060000  0.27680000  0.89340000  1.0 -0.1264889695
C  C139  1  0.77680000  0.19940000  0.39340000  1.0 -0.1264889695
C  C140  1  0.22320000  0.80060000  0.39340000  1.0 -0.1264889695
C  C141  1  0.30060000  0.72320000  0.89340000  1.0 -0.1264889695
C  C142  1  0.69940000  0.27680000  0.89340000  1.0 -0.1264889695
C  C143  1  0.22320000  0.19940000  0.39340000  1.0 -0.1264889695
C  C144  1  0.77680000  0.80060000  0.39340000  1.0 -0.1264889695
C  C145  1  0.67420000  0.72220000  0.91720000  1.0 -0.1431630137
C  C146  1  0.32580000  0.27780000  0.91720000  1.0 -0.1431630137
C  C147  1  0.77780000  0.17420000  0.41720000  1.0 -0.1431630137
C  C148  1  0.22220000  0.82580000  0.41720000  1.0 -0.1525837893
C  C149  1  0.32580000  0.72220000  0.91720000  1.0 -0.1431630137
C  C150  1  0.67420000  0.27780000  0.91720000  1.0 -0.1431630137
C  C151  1  0.22220000  0.17420000  0.41720000  1.0 -0.1525837893
C  C152  1  0.77780000  0.82580000  0.41720000  1.0 -0.1431630137
C  C153  1  0.65290000  0.74830000  0.91560000  1.0 0.0599732172
C  C154  1  0.34710000  0.25170000  0.91560000  1.0 0.0599732172
C  C155  1  0.75170000  0.15290000  0.41560000  1.0 0.0599732172
C  C156  1  0.24830000  0.84710000  0.41560000  1.0 0.0599732172
C  C157  1  0.34710000  0.74830000  0.91560000  1.0 0.0599732172
C  C158  1  0.65290000  0.25170000  0.91560000  1.0 0.0599732172
C  C159  1  0.24830000  0.15290000  0.41560000  1.0 0.0599732172
C  C160  1  0.75170000  0.84710000  0.41560000  1.0 0.0599732172
C  C161  1  0.65510000  0.77450000  0.89170000  1.0 -0.1581336724
C  C162  1  0.34490000  0.22550000  0.89170000  1.0 -0.1581336724
C  C163  1  0.72550000  0.15510000  0.39170000  1.0 -0.1581336724
C  C164  1  0.27450000  0.84490000  0.39170000  1.0 -0.1581336724
C  C165  1  0.34490000  0.77450000  0.89170000  1.0 -0.1581336724
C  C166  1  0.65510000  0.22550000  0.89170000  1.0 -0.1581336724
C  C167  1  0.27450000  0.15510000  0.39170000  1.0 -0.1581336724
C  C168  1  0.72550000  0.84490000  0.39170000  1.0 -0.1581336724
C  C169  1  0.68110000  0.77530000  0.87040000  1.0 -0.100999023
C  C170  1  0.31890000  0.22470000  0.87040000  1.0 -0.100999023
C  C171  1  0.72470000  0.18110000  0.37040000  1.0 -0.100999023
C  C172  1  0.27530000  0.81890000  0.37040000  1.0 -0.100999023
C  C173  1  0.31890000  0.77530000  0.87040000  1.0 -0.100999023
C  C174  1  0.68110000  0.22470000  0.87040000  1.0 -0.100999023
C  C175  1  0.27530000  0.18110000  0.37040000  1.0 -0.100999023
C  C176  1  0.72470000  0.81890000  0.37040000  1.0 -0.100999023
C  C177  1  0.62500000  0.74860000  0.94280000  1.0 0.0688942244
C  C178  1  0.37500000  0.25140000  0.94280000  1.0 0.0688942244
C  C179  1  0.75140000  0.12500000  0.44280000  1.0 0.0688942244
C  C180  1  0.24860000  0.87500000  0.44280000  1.0 0.0688942244
C  C181  1  0.37500000  0.74860000  0.94280000  1.0 0.0688942244
C  C182  1  0.62500000  0.25140000  0.94280000  1.0 0.0688942244
C  C183  1  0.24860000  0.12500000  0.44280000  1.0 0.0688942244
C  C184  1  0.75140000  0.87500000  0.44280000  1.0 0.0688942244
C  C185  1  0.61260000  0.71800000  0.95210000  1.0 -0.1431630137
C  C186  1  0.38740000  0.28200000  0.95210000  1.0 -0.1431630137
C  C187  1  0.78200000  0.11260000  0.45210000  1.0 -0.1431630137
C  C188  1  0.21800000  0.88740000  0.45210000  1.0 -0.1431630137
C  C189  1  0.38740000  0.71800000  0.95210000  1.0 -0.1431630137
C  C190  1  0.61260000  0.28200000  0.95210000  1.0 -0.1431630137
C  C191  1  0.21800000  0.11260000  0.45210000  1.0 -0.1431630137
C  C192  1  0.78200000  0.88740000  0.45210000  1.0 -0.1431630137
C  C193  1  0.58780000  0.71520000  0.97670000  1.0 -0.1264889695
C  C194  1  0.41220000  0.28480000  0.97670000  1.0 -0.1264889695
C  C195  1  0.78480000  0.08780000  0.47670000  1.0 -0.1264889695
C  C196  1  0.21520000  0.91220000  0.47670000  1.0 -0.1264889695
C  C197  1  0.41220000  0.71520000  0.97670000  1.0 -0.1264889695
C  C198  1  0.58780000  0.28480000  0.97670000  1.0 -0.1264889695
C  C199  1  0.21520000  0.08780000  0.47670000  1.0 -0.1264889695
C  C200  1  0.78480000  0.91220000  0.47670000  1.0 -0.1264889695
C  C201  1  0.57380000  0.74400000  0.99210000  1.0 0.0166417258
C  C202  1  0.42620000  0.25600000  0.99210000  1.0 0.0166417258
C  C203  1  0.75600000  0.07380000  0.49210000  1.0 0.0166417258
C  C204  1  0.24400000  0.92620000  0.49210000  1.0 0.0166417258
C  C205  1  0.42620000  0.74400000  0.99210000  1.0 0.0166417258
C  C206  1  0.57380000  0.25600000  0.99210000  1.0 0.0166417258
C  C207  1  0.24400000  0.07380000  0.49210000  1.0 0.0166417258
C  C208  1  0.75600000  0.92620000  0.49210000  1.0 0.0166417258
C  C209  1  0.58570000  0.77670000  0.98250000  1.0 -0.1084854369
C  C210  1  0.41430000  0.22330000  0.98250000  1.0 -0.1084854369
C  C211  1  0.72330000  0.08570000  0.48250000  1.0 -0.1084854369
C  C212  1  0.27670000  0.91430000  0.48250000  1.0 -0.1084854369
C  C213  1  0.41430000  0.77670000  0.98250000  1.0 -0.1084854369
C  C214  1  0.58570000  0.22330000  0.98250000  1.0 -0.1084854369
C  C215  1  0.27670000  0.08570000  0.48250000  1.0 -0.1084854369
C  C216  1  0.72330000  0.91430000  0.48250000  1.0 -0.1084854369
C  C217  1  0.61140000  0.77790000  0.95780000  1.0 -0.1581336724
C  C218  1  0.38860000  0.22210000  0.95780000  1.0 -0.1525837893
C  C219  1  0.72210000  0.11140000  0.45780000  1.0 -0.1525837893
C  C220  1  0.27790000  0.88860000  0.45780000  1.0 -0.1581336724
C  C221  1  0.38860000  0.77790000  0.95780000  1.0 -0.1581336724
C  C222  1  0.61140000  0.22210000  0.95780000  1.0 -0.1525837893
C  C223  1  0.27790000  0.11140000  0.45780000  1.0 -0.1525837893
C  C224  1  0.72210000  0.88860000  0.45780000  1.0 -0.1525837893
C  C225  1  0.54320000  0.74460000  0.02160000  1.0 0.5696565158
C  C226  1  0.45680000  0.25540000  0.02160000  1.0 0.5696565158
C  C227  1  0.75540000  0.04320000  0.52160000  1.0 0.5696565158
C  C228  1  0.24460000  0.95680000  0.52160000  1.0 0.5696565158
C  C229  1  0.45680000  0.74460000  0.02160000  1.0 0.5696565158
C  C230  1  0.54320000  0.25540000  0.02160000  1.0 0.5696565158
C  C231  1  0.24460000  0.04320000  0.52160000  1.0 0.5696565158
C  C232  1  0.75540000  0.95680000  0.52160000  1.0 0.5696565158
C  C233  1  0.75750000  0.79830000  0.76930000  1.0 0.0030602521
C  C234  1  0.24250000  0.20170000  0.76930000  1.0 0.0030602521
C  C235  1  0.70170000  0.25750000  0.26930000  1.0 0.0030602521
C  C236  1  0.29830000  0.74250000  0.26930000  1.0 0.0030602521
C  C237  1  0.24250000  0.79830000  0.76930000  1.0 0.0030602521
C  C238  1  0.75750000  0.20170000  0.76930000  1.0 0.0030602521
C  C239  1  0.29830000  0.25750000  0.26930000  1.0 0.0030602521
C  C240  1  0.70170000  0.74250000  0.26930000  1.0 0.0030602521
C  C241  1  0.73330000  0.82460000  0.77060000  1.0 -0.1084854369
C  C242  1  0.26670000  0.17540000  0.77060000  1.0 -0.1084854369
C  C243  1  0.67540000  0.23330000  0.27060000  1.0 -0.1084854369
C  C244  1  0.32460000  0.76670000  0.27060000  1.0 -0.1084854369
C  C245  1  0.26670000  0.82460000  0.77060000  1.0 -0.1084854369
C  C246  1  0.73330000  0.17540000  0.77060000  1.0 -0.1084854369
C  C247  1  0.32460000  0.23330000  0.27060000  1.0 -0.1084854369
C  C248  1  0.67540000  0.76670000  0.27060000  1.0 -0.1084854369
C  C249  1  0.73260000  0.85100000  0.74570000  1.0 -0.1801223827
C  C250  1  0.26740000  0.14900000  0.74570000  1.0 -0.1801223827
C  C251  1  0.64900000  0.23260000  0.24570000  1.0 -0.1801223827
C  C252  1  0.35100000  0.76740000  0.24570000  1.0 -0.1801223827
C  C253  1  0.26740000  0.85100000  0.74570000  1.0 -0.1801223827
C  C254  1  0.73260000  0.14900000  0.74570000  1.0 -0.1801223827
C  C255  1  0.35100000  0.23260000  0.24570000  1.0 -0.1801223827
C  C256  1  0.64900000  0.76740000  0.24570000  1.0 -0.1801223827
C  C257  1  0.75750000  0.84940000  0.71980000  1.0 0.0871744674
C  C258  1  0.24250000  0.15060000  0.71980000  1.0 0.0871744674
C  C259  1  0.65060000  0.25750000  0.21980000  1.0 0.0871744674
C  C260  1  0.34940000  0.74250000  0.21980000  1.0 0.0871744674
C  C261  1  0.24250000  0.84940000  0.71980000  1.0 0.0871744674
C  C262  1  0.75750000  0.15060000  0.71980000  1.0 0.0871744674
C  C263  1  0.34940000  0.25750000  0.21980000  1.0 0.0871744674
C  C264  1  0.65060000  0.74250000  0.21980000  1.0 0.0871744674
C  C265  1  0.78180000  0.82330000  0.71960000  1.0 -0.1581336724
C  C266  1  0.21820000  0.17670000  0.71960000  1.0 -0.1581336724
C  C267  1  0.67670000  0.28180000  0.21960000  1.0 -0.1581336724
C  C268  1  0.32330000  0.71820000  0.21960000  1.0 -0.1581336724
C  C269  1  0.21820000  0.82330000  0.71960000  1.0 -0.1581336724
C  C270  1  0.78180000  0.17670000  0.71960000  1.0 -0.1581336724
C  C271  1  0.32330000  0.28180000  0.21960000  1.0 -0.1581336724
C  C272  1  0.67670000  0.71820000  0.21960000  1.0 -0.1581336724
C  C273  1  0.78220000  0.79750000  0.74350000  1.0 -0.100999023
C  C274  1  0.21780000  0.20250000  0.74350000  1.0 -0.100999023
C  C275  1  0.70250000  0.28220000  0.24350000  1.0 -0.100999023
C  C276  1  0.29750000  0.71780000  0.24350000  1.0 -0.100999023
C  C277  1  0.21780000  0.79750000  0.74350000  1.0 -0.100999023
C  C278  1  0.78220000  0.20250000  0.74350000  1.0 -0.100999023
C  C279  1  0.29750000  0.28220000  0.24350000  1.0 -0.100999023
C  C280  1  0.70250000  0.71780000  0.24350000  1.0 -0.100999023
C  C281  1  0.76020000  0.87770000  0.69150000  1.0 0.0798832622
C  C282  1  0.23980000  0.12230000  0.69150000  1.0 0.0798832622
C  C283  1  0.62230000  0.26020000  0.19150000  1.0 0.0798832622
C  C284  1  0.37770000  0.73980000  0.19150000  1.0 0.0798832622
C  C285  1  0.23980000  0.87770000  0.69150000  1.0 0.0798832622
C  C286  1  0.76020000  0.12230000  0.69150000  1.0 0.0798832622
C  C287  1  0.37770000  0.26020000  0.19150000  1.0 0.0798832622
C  C288  1  0.62230000  0.73980000  0.19150000  1.0 0.0798832622
C  C289  1  0.72900000  0.88990000  0.68110000  1.0 -0.1801223827
C  C290  1  0.27100000  0.11010000  0.68110000  1.0 -0.1801223827
C  C291  1  0.61010000  0.22900000  0.18110000  1.0 -0.1801223827
C  C292  1  0.38990000  0.77100000  0.18110000  1.0 -0.1801223827
C  C293  1  0.27100000  0.88990000  0.68110000  1.0 -0.1801223827
C  C294  1  0.72900000  0.11010000  0.68110000  1.0 -0.1801223827
C  C295  1  0.38990000  0.22900000  0.18110000  1.0 -0.1801223827
C  C296  1  0.61010000  0.77100000  0.18110000  1.0 -0.1801223827
C  C297  1  0.72850000  0.91610000  0.65640000  1.0 -0.0660831335
C  C298  1  0.27150000  0.08390000  0.65640000  1.0 -0.0660831335
C  C299  1  0.58390000  0.22850000  0.15640000  1.0 -0.0660831335
C  C300  1  0.41610000  0.77150000  0.15640000  1.0 -0.0660831335
C  C301  1  0.27150000  0.91610000  0.65640000  1.0 -0.0660831335
C  C302  1  0.72850000  0.08390000  0.65640000  1.0 -0.0660831335
C  C303  1  0.41610000  0.22850000  0.15640000  1.0 -0.0660831335
C  C304  1  0.58390000  0.77150000  0.15640000  1.0 -0.0660831335
C  C305  1  0.75700000  0.92890000  0.64050000  1.0 -0.100999023
C  C306  1  0.24300000  0.07110000  0.64050000  1.0 -0.100999023
C  C307  1  0.57110000  0.25700000  0.14050000  1.0 -0.100999023
C  C308  1  0.42890000  0.74300000  0.14050000  1.0 -0.100999023
C  C309  1  0.24300000  0.92890000  0.64050000  1.0 -0.100999023
C  C310  1  0.75700000  0.07110000  0.64050000  1.0 -0.100999023
C  C311  1  0.42890000  0.25700000  0.14050000  1.0 -0.100999023
C  C312  1  0.57110000  0.74300000  0.14050000  1.0 -0.100999023
C  C313  1  0.78640000  0.91550000  0.65210000  1.0 -0.0660831335
C  C314  1  0.21360000  0.08450000  0.65210000  1.0 -0.064953782
C  C315  1  0.58450000  0.28640000  0.15210000  1.0 -0.0660831335
C  C316  1  0.41550000  0.71360000  0.15210000  1.0 -0.0660831335
C  C317  1  0.21360000  0.91550000  0.65210000  1.0 -0.0660831335
C  C318  1  0.78640000  0.08450000  0.65210000  1.0 -0.064953782
C  C319  1  0.41550000  0.28640000  0.15210000  1.0 -0.0660831335
C  C320  1  0.58450000  0.71360000  0.15210000  1.0 -0.0660831335
C  C321  1  0.79120000  0.88940000  0.67710000  1.0 -0.1801223827
C  C322  1  0.20880000  0.11060000  0.67710000  1.0 -0.1801223827
C  C323  1  0.61060000  0.29120000  0.17710000  1.0 -0.1801223827
C  C324  1  0.38940000  0.70880000  0.17710000  1.0 -0.1801223827
C  C325  1  0.20880000  0.88940000  0.67710000  1.0 -0.1801223827
C  C326  1  0.79120000  0.11060000  0.67710000  1.0 -0.1801223827
C  C327  1  0.38940000  0.29120000  0.17710000  1.0 -0.1801223827
C  C328  1  0.61060000  0.70880000  0.17710000  1.0 -0.1801223827
C  C329  1  0.75730000  0.95360000  0.61370000  1.0 0.5696565158
C  C330  1  0.24270000  0.04640000  0.61370000  1.0 0.5696565158
C  C331  1  0.54640000  0.25730000  0.11370000  1.0 0.5696565158
C  C332  1  0.45360000  0.74270000  0.11370000  1.0 0.5696565158
C  C333  1  0.24270000  0.95360000  0.61370000  1.0 0.5696565158
C  C334  1  0.75730000  0.04640000  0.61370000  1.0 0.5696565158
C  C335  1  0.45360000  0.25730000  0.11370000  1.0 0.5696565158
C  C336  1  0.54640000  0.74270000  0.11370000  1.0 0.5696565158
C  C337  1  0.28040000  0.77180000  0.67580000  1.0 0.3834312728
C  C338  1  0.71960000  0.22820000  0.67580000  1.0 0.3834312728
C  C339  1  0.27180000  0.21960000  0.17580000  1.0 0.3834312728
C  C340  1  0.72820000  0.78040000  0.17580000  1.0 0.3834312728
C  C341  1  0.71960000  0.77180000  0.67580000  1.0 0.3834312728
C  C342  1  0.28040000  0.22820000  0.67580000  1.0 0.3834312728
C  C343  1  0.72820000  0.21960000  0.17580000  1.0 0.3834312728
C  C344  1  0.27180000  0.78040000  0.17580000  1.0 0.3834312728
C  C345  1  0.23020000  0.74930000  0.65540000  1.0 0.3850174617
C  C346  1  0.76980000  0.25070000  0.65540000  1.0 0.3850174617
C  C347  1  0.24930000  0.26980000  0.15540000  1.0 0.3834312728
C  C348  1  0.75070000  0.73020000  0.15540000  1.0 0.3834312728
C  C349  1  0.76980000  0.74930000  0.65540000  1.0 0.3850174617
C  C350  1  0.23020000  0.25070000  0.65540000  1.0 0.3850174617
C  C351  1  0.75070000  0.26980000  0.15540000  1.0 0.3834312728
C  C352  1  0.24930000  0.73020000  0.15540000  1.0 0.3834312728
C  C353  1  0.25750000  0.72700000  0.70280000  1.0 0.3683857095
C  C354  1  0.74250000  0.27300000  0.70280000  1.0 0.3683857095
C  C355  1  0.22700000  0.24250000  0.20280000  1.0 0.3683857095
C  C356  1  0.77300000  0.75750000  0.20280000  1.0 0.3683857095
C  C357  1  0.74250000  0.72700000  0.70280000  1.0 0.3683857095
C  C358  1  0.25750000  0.27300000  0.70280000  1.0 0.3683857095
C  C359  1  0.77300000  0.24250000  0.20280000  1.0 0.3683857095
C  C360  1  0.22700000  0.75750000  0.20280000  1.0 0.3683857095
C  C361  1  0.30750000  0.79730000  0.67460000  1.0 0.0112052398
C  C362  1  0.69250000  0.20270000  0.67460000  1.0 0.0112052398
C  C363  1  0.29730000  0.19250000  0.17460000  1.0 0.0112052398
C  C364  1  0.70270000  0.80750000  0.17460000  1.0 0.0112052398
C  C365  1  0.69250000  0.79730000  0.67460000  1.0 0.0112052398
C  C366  1  0.30750000  0.20270000  0.67460000  1.0 0.0112052398
C  C367  1  0.70270000  0.19250000  0.17460000  1.0 0.0112052398
C  C368  1  0.29730000  0.80750000  0.17460000  1.0 0.0112052398
C  C369  1  0.32840000  0.80080000  0.70290000  1.0 -0.1084854369
C  C370  1  0.67160000  0.19920000  0.70290000  1.0 -0.1084854369
C  C371  1  0.30080000  0.17160000  0.20290000  1.0 -0.1084854369
C  C372  1  0.69920000  0.82840000  0.20290000  1.0 -0.1084854369
C  C373  1  0.67160000  0.80080000  0.70290000  1.0 -0.1084854369
C  C374  1  0.32840000  0.19920000  0.70290000  1.0 -0.1084854369
C  C375  1  0.69920000  0.17160000  0.20290000  1.0 -0.1084854369
C  C376  1  0.30080000  0.82840000  0.20290000  1.0 -0.1084854369
C  C377  1  0.35240000  0.82580000  0.70190000  1.0 -0.1525837893
C  C378  1  0.64760000  0.17420000  0.70190000  1.0 -0.1525837893
C  C379  1  0.32580000  0.14760000  0.20190000  1.0 -0.1525837893
C  C380  1  0.67420000  0.85240000  0.20190000  1.0 -0.1525837893
C  C381  1  0.64760000  0.82580000  0.70190000  1.0 -0.1525837893
C  C382  1  0.35240000  0.17420000  0.70190000  1.0 -0.1525837893
C  C383  1  0.67420000  0.14760000  0.20190000  1.0 -0.1525837893
C  C384  1  0.32580000  0.85240000  0.20190000  1.0 -0.1525837893
C  C385  1  0.35690000  0.84390000  0.67190000  1.0 0.0798832622
C  C386  1  0.64310000  0.15610000  0.67190000  1.0 0.0798832622
C  C387  1  0.34390000  0.14310000  0.17190000  1.0 0.0798832622
C  C388  1  0.65610000  0.85690000  0.17190000  1.0 0.0798832622
C  C389  1  0.64310000  0.84390000  0.67190000  1.0 0.0798832622
C  C390  1  0.35690000  0.15610000  0.67190000  1.0 0.0798832622
C  C391  1  0.65610000  0.14310000  0.17190000  1.0 0.0798832622
C  C392  1  0.34390000  0.85690000  0.17190000  1.0 0.0798832622
C  C393  1  0.33480000  0.84110000  0.64340000  1.0 -0.1525837893
C  C394  1  0.66520000  0.15890000  0.64340000  1.0 -0.1525837893
C  C395  1  0.34110000  0.16520000  0.14340000  1.0 -0.1525837893
C  C396  1  0.65890000  0.83480000  0.14340000  1.0 -0.1525837893
C  C397  1  0.66520000  0.84110000  0.64340000  1.0 -0.1525837893
C  C398  1  0.33480000  0.15890000  0.64340000  1.0 -0.1525837893
C  C399  1  0.65890000  0.16520000  0.14340000  1.0 -0.1525837893
C  C400  1  0.34110000  0.83480000  0.14340000  1.0 -0.1581336724
C  C401  1  0.31100000  0.81670000  0.64470000  1.0 -0.100999023
C  C402  1  0.68900000  0.18330000  0.64470000  1.0 -0.100999023
C  C403  1  0.31670000  0.18900000  0.14470000  1.0 -0.100999023
C  C404  1  0.68330000  0.81100000  0.14470000  1.0 -0.100999023
C  C405  1  0.68900000  0.81670000  0.64470000  1.0 -0.100999023
C  C406  1  0.31100000  0.18330000  0.64470000  1.0 -0.100999023
C  C407  1  0.68330000  0.18900000  0.14470000  1.0 -0.100999023
C  C408  1  0.31670000  0.81100000  0.14470000  1.0 -0.100999023
C  C409  1  0.38210000  0.87250000  0.67350000  1.0 0.0599732172
C  C410  1  0.61790000  0.12750000  0.67350000  1.0 0.0599732172
C  C411  1  0.37250000  0.11790000  0.17350000  1.0 0.0599732172
C  C412  1  0.62750000  0.88210000  0.17350000  1.0 0.0599732172
C  C413  1  0.61790000  0.87250000  0.67350000  1.0 0.0599732172
C  C414  1  0.38210000  0.12750000  0.67350000  1.0 0.0599732172
C  C415  1  0.62750000  0.11790000  0.17350000  1.0 0.0599732172
C  C416  1  0.37250000  0.88210000  0.17350000  1.0 0.0599732172
C  C417  1  0.39330000  0.89190000  0.70320000  1.0 -0.1721243815
C  C418  1  0.60670000  0.10810000  0.70320000  1.0 -0.1721243815
C  C419  1  0.39190000  0.10670000  0.20320000  1.0 -0.1721243815
C  C420  1  0.60810000  0.89330000  0.20320000  1.0 -0.1721243815
C  C421  1  0.60670000  0.89190000  0.70320000  1.0 -0.1721243815
C  C422  1  0.39330000  0.10810000  0.70320000  1.0 -0.1721243815
C  C423  1  0.60810000  0.10670000  0.20320000  1.0 -0.1721243815
C  C424  1  0.39190000  0.89330000  0.20320000  1.0 -0.1721243815
C  C425  1  0.41750000  0.91840000  0.70030000  1.0 -0.1084854369
C  C426  1  0.58250000  0.08160000  0.70030000  1.0 -0.1084854369
C  C427  1  0.41840000  0.08250000  0.20030000  1.0 -0.1084854369
C  C428  1  0.58160000  0.91750000  0.20030000  1.0 -0.1084854369
C  C429  1  0.58250000  0.91840000  0.70030000  1.0 -0.1084854369
C  C430  1  0.41750000  0.08160000  0.70030000  1.0 -0.1084854369
C  C431  1  0.58160000  0.08250000  0.20030000  1.0 -0.1084854369
C  C432  1  0.41840000  0.91750000  0.20030000  1.0 -0.1084854369
C  C433  1  0.43020000  0.92650000  0.66800000  1.0 -0.0243547602
C  C434  1  0.56980000  0.07350000  0.66800000  1.0 -0.0243547602
C  C435  1  0.42650000  0.06980000  0.16800000  1.0 -0.0243547602
C  C436  1  0.57350000  0.93020000  0.16800000  1.0 -0.0243547602
C  C437  1  0.56980000  0.92650000  0.66800000  1.0 -0.0243547602
C  C438  1  0.43020000  0.07350000  0.66800000  1.0 -0.0243547602
C  C439  1  0.57350000  0.06980000  0.16800000  1.0 -0.0243547602
C  C440  1  0.42650000  0.93020000  0.16800000  1.0 -0.0243547602
C  C441  1  0.41860000  0.90850000  0.63950000  1.0 -0.0867688287
C  C442  1  0.58140000  0.09150000  0.63950000  1.0 -0.0867688287
C  C443  1  0.40850000  0.08140000  0.13950000  1.0 -0.0867688287
C  C444  1  0.59150000  0.91860000  0.13950000  1.0 -0.0867688287
C  C445  1  0.58140000  0.90850000  0.63950000  1.0 -0.0867688287
C  C446  1  0.41860000  0.09150000  0.63950000  1.0 -0.0867688287
C  C447  1  0.59150000  0.08140000  0.13950000  1.0 -0.0867688287
C  C448  1  0.40850000  0.91860000  0.13950000  1.0 -0.0867688287
C  C449  1  0.39460000  0.88240000  0.64280000  1.0 -0.1525837893
C  C450  1  0.60540000  0.11760000  0.64280000  1.0 -0.1525837893
C  C451  1  0.38240000  0.10540000  0.14280000  1.0 -0.1525837893
C  C452  1  0.61760000  0.89460000  0.14280000  1.0 -0.1525837893
C  C453  1  0.60540000  0.88240000  0.64280000  1.0 -0.1525837893
C  C454  1  0.39460000  0.11760000  0.64280000  1.0 -0.1525837893
C  C455  1  0.61760000  0.10540000  0.14280000  1.0 -0.1525837893
C  C456  1  0.38240000  0.89460000  0.14280000  1.0 -0.1581336724
C  C457  1  0.45490000  0.95590000  0.67120000  1.0 0.5696565158
C  C458  1  0.54510000  0.04410000  0.67120000  1.0 0.5696565158
C  C459  1  0.45590000  0.04510000  0.17120000  1.0 0.5696565158
C  C460  1  0.54410000  0.95490000  0.17120000  1.0 0.5696565158
C  C461  1  0.54510000  0.95590000  0.67120000  1.0 0.5696565158
C  C462  1  0.45490000  0.04410000  0.67120000  1.0 0.5696565158
C  C463  1  0.54410000  0.04510000  0.17120000  1.0 0.5696565158
C  C464  1  0.45590000  0.95490000  0.17120000  1.0 0.5696565158
C  C465  1  0.20270000  0.74960000  0.62990000  1.0 -0.0052428093
C  C466  1  0.79730000  0.25040000  0.62990000  1.0 -0.0048103141
C  C467  1  0.24960000  0.29730000  0.12990000  1.0 -0.0052428093
C  C468  1  0.75040000  0.70270000  0.12990000  1.0 -0.0048103141
C  C469  1  0.79730000  0.74960000  0.62990000  1.0 -0.0048103141
C  C470  1  0.20270000  0.25040000  0.62990000  1.0 -0.0052428093
C  C471  1  0.75040000  0.29730000  0.12990000  1.0 -0.0048103141
C  C472  1  0.24960000  0.70270000  0.12990000  1.0 -0.0048103141
C  C473  1  0.19940000  0.77680000  0.60660000  1.0 -0.1264889695
C  C474  1  0.80060000  0.22320000  0.60660000  1.0 -0.1264889695
C  C475  1  0.27680000  0.30060000  0.10660000  1.0 -0.1264889695
C  C476  1  0.72320000  0.69940000  0.10660000  1.0 -0.1264889695
C  C477  1  0.80060000  0.77680000  0.60660000  1.0 -0.1264889695
C  C478  1  0.19940000  0.22320000  0.60660000  1.0 -0.1264889695
C  C479  1  0.72320000  0.30060000  0.10660000  1.0 -0.1264889695
C  C480  1  0.27680000  0.69940000  0.10660000  1.0 -0.1264889695
C  C481  1  0.17420000  0.77780000  0.58280000  1.0 -0.1525837893
C  C482  1  0.82580000  0.22220000  0.58280000  1.0 -0.1431630137
C  C483  1  0.27780000  0.32580000  0.08280000  1.0 -0.1525837893
C  C484  1  0.72220000  0.67420000  0.08280000  1.0 -0.1431630137
C  C485  1  0.82580000  0.77780000  0.58280000  1.0 -0.1431630137
C  C486  1  0.17420000  0.22220000  0.58280000  1.0 -0.1525837893
C  C487  1  0.72220000  0.32580000  0.08280000  1.0 -0.1431630137
C  C488  1  0.27780000  0.67420000  0.08280000  1.0 -0.1525837893
C  C489  1  0.15290000  0.75170000  0.58440000  1.0 0.0599732172
C  C490  1  0.84710000  0.24830000  0.58440000  1.0 0.0599732172
C  C491  1  0.25170000  0.34710000  0.08440000  1.0 0.0599732172
C  C492  1  0.74830000  0.65290000  0.08440000  1.0 0.0599732172
C  C493  1  0.84710000  0.75170000  0.58440000  1.0 0.0599732172
C  C494  1  0.15290000  0.24830000  0.58440000  1.0 0.0599732172
C  C495  1  0.74830000  0.34710000  0.08440000  1.0 0.0599732172
C  C496  1  0.25170000  0.65290000  0.08440000  1.0 0.0599732172
C  C497  1  0.15510000  0.72550000  0.60830000  1.0 -0.1581336724
C  C498  1  0.84490000  0.27450000  0.60830000  1.0 -0.1581336724
C  C499  1  0.22550000  0.34490000  0.10830000  1.0 -0.1581336724
C  C500  1  0.77450000  0.65510000  0.10830000  1.0 -0.1581336724
C  C501  1  0.84490000  0.72550000  0.60830000  1.0 -0.1581336724
C  C502  1  0.15510000  0.27450000  0.60830000  1.0 -0.1581336724
C  C503  1  0.77450000  0.34490000  0.10830000  1.0 -0.1581336724
C  C504  1  0.22550000  0.65510000  0.10830000  1.0 -0.1581336724
C  C505  1  0.18110000  0.72470000  0.62960000  1.0 -0.100999023
C  C506  1  0.81890000  0.27530000  0.62960000  1.0 -0.100999023
C  C507  1  0.22470000  0.31890000  0.12960000  1.0 -0.100999023
C  C508  1  0.77530000  0.68110000  0.12960000  1.0 -0.100999023
C  C509  1  0.81890000  0.72470000  0.62960000  1.0 -0.100999023
C  C510  1  0.18110000  0.27530000  0.62960000  1.0 -0.100999023
C  C511  1  0.77530000  0.31890000  0.12960000  1.0 -0.100999023
C  C512  1  0.22470000  0.68110000  0.12960000  1.0 -0.100999023
C  C513  1  0.12500000  0.75140000  0.55720000  1.0 0.0688942244
C  C514  1  0.87500000  0.24860000  0.55720000  1.0 0.0688942244
C  C515  1  0.25140000  0.37500000  0.05720000  1.0 0.0688942244
C  C516  1  0.74860000  0.62500000  0.05720000  1.0 0.0688942244
C  C517  1  0.87500000  0.75140000  0.55720000  1.0 0.0688942244
C  C518  1  0.12500000  0.24860000  0.55720000  1.0 0.0688942244
C  C519  1  0.74860000  0.37500000  0.05720000  1.0 0.0688942244
C  C520  1  0.25140000  0.62500000  0.05720000  1.0 0.0688942244
C  C521  1  0.11260000  0.78200000  0.54790000  1.0 -0.1431630137
C  C522  1  0.88740000  0.21800000  0.54790000  1.0 -0.1431630137
C  C523  1  0.28200000  0.38740000  0.04790000  1.0 -0.1431630137
C  C524  1  0.71800000  0.61260000  0.04790000  1.0 -0.1431630137
C  C525  1  0.88740000  0.78200000  0.54790000  1.0 -0.1431630137
C  C526  1  0.11260000  0.21800000  0.54790000  1.0 -0.1431630137
C  C527  1  0.71800000  0.38740000  0.04790000  1.0 -0.1431630137
C  C528  1  0.28200000  0.61260000  0.04790000  1.0 -0.1431630137
C  C529  1  0.08780000  0.78480000  0.52330000  1.0 -0.1264889695
C  C530  1  0.91220000  0.21520000  0.52330000  1.0 -0.1264889695
C  C531  1  0.28480000  0.41220000  0.02330000  1.0 -0.1264889695
C  C532  1  0.71520000  0.58780000  0.02330000  1.0 -0.1264889695
C  C533  1  0.91220000  0.78480000  0.52330000  1.0 -0.1264889695
C  C534  1  0.08780000  0.21520000  0.52330000  1.0 -0.1264889695
C  C535  1  0.71520000  0.41220000  0.02330000  1.0 -0.1264889695
C  C536  1  0.28480000  0.58780000  0.02330000  1.0 -0.1264889695
C  C537  1  0.07380000  0.75600000  0.50790000  1.0 0.0166417258
C  C538  1  0.92620000  0.24400000  0.50790000  1.0 0.0166417258
C  C539  1  0.25600000  0.42620000  0.00790000  1.0 0.0166417258
C  C540  1  0.74400000  0.57380000  0.00790000  1.0 0.0166417258
C  C541  1  0.92620000  0.75600000  0.50790000  1.0 0.0166417258
C  C542  1  0.07380000  0.24400000  0.50790000  1.0 0.0166417258
C  C543  1  0.74400000  0.42620000  0.00790000  1.0 0.0166417258
C  C544  1  0.25600000  0.57380000  0.00790000  1.0 0.0166417258
C  C545  1  0.08570000  0.72330000  0.51750000  1.0 -0.1084854369
C  C546  1  0.91430000  0.27670000  0.51750000  1.0 -0.1084854369
C  C547  1  0.22330000  0.41430000  0.01750000  1.0 -0.1084854369
C  C548  1  0.77670000  0.58570000  0.01750000  1.0 -0.1084854369
C  C549  1  0.91430000  0.72330000  0.51750000  1.0 -0.1084854369
C  C550  1  0.08570000  0.27670000  0.51750000  1.0 -0.1084854369
C  C551  1  0.77670000  0.41430000  0.01750000  1.0 -0.1084854369
C  C552  1  0.22330000  0.58570000  0.01750000  1.0 -0.1084854369
C  C553  1  0.11140000  0.72210000  0.54220000  1.0 -0.1581336724
C  C554  1  0.88860000  0.27790000  0.54220000  1.0 -0.1525837893
C  C555  1  0.22210000  0.38860000  0.04220000  1.0 -0.1525837893
C  C556  1  0.77790000  0.61140000  0.04220000  1.0 -0.1525837893
C  C557  1  0.88860000  0.72210000  0.54220000  1.0 -0.1525837893
C  C558  1  0.11140000  0.27790000  0.54220000  1.0 -0.1525837893
C  C559  1  0.77790000  0.38860000  0.04220000  1.0 -0.1525837893
C  C560  1  0.22210000  0.61140000  0.04220000  1.0 -0.1525837893
C  C561  1  0.04320000  0.75540000  0.47840000  1.0 0.5696565158
C  C562  1  0.95680000  0.24460000  0.47840000  1.0 0.5696565158
C  C563  1  0.25540000  0.45680000  0.97840000  1.0 0.5696565158
C  C564  1  0.74460000  0.54320000  0.97840000  1.0 0.5696565158
C  C565  1  0.95680000  0.75540000  0.47840000  1.0 0.5696565158
C  C566  1  0.04320000  0.24460000  0.47840000  1.0 0.5696565158
C  C567  1  0.74460000  0.45680000  0.97840000  1.0 0.5696565158
C  C568  1  0.25540000  0.54320000  0.97840000  1.0 0.5696565158
C  C569  1  0.25750000  0.70170000  0.73070000  1.0 0.0030602521
C  C570  1  0.74250000  0.29830000  0.73070000  1.0 0.0030602521
C  C571  1  0.20170000  0.24250000  0.23070000  1.0 0.0030602521
C  C572  1  0.79830000  0.75750000  0.23070000  1.0 0.0030602521
C  C573  1  0.74250000  0.70170000  0.73070000  1.0 0.0030602521
C  C574  1  0.25750000  0.29830000  0.73070000  1.0 0.0030602521
C  C575  1  0.79830000  0.24250000  0.23070000  1.0 0.0030602521
C  C576  1  0.20170000  0.75750000  0.23070000  1.0 0.0030602521
C  C577  1  0.23330000  0.67540000  0.72940000  1.0 -0.1084854369
C  C578  1  0.76670000  0.32460000  0.72940000  1.0 -0.1084854369
C  C579  1  0.17540000  0.26670000  0.22940000  1.0 -0.1084854369
C  C580  1  0.82460000  0.73330000  0.22940000  1.0 -0.1084854369
C  C581  1  0.76670000  0.67540000  0.72940000  1.0 -0.1084854369
C  C582  1  0.23330000  0.32460000  0.72940000  1.0 -0.1084854369
C  C583  1  0.82460000  0.26670000  0.22940000  1.0 -0.1084854369
C  C584  1  0.17540000  0.73330000  0.22940000  1.0 -0.1084854369
C  C585  1  0.23260000  0.64900000  0.75430000  1.0 -0.1801223827
C  C586  1  0.76740000  0.35100000  0.75430000  1.0 -0.1801223827
C  C587  1  0.14900000  0.26740000  0.25430000  1.0 -0.1801223827
C  C588  1  0.85100000  0.73260000  0.25430000  1.0 -0.1801223827
C  C589  1  0.76740000  0.64900000  0.75430000  1.0 -0.1801223827
C  C590  1  0.23260000  0.35100000  0.75430000  1.0 -0.1801223827
C  C591  1  0.85100000  0.26740000  0.25430000  1.0 -0.1801223827
C  C592  1  0.14900000  0.73260000  0.25430000  1.0 -0.1801223827
C  C593  1  0.25750000  0.65060000  0.78020000  1.0 0.0871744674
C  C594  1  0.74250000  0.34940000  0.78020000  1.0 0.0871744674
C  C595  1  0.15060000  0.24250000  0.28020000  1.0 0.0871744674
C  C596  1  0.84940000  0.75750000  0.28020000  1.0 0.0871744674
C  C597  1  0.74250000  0.65060000  0.78020000  1.0 0.0871744674
C  C598  1  0.25750000  0.34940000  0.78020000  1.0 0.0871744674
C  C599  1  0.84940000  0.24250000  0.28020000  1.0 0.0871744674
C  C600  1  0.15060000  0.75750000  0.28020000  1.0 0.0871744674
C  C601  1  0.28180000  0.67670000  0.78040000  1.0 -0.1581336724
C  C602  1  0.71820000  0.32330000  0.78040000  1.0 -0.1581336724
C  C603  1  0.17670000  0.21820000  0.28040000  1.0 -0.1581336724
C  C604  1  0.82330000  0.78180000  0.28040000  1.0 -0.1581336724
C  C605  1  0.71820000  0.67670000  0.78040000  1.0 -0.1581336724
C  C606  1  0.28180000  0.32330000  0.78040000  1.0 -0.1581336724
C  C607  1  0.82330000  0.21820000  0.28040000  1.0 -0.1581336724
C  C608  1  0.17670000  0.78180000  0.28040000  1.0 -0.1581336724
C  C609  1  0.28220000  0.70250000  0.75650000  1.0 -0.100999023
C  C610  1  0.71780000  0.29750000  0.75650000  1.0 -0.100999023
C  C611  1  0.20250000  0.21780000  0.25650000  1.0 -0.100999023
C  C612  1  0.79750000  0.78220000  0.25650000  1.0 -0.100999023
C  C613  1  0.71780000  0.70250000  0.75650000  1.0 -0.100999023
C  C614  1  0.28220000  0.29750000  0.75650000  1.0 -0.100999023
C  C615  1  0.79750000  0.21780000  0.25650000  1.0 -0.100999023
C  C616  1  0.20250000  0.78220000  0.25650000  1.0 -0.100999023
C  C617  1  0.26020000  0.62230000  0.80850000  1.0 0.0798832622
C  C618  1  0.73980000  0.37770000  0.80850000  1.0 0.0798832622
C  C619  1  0.12230000  0.23980000  0.30850000  1.0 0.0798832622
C  C620  1  0.87770000  0.76020000  0.30850000  1.0 0.0798832622
C  C621  1  0.73980000  0.62230000  0.80850000  1.0 0.0798832622
C  C622  1  0.26020000  0.37770000  0.80850000  1.0 0.0798832622
C  C623  1  0.87770000  0.23980000  0.30850000  1.0 0.0798832622
C  C624  1  0.12230000  0.76020000  0.30850000  1.0 0.0798832622
C  C625  1  0.22900000  0.61010000  0.81890000  1.0 -0.1801223827
C  C626  1  0.77100000  0.38990000  0.81890000  1.0 -0.1801223827
C  C627  1  0.11010000  0.27100000  0.31890000  1.0 -0.1801223827
C  C628  1  0.88990000  0.72900000  0.31890000  1.0 -0.1801223827
C  C629  1  0.77100000  0.61010000  0.81890000  1.0 -0.1801223827
C  C630  1  0.22900000  0.38990000  0.81890000  1.0 -0.1801223827
C  C631  1  0.88990000  0.27100000  0.31890000  1.0 -0.1801223827
C  C632  1  0.11010000  0.72900000  0.31890000  1.0 -0.1801223827
C  C633  1  0.22850000  0.58390000  0.84360000  1.0 -0.0660831335
C  C634  1  0.77150000  0.41610000  0.84360000  1.0 -0.0660831335
C  C635  1  0.08390000  0.27150000  0.34360000  1.0 -0.0660831335
C  C636  1  0.91610000  0.72850000  0.34360000  1.0 -0.0660831335
C  C637  1  0.77150000  0.58390000  0.84360000  1.0 -0.0660831335
C  C638  1  0.22850000  0.41610000  0.84360000  1.0 -0.0660831335
C  C639  1  0.91610000  0.27150000  0.34360000  1.0 -0.0660831335
C  C640  1  0.08390000  0.72850000  0.34360000  1.0 -0.0660831335
C  C641  1  0.25700000  0.57110000  0.85950000  1.0 -0.100999023
C  C642  1  0.74300000  0.42890000  0.85950000  1.0 -0.100999023
C  C643  1  0.07110000  0.24300000  0.35950000  1.0 -0.100999023
C  C644  1  0.92890000  0.75700000  0.35950000  1.0 -0.100999023
C  C645  1  0.74300000  0.57110000  0.85950000  1.0 -0.100999023
C  C646  1  0.25700000  0.42890000  0.85950000  1.0 -0.100999023
C  C647  1  0.92890000  0.24300000  0.35950000  1.0 -0.100999023
C  C648  1  0.07110000  0.75700000  0.35950000  1.0 -0.100999023
C  C649  1  0.28640000  0.58450000  0.84790000  1.0 -0.0660831335
C  C650  1  0.71360000  0.41550000  0.84790000  1.0 -0.0660831335
C  C651  1  0.08450000  0.21360000  0.34790000  1.0 -0.0660831335
C  C652  1  0.91550000  0.78640000  0.34790000  1.0 -0.0660831335
C  C653  1  0.71360000  0.58450000  0.84790000  1.0 -0.0660831335
C  C654  1  0.28640000  0.41550000  0.84790000  1.0 -0.0660831335
C  C655  1  0.91550000  0.21360000  0.34790000  1.0 -0.0660831335
C  C656  1  0.08450000  0.78640000  0.34790000  1.0 -0.0660831335
C  C657  1  0.29120000  0.61060000  0.82290000  1.0 -0.1801223827
C  C658  1  0.70880000  0.38940000  0.82290000  1.0 -0.1801223827
C  C659  1  0.11060000  0.20880000  0.32290000  1.0 -0.1801223827
C  C660  1  0.88940000  0.79120000  0.32290000  1.0 -0.1801223827
C  C661  1  0.70880000  0.61060000  0.82290000  1.0 -0.1801223827
C  C662  1  0.29120000  0.38940000  0.82290000  1.0 -0.1801223827
C  C663  1  0.88940000  0.20880000  0.32290000  1.0 -0.1801223827
C  C664  1  0.11060000  0.79120000  0.32290000  1.0 -0.1801223827
C  C665  1  0.25730000  0.54640000  0.88630000  1.0 0.5696565158
C  C666  1  0.74270000  0.45360000  0.88630000  1.0 0.5696565158
C  C667  1  0.04640000  0.24270000  0.38630000  1.0 0.5696565158
C  C668  1  0.95360000  0.75730000  0.38630000  1.0 0.5696565158
C  C669  1  0.74270000  0.54640000  0.88630000  1.0 0.5696565158
C  C670  1  0.25730000  0.45360000  0.88630000  1.0 0.5696565158
C  C671  1  0.95360000  0.24270000  0.38630000  1.0 0.5696565158
C  C672  1  0.04640000  0.75730000  0.38630000  1.0 0.5696565158
N  N1  1  0.78280000  0.75060000  0.79790000  1.0 -0.4105625678
N  N2  1  0.21720000  0.24940000  0.79790000  1.0 -0.4105625678
N  N3  1  0.74940000  0.28280000  0.29790000  1.0 -0.4105625678
N  N4  1  0.25060000  0.71720000  0.29790000  1.0 -0.4105625678
N  N5  1  0.21720000  0.75060000  0.79790000  1.0 -0.4105625678
N  N6  1  0.78280000  0.24940000  0.79790000  1.0 -0.4105625678
N  N7  1  0.25060000  0.28280000  0.29790000  1.0 -0.4105625678
N  N8  1  0.74940000  0.71720000  0.29790000  1.0 -0.4105625678
N  N9  1  0.75480000  0.72710000  0.84730000  1.0 -0.4176279347
N  N10  1  0.24520000  0.27290000  0.84730000  1.0 -0.4176279347
N  N11  1  0.77290000  0.25480000  0.34730000  1.0 -0.4176279347
N  N12  1  0.22710000  0.74520000  0.34730000  1.0 -0.4176279347
N  N13  1  0.24520000  0.72710000  0.84730000  1.0 -0.4176279347
N  N14  1  0.75480000  0.27290000  0.84730000  1.0 -0.4176279347
N  N15  1  0.22710000  0.25480000  0.34730000  1.0 -0.4176279347
N  N16  1  0.77290000  0.74520000  0.34730000  1.0 -0.4176279347
N  N17  1  0.73100000  0.77410000  0.81940000  1.0 -0.4176279347
N  N18  1  0.26900000  0.22590000  0.81940000  1.0 -0.4176279347
N  N19  1  0.72590000  0.23100000  0.31940000  1.0 -0.4176279347
N  N20  1  0.27410000  0.76900000  0.31940000  1.0 -0.4176279347
N  N21  1  0.26900000  0.77410000  0.81940000  1.0 -0.4176279347
N  N22  1  0.73100000  0.22590000  0.81940000  1.0 -0.4176279347
N  N23  1  0.27410000  0.23100000  0.31940000  1.0 -0.4176279347
N  N24  1  0.72590000  0.76900000  0.31940000  1.0 -0.4176279347
N  N25  1  0.28280000  0.74940000  0.70210000  1.0 -0.4105625678
N  N26  1  0.71720000  0.25060000  0.70210000  1.0 -0.4105625678
N  N27  1  0.24940000  0.21720000  0.20210000  1.0 -0.4105625678
N  N28  1  0.75060000  0.78280000  0.20210000  1.0 -0.4105625678
N  N29  1  0.71720000  0.74940000  0.70210000  1.0 -0.4105625678
N  N30  1  0.28280000  0.25060000  0.70210000  1.0 -0.4105625678
N  N31  1  0.75060000  0.21720000  0.20210000  1.0 -0.4105625678
N  N32  1  0.24940000  0.78280000  0.20210000  1.0 -0.4105625678
N  N33  1  0.25480000  0.77290000  0.65270000  1.0 -0.4176279347
N  N34  1  0.74520000  0.22710000  0.65270000  1.0 -0.4176279347
N  N35  1  0.27290000  0.24520000  0.15270000  1.0 -0.4176279347
N  N36  1  0.72710000  0.75480000  0.15270000  1.0 -0.4176279347
N  N37  1  0.74520000  0.77290000  0.65270000  1.0 -0.4176279347
N  N38  1  0.25480000  0.22710000  0.65270000  1.0 -0.4176279347
N  N39  1  0.72710000  0.24520000  0.15270000  1.0 -0.4176279347
N  N40  1  0.27290000  0.75480000  0.15270000  1.0 -0.4176279347
N  N41  1  0.23100000  0.72590000  0.68060000  1.0 -0.4176279347
N  N42  1  0.76900000  0.27410000  0.68060000  1.0 -0.4176279347
N  N43  1  0.22590000  0.26900000  0.18060000  1.0 -0.4176279347
N  N44  1  0.77410000  0.73100000  0.18060000  1.0 -0.4176279347
N  N45  1  0.76900000  0.72590000  0.68060000  1.0 -0.4176279347
N  N46  1  0.23100000  0.27410000  0.68060000  1.0 -0.4176279347
N  N47  1  0.77410000  0.26900000  0.18060000  1.0 -0.4176279347
N  N48  1  0.22590000  0.73100000  0.18060000  1.0 -0.4176279347
O  O1  1  0.96510000  0.53420000  0.80177000  1.0 -0.4534424081
O  O2  1  0.03490000  0.46580000  0.80177000  1.0 -0.4534424081
O  O3  1  0.96580000  0.46510000  0.30177000  1.0 -0.4534424081
O  O4  1  0.03420000  0.53490000  0.30177000  1.0 -0.4534424081
O  O5  1  0.03490000  0.53420000  0.80177000  1.0 -0.4534424081
O  O6  1  0.96510000  0.46580000  0.80177000  1.0 -0.4534424081
O  O7  1  0.03420000  0.46510000  0.30177000  1.0 -0.4534424081
O  O8  1  0.96580000  0.53490000  0.30177000  1.0 -0.4534424081
O  O9  1  0.96529000  0.53479000  0.85907000  1.0 -0.5374249112
O  O10  1  0.03471000  0.46521000  0.85907000  1.0 -0.5374249112
O  O11  1  0.96521000  0.46529000  0.35907000  1.0 -0.5374249112
O  O12  1  0.03479000  0.53471000  0.35907000  1.0 -0.5374249112
O  O13  1  0.03471000  0.53479000  0.85907000  1.0 -0.5374249112
O  O14  1  0.96529000  0.46521000  0.85907000  1.0 -0.5374249112
O  O15  1  0.03479000  0.46529000  0.35907000  1.0 -0.5374249112
O  O16  1  0.96521000  0.53471000  0.35907000  1.0 -0.5374249112
O  O17  1  0.53404000  0.71647000  0.03049000  1.0 -0.486699792
O  O18  1  0.46596000  0.28353000  0.03049000  1.0 -0.486699792
O  O19  1  0.78353000  0.03404000  0.53049000  1.0 -0.486699792
O  O20  1  0.21647000  0.96596000  0.53049000  1.0 -0.486699792
O  O21  1  0.46596000  0.71647000  0.03049000  1.0 -0.486699792
O  O22  1  0.53404000  0.28353000  0.03049000  1.0 -0.486699792
O  O23  1  0.21647000  0.03404000  0.53049000  1.0 -0.486699792
O  O24  1  0.78353000  0.96596000  0.53049000  1.0 -0.486699792
O  O25  1  0.53445000  0.77411000  0.03197000  1.0 -0.5374249112
O  O26  1  0.46555000  0.22589000  0.03197000  1.0 -0.5374249112
O  O27  1  0.72589000  0.03445000  0.53197000  1.0 -0.5374249112
O  O28  1  0.27411000  0.96555000  0.53197000  1.0 -0.5374249112
O  O29  1  0.46555000  0.77411000  0.03197000  1.0 -0.5374249112
O  O30  1  0.53445000  0.22589000  0.03197000  1.0 -0.5374249112
O  O31  1  0.27411000  0.03445000  0.53197000  1.0 -0.5374249112
O  O32  1  0.72589000  0.96555000  0.53197000  1.0 -0.5374249112
O  O33  1  0.73085000  0.96561000  0.60467000  1.0 -0.4604826591
O  O34  1  0.26915000  0.03439000  0.60467000  1.0 -0.4604826591
O  O35  1  0.53439000  0.23085000  0.10467000  1.0 -0.4604826591
O  O36  1  0.46561000  0.76915000  0.10467000  1.0 -0.4604826591
O  O37  1  0.26915000  0.96561000  0.60467000  1.0 -0.4604826591
O  O38  1  0.73085000  0.03439000  0.60467000  1.0 -0.4604826591
O  O39  1  0.46561000  0.23085000  0.10467000  1.0 -0.4604826591
O  O40  1  0.53439000  0.76915000  0.10467000  1.0 -0.4604826591
O  O41  1  0.78486000  0.96550000  0.60220000  1.0 -0.5074220303
O  O42  1  0.21514000  0.03450000  0.60220000  1.0 -0.5074220303
O  O43  1  0.53450000  0.28486000  0.10220000  1.0 -0.5074220303
O  O44  1  0.46550000  0.71514000  0.10220000  1.0 -0.5074220303
O  O45  1  0.21514000  0.96550000  0.60220000  1.0 -0.5074220303
O  O46  1  0.78486000  0.03450000  0.60220000  1.0 -0.5074220303
O  O47  1  0.46550000  0.28486000  0.10220000  1.0 -0.5074220303
O  O48  1  0.53450000  0.71514000  0.10220000  1.0 -0.5074220303
O  O49  1  0.46510000  0.96580000  0.69823000  1.0 -0.4534424081
O  O50  1  0.53490000  0.03420000  0.69823000  1.0 -0.4534424081
O  O51  1  0.46580000  0.03490000  0.19823000  1.0 -0.4534424081
O  O52  1  0.53420000  0.96510000  0.19823000  1.0 -0.4534424081
O  O53  1  0.53490000  0.96580000  0.69823000  1.0 -0.4534424081
O  O54  1  0.46510000  0.03420000  0.69823000  1.0 -0.4534424081
O  O55  1  0.53420000  0.03490000  0.19823000  1.0 -0.4534424081
O  O56  1  0.46580000  0.96510000  0.19823000  1.0 -0.4534424081
O  O57  1  0.46529000  0.96521000  0.64093000  1.0 -0.5374249112
O  O58  1  0.53471000  0.03479000  0.64093000  1.0 -0.5374249112
O  O59  1  0.46521000  0.03471000  0.14093000  1.0 -0.5374249112
O  O60  1  0.53479000  0.96529000  0.14093000  1.0 -0.5374249112
O  O61  1  0.53471000  0.96521000  0.64093000  1.0 -0.5374249112
O  O62  1  0.46529000  0.03479000  0.64093000  1.0 -0.5374249112
O  O63  1  0.53479000  0.03471000  0.14093000  1.0 -0.5374249112
O  O64  1  0.46521000  0.96529000  0.14093000  1.0 -0.5374249112
O  O65  1  0.03404000  0.78353000  0.46951000  1.0 -0.486699792
O  O66  1  0.96596000  0.21647000  0.46951000  1.0 -0.486699792
O  O67  1  0.28353000  0.46596000  0.96951000  1.0 -0.486699792
O  O68  1  0.71647000  0.53404000  0.96951000  1.0 -0.486699792
O  O69  1  0.96596000  0.78353000  0.46951000  1.0 -0.486699792
O  O70  1  0.03404000  0.21647000  0.46951000  1.0 -0.486699792
O  O71  1  0.71647000  0.46596000  0.96951000  1.0 -0.486699792
O  O72  1  0.28353000  0.53404000  0.96951000  1.0 -0.486699792
O  O73  1  0.03445000  0.72589000  0.46803000  1.0 -0.5374249112
O  O74  1  0.96555000  0.27411000  0.46803000  1.0 -0.5374249112
O  O75  1  0.22589000  0.46555000  0.96803000  1.0 -0.5374249112
O  O76  1  0.77411000  0.53445000  0.96803000  1.0 -0.5374249112
O  O77  1  0.96555000  0.72589000  0.46803000  1.0 -0.5374249112
O  O78  1  0.03445000  0.27411000  0.46803000  1.0 -0.5374249112
O  O79  1  0.77411000  0.46555000  0.96803000  1.0 -0.5374249112
O  O80  1  0.22589000  0.53445000  0.96803000  1.0 -0.5374249112
O  O81  1  0.23085000  0.53439000  0.89533000  1.0 -0.4604826591
O  O82  1  0.76915000  0.46561000  0.89533000  1.0 -0.4604826591
O  O83  1  0.03439000  0.26915000  0.39533000  1.0 -0.4604826591
O  O84  1  0.96561000  0.73085000  0.39533000  1.0 -0.4604826591
O  O85  1  0.76915000  0.53439000  0.89533000  1.0 -0.4604826591
O  O86  1  0.23085000  0.46561000  0.89533000  1.0 -0.4604826591
O  O87  1  0.96561000  0.26915000  0.39533000  1.0 -0.4604826591
O  O88  1  0.03439000  0.73085000  0.39533000  1.0 -0.4604826591
O  O89  1  0.28486000  0.53450000  0.89780000  1.0 -0.5074220303
O  O90  1  0.71514000  0.46550000  0.89780000  1.0 -0.5074220303
O  O91  1  0.03450000  0.21514000  0.39780000  1.0 -0.5074220303
O  O92  1  0.96550000  0.78486000  0.39780000  1.0 -0.5074220303
O  O93  1  0.71514000  0.53450000  0.89780000  1.0 -0.5074220303
O  O94  1  0.28486000  0.46550000  0.89780000  1.0 -0.5074220303
O  O95  1  0.96550000  0.21514000  0.39780000  1.0 -0.5074220303
O  O96  1  0.03450000  0.78486000  0.39780000  1.0 -0.5074220303
