# DDEC6 charges by PACMAN v1.1 (https://github.com/mtap-research/PACMAN-charge/)
data_BECKOM_ASR_pacman
_symmetry_space_group_name_H-M   'P 1'
_cell_length_a   23.14260000
_cell_length_b   23.14260000
_cell_length_c   23.14260000
_cell_angle_alpha   109.47100000
_cell_angle_beta   109.47100000
_cell_angle_gamma   109.47100000
_symmetry_Int_Tables_number   1
_chemical_formula_structural   Cd2H30C30(NO2)3
_chemical_formula_sum   'Cd16 H240 C240 N24 O48'
_cell_volume   9541.53184007
_cell_formula_units_Z   8
loop_
 _symmetry_equiv_pos_site_id
 _symmetry_equiv_pos_as_xyz
  1  'x, y, z'
loop_
 _atom_site_type_symbol
 _atom_site_label
 _atom_site_symmetry_multiplicity
 _atom_site_fract_x
 _atom_site_fract_y
 _atom_site_fract_z
 _atom_site_occupancy
 _atom_site_charge
Cd  Cd1  1  0.03868000  0.03868000  0.03868000  1.0 0.8091761927
Cd  Cd2  1  0.50000000  0.00000000  0.46132000  1.0 0.8091761927
Cd  Cd3  1  0.46132000  0.50000000  0.00000000  1.0 0.8091761927
Cd  Cd4  1  0.00000000  0.46132000  0.50000000  1.0 0.8091761927
Cd  Cd5  1  0.53868000  0.53868000  0.53868000  1.0 0.8091761927
Cd  Cd6  1  0.50000000  0.00000000  0.96132000  1.0 0.8091761927
Cd  Cd7  1  0.00000000  0.96132000  0.50000000  1.0 0.8091761927
Cd  Cd8  1  0.96132000  0.50000000  0.00000000  1.0 0.8091761927
Cd  Cd9  1  0.50000000  0.00000000  0.79756000  1.0 1.0279269676
Cd  Cd10  1  0.70244000  0.70244000  0.70244000  1.0 1.0350078801
Cd  Cd11  1  0.00000000  0.79756000  0.50000000  1.0 1.0279269676
Cd  Cd12  1  0.79756000  0.50000000  0.00000000  1.0 1.0247250855
Cd  Cd13  1  0.50000000  0.00000000  0.29756000  1.0 1.0247250855
Cd  Cd14  1  0.20244000  0.20244000  0.20244000  1.0 1.0247250855
Cd  Cd15  1  0.29756000  0.50000000  0.00000000  1.0 1.0279269676
Cd  Cd16  1  0.00000000  0.29756000  0.50000000  1.0 1.0279269676
H  H1  1  0.83820000  0.89630000  0.92870000  1.0 0.101758163
H  H2  1  0.85180000  0.93720000  0.00680000  1.0 0.101758163
H  H3  1  0.93300000  0.91420000  0.05340000  1.0 0.101758163
H  H4  1  0.88830000  0.84710000  0.97600000  1.0 0.101758163
H  H5  1  0.93770000  0.09970000  0.04340000  1.0 0.1109015376
H  H6  1  0.91850000  0.05050000  0.07640000  1.0 0.1180065841
H  H7  1  0.84230000  0.09710000  0.95200000  1.0 0.1180065841
H  H8  1  0.72760000  0.08010000  0.90710000  1.0 0.1180065841
H  H9  1  0.68330000  0.96790000  0.00380000  1.0 0.1109015376
H  H10  1  0.79800000  0.98490000  0.04870000  1.0 0.1109015376
H  H11  1  0.46760000  0.90950000  0.57130000  1.0 0.101758163
H  H12  1  0.43040000  0.84500000  0.49320000  1.0 0.101758163
H  H13  1  0.36080000  0.87960000  0.44660000  1.0 0.101758163
H  H14  1  0.37110000  0.91230000  0.52400000  1.0 0.101758163
H  H15  1  0.55630000  0.89430000  0.45660000  1.0 0.1109015376
H  H16  1  0.47410000  0.84210000  0.42360000  1.0 0.1180065841
H  H17  1  0.64510000  0.89030000  0.54800000  1.0 0.1180065841
H  H18  1  0.67300000  0.82050000  0.59290000  1.0 0.1180065841
H  H19  1  0.46410000  0.67950000  0.49620000  1.0 0.1109015376
H  H20  1  0.43620000  0.74930000  0.45130000  1.0 0.1109015376
H  H21  1  0.66180000  0.59050000  0.05810000  1.0 0.101758163
H  H22  1  0.64820000  0.65500000  0.08540000  1.0 0.101758163
H  H23  1  0.56700000  0.62040000  0.98120000  1.0 0.101758163
H  H24  1  0.61170000  0.58770000  0.95880000  1.0 0.101758163
H  H25  1  0.56230000  0.60570000  0.16200000  1.0 0.1109015376
H  H26  1  0.58150000  0.65790000  0.13200000  1.0 0.1180065841
H  H27  1  0.65770000  0.60970000  0.25480000  1.0 0.1180065841
H  H28  1  0.77240000  0.67950000  0.35250000  1.0 0.1180065841
H  H29  1  0.81670000  0.82050000  0.28460000  1.0 0.1109015376
H  H30  1  0.70200000  0.75070000  0.18690000  1.0 0.1109015376
H  H31  1  0.03240000  0.60370000  0.44190000  1.0 0.101758163
H  H32  1  0.06960000  0.56280000  0.41460000  1.0 0.101758163
H  H33  1  0.13920000  0.58580000  0.51880000  1.0 0.101758163
H  H34  1  0.12890000  0.65290000  0.54120000  1.0 0.101758163
H  H35  1  0.94370000  0.40030000  0.33800000  1.0 0.1109015376
H  H36  1  0.02590000  0.44950000  0.36800000  1.0 0.1180065841
H  H37  1  0.85490000  0.40290000  0.24520000  1.0 0.1180065841
H  H38  1  0.82700000  0.41990000  0.14750000  1.0 0.1180065841
H  H39  1  0.03590000  0.53210000  0.21540000  1.0 0.1109015376
H  H40  1  0.06380000  0.51510000  0.31310000  1.0 0.1109015376
H  H41  1  0.60370000  0.44190000  0.03240000  1.0 0.101758163
H  H42  1  0.56280000  0.41460000  0.06960000  1.0 0.101758163
H  H43  1  0.58580000  0.51880000  0.13920000  1.0 0.101758163
H  H44  1  0.65290000  0.54120000  0.12890000  1.0 0.101758163
H  H45  1  0.40030000  0.33800000  0.94370000  1.0 0.1109015376
H  H46  1  0.44950000  0.36800000  0.02590000  1.0 0.1180065841
H  H47  1  0.40290000  0.24520000  0.85490000  1.0 0.1180065841
H  H48  1  0.41990000  0.14750000  0.82700000  1.0 0.1180065841
H  H49  1  0.53210000  0.21540000  0.03590000  1.0 0.1109015376
H  H50  1  0.51510000  0.31310000  0.06380000  1.0 0.1109015376
H  H51  1  0.59050000  0.05810000  0.66180000  1.0 0.101758163
H  H52  1  0.65500000  0.08540000  0.64820000  1.0 0.101758163
H  H53  1  0.62040000  0.98120000  0.56700000  1.0 0.101758163
H  H54  1  0.58770000  0.95880000  0.61170000  1.0 0.101758163
H  H55  1  0.60570000  0.16200000  0.56230000  1.0 0.1109015376
H  H56  1  0.65790000  0.13200000  0.58150000  1.0 0.1180065841
H  H57  1  0.60970000  0.25480000  0.65770000  1.0 0.1180065841
H  H58  1  0.67950000  0.35250000  0.77240000  1.0 0.1180065841
H  H59  1  0.82050000  0.28460000  0.81670000  1.0 0.1109015376
H  H60  1  0.75070000  0.18690000  0.70200000  1.0 0.1109015376
H  H61  1  0.90950000  0.57130000  0.46760000  1.0 0.101758163
H  H62  1  0.84500000  0.49320000  0.43040000  1.0 0.101758163
H  H63  1  0.87960000  0.44660000  0.36080000  1.0 0.101758163
H  H64  1  0.91230000  0.52400000  0.37110000  1.0 0.101758163
H  H65  1  0.89430000  0.45660000  0.55630000  1.0 0.1109015376
H  H66  1  0.84210000  0.42360000  0.47410000  1.0 0.1180065841
H  H67  1  0.89030000  0.54800000  0.64510000  1.0 0.1180065841
H  H68  1  0.82050000  0.59290000  0.67300000  1.0 0.1180065841
H  H69  1  0.67950000  0.49620000  0.46410000  1.0 0.1109015376
H  H70  1  0.74930000  0.45130000  0.43620000  1.0 0.1109015376
H  H71  1  0.89630000  0.92870000  0.83820000  1.0 0.101758163
H  H72  1  0.93720000  0.00680000  0.85180000  1.0 0.101758163
H  H73  1  0.91420000  0.05340000  0.93300000  1.0 0.101758163
H  H74  1  0.84710000  0.97600000  0.88830000  1.0 0.101758163
H  H75  1  0.09970000  0.04340000  0.93770000  1.0 0.1109015376
H  H76  1  0.05050000  0.07640000  0.91850000  1.0 0.1180065841
H  H77  1  0.09710000  0.95200000  0.84230000  1.0 0.1180065841
H  H78  1  0.08010000  0.90710000  0.72760000  1.0 0.1180065841
H  H79  1  0.96790000  0.00380000  0.68330000  1.0 0.1109015376
H  H80  1  0.98490000  0.04870000  0.79800000  1.0 0.1109015376
H  H81  1  0.05810000  0.66180000  0.59050000  1.0 0.101758163
H  H82  1  0.08540000  0.64820000  0.65500000  1.0 0.101758163
H  H83  1  0.98120000  0.56700000  0.62040000  1.0 0.101758163
H  H84  1  0.95880000  0.61170000  0.58770000  1.0 0.101758163
H  H85  1  0.16200000  0.56230000  0.60570000  1.0 0.1109015376
H  H86  1  0.13200000  0.58150000  0.65790000  1.0 0.1180065841
H  H87  1  0.25480000  0.65770000  0.60970000  1.0 0.1180065841
H  H88  1  0.35250000  0.77240000  0.67950000  1.0 0.1180065841
H  H89  1  0.28460000  0.81670000  0.82050000  1.0 0.1109015376
H  H90  1  0.18690000  0.70200000  0.75070000  1.0 0.1109015376
H  H91  1  0.44190000  0.03240000  0.60370000  1.0 0.101758163
H  H92  1  0.41460000  0.06960000  0.56280000  1.0 0.101758163
H  H93  1  0.51880000  0.13920000  0.58580000  1.0 0.101758163
H  H94  1  0.54120000  0.12890000  0.65290000  1.0 0.101758163
H  H95  1  0.33800000  0.94370000  0.40030000  1.0 0.1109015376
H  H96  1  0.36800000  0.02590000  0.44950000  1.0 0.1180065841
H  H97  1  0.24520000  0.85490000  0.40290000  1.0 0.1180065841
H  H98  1  0.14750000  0.82700000  0.41990000  1.0 0.1180065841
H  H99  1  0.21540000  0.03590000  0.53210000  1.0 0.1109015376
H  H100  1  0.31310000  0.06380000  0.51510000  1.0 0.1109015376
H  H101  1  0.92870000  0.83820000  0.89630000  1.0 0.101758163
H  H102  1  0.00680000  0.85180000  0.93720000  1.0 0.101758163
H  H103  1  0.05340000  0.93300000  0.91420000  1.0 0.101758163
H  H104  1  0.97600000  0.88830000  0.84710000  1.0 0.101758163
H  H105  1  0.04340000  0.93770000  0.09970000  1.0 0.1109015376
H  H106  1  0.07640000  0.91850000  0.05050000  1.0 0.1180065841
H  H107  1  0.95200000  0.84230000  0.09710000  1.0 0.1180065841
H  H108  1  0.90710000  0.72760000  0.08010000  1.0 0.1180065841
H  H109  1  0.00380000  0.68330000  0.96790000  1.0 0.1109015376
H  H110  1  0.04870000  0.79800000  0.98490000  1.0 0.1109015376
H  H111  1  0.57130000  0.46760000  0.90950000  1.0 0.101758163
H  H112  1  0.49320000  0.43040000  0.84500000  1.0 0.101758163
H  H113  1  0.44660000  0.36080000  0.87960000  1.0 0.101758163
H  H114  1  0.52400000  0.37110000  0.91230000  1.0 0.101758163
H  H115  1  0.45660000  0.55630000  0.89430000  1.0 0.1109015376
H  H116  1  0.42360000  0.47410000  0.84210000  1.0 0.1180065841
H  H117  1  0.54800000  0.64510000  0.89030000  1.0 0.1180065841
H  H118  1  0.59290000  0.67300000  0.82050000  1.0 0.1180065841
H  H119  1  0.49620000  0.46410000  0.67950000  1.0 0.1109015376
H  H120  1  0.45130000  0.43620000  0.74930000  1.0 0.1109015376
H  H121  1  0.39630000  0.33820000  0.42870000  1.0 0.101758163
H  H122  1  0.43720000  0.35180000  0.50680000  1.0 0.101758163
H  H123  1  0.41420000  0.43300000  0.55340000  1.0 0.101758163
H  H124  1  0.34710000  0.38830000  0.47600000  1.0 0.101758163
H  H125  1  0.59970000  0.43770000  0.54340000  1.0 0.1109015376
H  H126  1  0.55050000  0.41850000  0.57640000  1.0 0.1180065841
H  H127  1  0.59710000  0.34230000  0.45200000  1.0 0.1180065841
H  H128  1  0.58010000  0.22760000  0.40710000  1.0 0.1180065841
H  H129  1  0.46790000  0.18330000  0.50380000  1.0 0.1109015376
H  H130  1  0.48490000  0.29800000  0.54870000  1.0 0.1109015376
H  H131  1  0.40950000  0.96760000  0.07130000  1.0 0.101758163
H  H132  1  0.34500000  0.93040000  0.99320000  1.0 0.101758163
H  H133  1  0.37960000  0.86080000  0.94660000  1.0 0.101758163
H  H134  1  0.41230000  0.87110000  0.02400000  1.0 0.101758163
H  H135  1  0.39430000  0.05630000  0.95660000  1.0 0.1109015376
H  H136  1  0.34210000  0.97410000  0.92360000  1.0 0.1180065841
H  H137  1  0.39030000  0.14510000  0.04800000  1.0 0.1180065841
H  H138  1  0.32050000  0.17300000  0.09290000  1.0 0.1180065841
H  H139  1  0.17950000  0.96410000  0.99620000  1.0 0.1109015376
H  H140  1  0.24930000  0.93620000  0.95130000  1.0 0.1109015376
H  H141  1  0.09050000  0.16180000  0.55810000  1.0 0.101758163
H  H142  1  0.15500000  0.14820000  0.58540000  1.0 0.101758163
H  H143  1  0.12040000  0.06700000  0.48120000  1.0 0.101758163
H  H144  1  0.08770000  0.11170000  0.45880000  1.0 0.101758163
H  H145  1  0.10570000  0.06230000  0.66200000  1.0 0.1109015376
H  H146  1  0.15790000  0.08150000  0.63200000  1.0 0.1180065841
H  H147  1  0.10970000  0.15770000  0.75480000  1.0 0.1180065841
H  H148  1  0.17950000  0.27240000  0.85250000  1.0 0.1180065841
H  H149  1  0.32050000  0.31670000  0.78460000  1.0 0.1109015376
H  H150  1  0.25070000  0.20200000  0.68690000  1.0 0.1109015376
H  H151  1  0.10370000  0.53240000  0.94190000  1.0 0.101758163
H  H152  1  0.06280000  0.56960000  0.91460000  1.0 0.101758163
H  H153  1  0.08580000  0.63920000  0.01880000  1.0 0.101758163
H  H154  1  0.15290000  0.62890000  0.04120000  1.0 0.101758163
H  H155  1  0.90030000  0.44370000  0.83800000  1.0 0.1109015376
H  H156  1  0.94950000  0.52590000  0.86800000  1.0 0.1180065841
H  H157  1  0.90290000  0.35490000  0.74520000  1.0 0.1180065841
H  H158  1  0.91990000  0.32700000  0.64750000  1.0 0.1180065841
H  H159  1  0.03210000  0.53590000  0.71540000  1.0 0.1109015376
H  H160  1  0.01510000  0.56380000  0.81310000  1.0 0.1109015376
H  H161  1  0.94190000  0.10370000  0.53240000  1.0 0.101758163
H  H162  1  0.91460000  0.06280000  0.56960000  1.0 0.101758163
H  H163  1  0.01880000  0.08580000  0.63920000  1.0 0.101758163
H  H164  1  0.04120000  0.15290000  0.62890000  1.0 0.101758163
H  H165  1  0.83800000  0.90030000  0.44370000  1.0 0.1109015376
H  H166  1  0.86800000  0.94950000  0.52590000  1.0 0.1180065841
H  H167  1  0.74520000  0.90290000  0.35490000  1.0 0.1180065841
H  H168  1  0.64750000  0.91990000  0.32700000  1.0 0.1180065841
H  H169  1  0.71540000  0.03210000  0.53590000  1.0 0.1109015376
H  H170  1  0.81310000  0.01510000  0.56380000  1.0 0.1109015376
H  H171  1  0.55810000  0.09050000  0.16180000  1.0 0.101758163
H  H172  1  0.58540000  0.15500000  0.14820000  1.0 0.101758163
H  H173  1  0.48120000  0.12040000  0.06700000  1.0 0.101758163
H  H174  1  0.45880000  0.08770000  0.11170000  1.0 0.101758163
H  H175  1  0.66200000  0.10570000  0.06230000  1.0 0.1109015376
H  H176  1  0.63200000  0.15790000  0.08150000  1.0 0.1180065841
H  H177  1  0.75480000  0.10970000  0.15770000  1.0 0.1180065841
H  H178  1  0.85250000  0.17950000  0.27240000  1.0 0.1180065841
H  H179  1  0.78460000  0.32050000  0.31670000  1.0 0.1109015376
H  H180  1  0.68690000  0.25070000  0.20200000  1.0 0.1109015376
H  H181  1  0.07130000  0.40950000  0.96760000  1.0 0.101758163
H  H182  1  0.99320000  0.34500000  0.93040000  1.0 0.101758163
H  H183  1  0.94660000  0.37960000  0.86080000  1.0 0.101758163
H  H184  1  0.02400000  0.41230000  0.87110000  1.0 0.101758163
H  H185  1  0.95660000  0.39430000  0.05630000  1.0 0.1109015376
H  H186  1  0.92360000  0.34210000  0.97410000  1.0 0.1180065841
H  H187  1  0.04800000  0.39030000  0.14510000  1.0 0.1180065841
H  H188  1  0.09290000  0.32050000  0.17300000  1.0 0.1180065841
H  H189  1  0.99620000  0.17950000  0.96410000  1.0 0.1109015376
H  H190  1  0.95130000  0.24930000  0.93620000  1.0 0.1109015376
H  H191  1  0.42870000  0.39630000  0.33820000  1.0 0.101758163
H  H192  1  0.50680000  0.43720000  0.35180000  1.0 0.101758163
H  H193  1  0.55340000  0.41420000  0.43300000  1.0 0.101758163
H  H194  1  0.47600000  0.34710000  0.38830000  1.0 0.101758163
H  H195  1  0.54340000  0.59970000  0.43770000  1.0 0.1109015376
H  H196  1  0.57640000  0.55050000  0.41850000  1.0 0.1180065841
H  H197  1  0.45200000  0.59710000  0.34230000  1.0 0.1180065841
H  H198  1  0.40710000  0.58010000  0.22760000  1.0 0.1180065841
H  H199  1  0.50380000  0.46790000  0.18330000  1.0 0.1109015376
H  H200  1  0.54870000  0.48490000  0.29800000  1.0 0.1109015376
H  H201  1  0.16180000  0.55810000  0.09050000  1.0 0.101758163
H  H202  1  0.14820000  0.58540000  0.15500000  1.0 0.101758163
H  H203  1  0.06700000  0.48120000  0.12040000  1.0 0.101758163
H  H204  1  0.11170000  0.45880000  0.08770000  1.0 0.101758163
H  H205  1  0.06230000  0.66200000  0.10570000  1.0 0.1109015376
H  H206  1  0.08150000  0.63200000  0.15790000  1.0 0.1180065841
H  H207  1  0.15770000  0.75480000  0.10970000  1.0 0.1180065841
H  H208  1  0.27240000  0.85250000  0.17950000  1.0 0.1180065841
H  H209  1  0.31670000  0.78460000  0.32050000  1.0 0.1109015376
H  H210  1  0.20200000  0.68690000  0.25070000  1.0 0.1109015376
H  H211  1  0.53240000  0.94190000  0.10370000  1.0 0.101758163
H  H212  1  0.56960000  0.91460000  0.06280000  1.0 0.101758163
H  H213  1  0.63920000  0.01880000  0.08580000  1.0 0.101758163
H  H214  1  0.62890000  0.04120000  0.15290000  1.0 0.101758163
H  H215  1  0.44370000  0.83800000  0.90030000  1.0 0.1109015376
H  H216  1  0.52590000  0.86800000  0.94950000  1.0 0.1180065841
H  H217  1  0.35490000  0.74520000  0.90290000  1.0 0.1180065841
H  H218  1  0.32700000  0.64750000  0.91990000  1.0 0.1180065841
H  H219  1  0.53590000  0.71540000  0.03210000  1.0 0.1109015376
H  H220  1  0.56380000  0.81310000  0.01510000  1.0 0.1109015376
H  H221  1  0.33820000  0.42870000  0.39630000  1.0 0.101758163
H  H222  1  0.35180000  0.50680000  0.43720000  1.0 0.101758163
H  H223  1  0.43300000  0.55340000  0.41420000  1.0 0.101758163
H  H224  1  0.38830000  0.47600000  0.34710000  1.0 0.101758163
H  H225  1  0.43770000  0.54340000  0.59970000  1.0 0.1109015376
H  H226  1  0.41850000  0.57640000  0.55050000  1.0 0.1180065841
H  H227  1  0.34230000  0.45200000  0.59710000  1.0 0.1180065841
H  H228  1  0.22760000  0.40710000  0.58010000  1.0 0.1180065841
H  H229  1  0.18330000  0.50380000  0.46790000  1.0 0.1109015376
H  H230  1  0.29800000  0.54870000  0.48490000  1.0 0.1109015376
H  H231  1  0.96760000  0.07130000  0.40950000  1.0 0.101758163
H  H232  1  0.93040000  0.99320000  0.34500000  1.0 0.101758163
H  H233  1  0.86080000  0.94660000  0.37960000  1.0 0.101758163
H  H234  1  0.87110000  0.02400000  0.41230000  1.0 0.101758163
H  H235  1  0.05630000  0.95660000  0.39430000  1.0 0.1109015376
H  H236  1  0.97410000  0.92360000  0.34210000  1.0 0.1180065841
H  H237  1  0.14510000  0.04800000  0.39030000  1.0 0.1180065841
H  H238  1  0.17300000  0.09290000  0.32050000  1.0 0.1180065841
H  H239  1  0.96410000  0.99620000  0.17950000  1.0 0.1109015376
H  H240  1  0.93620000  0.95130000  0.24930000  1.0 0.1109015376
C  C1  1  0.87570000  0.93100000  0.97870000  1.0 -0.1536857824
C  C2  1  0.91970000  0.89920000  0.00330000  1.0 -0.1645301608
C  C3  1  0.90460000  0.05200000  0.03180000  1.0 -0.2067146105
C  C4  1  0.83090000  0.04260000  0.00450000  1.0 0.1180065841
C  C5  1  0.80998000  0.07088000  0.96250000  1.0 -0.1749754439
C  C6  1  0.74180000  0.06080000  0.93580000  1.0 -0.0942208832
C  C7  1  0.69462000  0.02240000  0.95122000  1.0 -0.0561424109
C  C8  1  0.71563000  0.99413000  0.99330000  1.0 -0.1185988796
C  C9  1  0.78372000  0.00420000  0.01992000  1.0 -0.1771445612
C  C10  1  0.62120000  0.00990000  0.92270000  1.0 0.5597619002
C  C11  1  0.45230000  0.89700000  0.52130000  1.0 -0.1536857824
C  C12  1  0.39590000  0.91640000  0.49670000  1.0 -0.1645301608
C  C13  1  0.52020000  0.87280000  0.46820000  1.0 -0.2067146105
C  C14  1  0.53810000  0.82640000  0.49550000  1.0 0.1180065841
C  C15  1  0.60838000  0.84748000  0.53750000  1.0 -0.1749754439
C  C16  1  0.62500000  0.80600000  0.56420000  1.0 -0.0942208832
C  C17  1  0.57118000  0.74340000  0.54878000  1.0 -0.0561424109
C  C18  1  0.50083000  0.72233000  0.50670000  1.0 -0.1185988796
C  C19  1  0.48428000  0.76380000  0.48008000  1.0 -0.1771445612
C  C20  1  0.58720000  0.69850000  0.57730000  1.0 0.5597619002
C  C21  1  0.62430000  0.60300000  0.05530000  1.0 -0.1536857824
C  C22  1  0.58030000  0.58360000  0.97950000  1.0 -0.1645301608
C  C23  1  0.59540000  0.62720000  0.14740000  1.0 -0.2067146105
C  C24  1  0.66910000  0.67360000  0.21170000  1.0 0.1180065841
C  C25  1  0.69002000  0.65252000  0.26090000  1.0 -0.1749754439
C  C26  1  0.75820000  0.69400000  0.31900000  1.0 -0.0942208832
C  C27  1  0.80538000  0.75660000  0.32778000  1.0 -0.0561424109
C  C28  1  0.78437000  0.77767000  0.27850000  1.0 -0.1185988796
C  C29  1  0.71628000  0.73620000  0.22048000  1.0 -0.1771445612
C  C30  1  0.87880000  0.80150000  0.38870000  1.0 0.5597619002
C  C31  1  0.04770000  0.56900000  0.44470000  1.0 -0.1536857824
C  C32  1  0.10410000  0.60080000  0.52050000  1.0 -0.1645301608
C  C33  1  0.97980000  0.44800000  0.35260000  1.0 -0.2067146105
C  C34  1  0.96190000  0.45740000  0.28830000  1.0 0.1180065841
C  C35  1  0.89162000  0.42912000  0.23910000  1.0 -0.1749754439
C  C36  1  0.87500000  0.43920000  0.18100000  1.0 -0.0942208832
C  C37  1  0.92882000  0.47760000  0.17222000  1.0 -0.0561424109
C  C38  1  0.99917000  0.50587000  0.22150000  1.0 -0.1185988796
C  C39  1  0.01572000  0.49580000  0.27952000  1.0 -0.1771445612
C  C40  1  0.91280000  0.49010000  0.11130000  1.0 0.5597619002
C  C41  1  0.56900000  0.44470000  0.04770000  1.0 -0.1536857824
C  C42  1  0.60080000  0.52050000  0.10410000  1.0 -0.1645301608
C  C43  1  0.44800000  0.35260000  0.97980000  1.0 -0.2067146105
C  C44  1  0.45740000  0.28830000  0.96190000  1.0 0.1180065841
C  C45  1  0.42912000  0.23910000  0.89162000  1.0 -0.1749754439
C  C46  1  0.43920000  0.18100000  0.87500000  1.0 -0.0942208832
C  C47  1  0.47760000  0.17222000  0.92882000  1.0 -0.0561424109
C  C48  1  0.50587000  0.22150000  0.99917000  1.0 -0.1185988796
C  C49  1  0.49580000  0.27952000  0.01572000  1.0 -0.1771445612
C  C50  1  0.49010000  0.11130000  0.91280000  1.0 0.5597619002
C  C51  1  0.60300000  0.05530000  0.62430000  1.0 -0.1536857824
C  C52  1  0.58360000  0.97950000  0.58030000  1.0 -0.1645301608
C  C53  1  0.62720000  0.14740000  0.59540000  1.0 -0.2067146105
C  C54  1  0.67360000  0.21170000  0.66910000  1.0 0.1180065841
C  C55  1  0.65252000  0.26090000  0.69002000  1.0 -0.1749754439
C  C56  1  0.69400000  0.31900000  0.75820000  1.0 -0.0942208832
C  C57  1  0.75660000  0.32778000  0.80538000  1.0 -0.0561424109
C  C58  1  0.77767000  0.27850000  0.78437000  1.0 -0.1185988796
C  C59  1  0.73620000  0.22048000  0.71628000  1.0 -0.1771445612
C  C60  1  0.80150000  0.38870000  0.87880000  1.0 0.5597619002
C  C61  1  0.89700000  0.52130000  0.45230000  1.0 -0.1536857824
C  C62  1  0.91640000  0.49670000  0.39590000  1.0 -0.1645301608
C  C63  1  0.87280000  0.46820000  0.52020000  1.0 -0.2067146105
C  C64  1  0.82640000  0.49550000  0.53810000  1.0 0.1180065841
C  C65  1  0.84748000  0.53750000  0.60838000  1.0 -0.1749754439
C  C66  1  0.80600000  0.56420000  0.62500000  1.0 -0.0942208832
C  C67  1  0.74340000  0.54878000  0.57118000  1.0 -0.0561424109
C  C68  1  0.72233000  0.50670000  0.50083000  1.0 -0.1185988796
C  C69  1  0.76380000  0.48008000  0.48428000  1.0 -0.1771445612
C  C70  1  0.69850000  0.57730000  0.58720000  1.0 0.5597619002
C  C71  1  0.93100000  0.97870000  0.87570000  1.0 -0.1536857824
C  C72  1  0.89920000  0.00330000  0.91970000  1.0 -0.1645301608
C  C73  1  0.05200000  0.03180000  0.90460000  1.0 -0.2067146105
C  C74  1  0.04260000  0.00450000  0.83090000  1.0 0.1180065841
C  C75  1  0.07088000  0.96250000  0.80998000  1.0 -0.1749754439
C  C76  1  0.06080000  0.93580000  0.74180000  1.0 -0.0942208832
C  C77  1  0.02240000  0.95122000  0.69462000  1.0 -0.0561424109
C  C78  1  0.99413000  0.99330000  0.71563000  1.0 -0.1185988796
C  C79  1  0.00420000  0.01992000  0.78372000  1.0 -0.1771445612
C  C80  1  0.00990000  0.92270000  0.62120000  1.0 0.5597619002
C  C81  1  0.05530000  0.62430000  0.60300000  1.0 -0.1536857824
C  C82  1  0.97950000  0.58030000  0.58360000  1.0 -0.1645301608
C  C83  1  0.14740000  0.59540000  0.62720000  1.0 -0.2067146105
C  C84  1  0.21170000  0.66910000  0.67360000  1.0 0.1180065841
C  C85  1  0.26090000  0.69002000  0.65252000  1.0 -0.1749754439
C  C86  1  0.31900000  0.75820000  0.69400000  1.0 -0.0942208832
C  C87  1  0.32778000  0.80538000  0.75660000  1.0 -0.0561424109
C  C88  1  0.27850000  0.78437000  0.77767000  1.0 -0.1185988796
C  C89  1  0.22048000  0.71628000  0.73620000  1.0 -0.1771445612
C  C90  1  0.38870000  0.87880000  0.80150000  1.0 0.5597619002
C  C91  1  0.44470000  0.04770000  0.56900000  1.0 -0.1536857824
C  C92  1  0.52050000  0.10410000  0.60080000  1.0 -0.1645301608
C  C93  1  0.35260000  0.97980000  0.44800000  1.0 -0.2067146105
C  C94  1  0.28830000  0.96190000  0.45740000  1.0 0.1180065841
C  C95  1  0.23910000  0.89162000  0.42912000  1.0 -0.1749754439
C  C96  1  0.18100000  0.87500000  0.43920000  1.0 -0.0942208832
C  C97  1  0.17222000  0.92882000  0.47760000  1.0 -0.0561424109
C  C98  1  0.22150000  0.99917000  0.50587000  1.0 -0.1185988796
C  C99  1  0.27952000  0.01572000  0.49580000  1.0 -0.1771445612
C  C100  1  0.11130000  0.91280000  0.49010000  1.0 0.5597619002
C  C101  1  0.97870000  0.87570000  0.93100000  1.0 -0.1536857824
C  C102  1  0.00330000  0.91970000  0.89920000  1.0 -0.1645301608
C  C103  1  0.03180000  0.90460000  0.05200000  1.0 -0.2067146105
C  C104  1  0.00450000  0.83090000  0.04260000  1.0 0.1180065841
C  C105  1  0.96250000  0.80998000  0.07088000  1.0 -0.1749754439
C  C106  1  0.93580000  0.74180000  0.06080000  1.0 -0.0942208832
C  C107  1  0.95122000  0.69462000  0.02240000  1.0 -0.0561424109
C  C108  1  0.99330000  0.71563000  0.99413000  1.0 -0.1185988796
C  C109  1  0.01992000  0.78372000  0.00420000  1.0 -0.1771445612
C  C110  1  0.92270000  0.62120000  0.00990000  1.0 0.5597619002
C  C111  1  0.52130000  0.45230000  0.89700000  1.0 -0.1536857824
C  C112  1  0.49670000  0.39590000  0.91640000  1.0 -0.1645301608
C  C113  1  0.46820000  0.52020000  0.87280000  1.0 -0.2067146105
C  C114  1  0.49550000  0.53810000  0.82640000  1.0 0.1180065841
C  C115  1  0.53750000  0.60838000  0.84748000  1.0 -0.1749754439
C  C116  1  0.56420000  0.62500000  0.80600000  1.0 -0.0942208832
C  C117  1  0.54878000  0.57118000  0.74340000  1.0 -0.0561424109
C  C118  1  0.50670000  0.50083000  0.72233000  1.0 -0.1185988796
C  C119  1  0.48008000  0.48428000  0.76380000  1.0 -0.1771445612
C  C120  1  0.57730000  0.58720000  0.69850000  1.0 0.5597619002
C  C121  1  0.43100000  0.37570000  0.47870000  1.0 -0.1536857824
C  C122  1  0.39920000  0.41970000  0.50330000  1.0 -0.1645301608
C  C123  1  0.55200000  0.40460000  0.53180000  1.0 -0.2067146105
C  C124  1  0.54260000  0.33090000  0.50450000  1.0 0.1180065841
C  C125  1  0.57088000  0.30998000  0.46250000  1.0 -0.1749754439
C  C126  1  0.56080000  0.24180000  0.43580000  1.0 -0.0942208832
C  C127  1  0.52240000  0.19462000  0.45122000  1.0 -0.0561424109
C  C128  1  0.49413000  0.21563000  0.49330000  1.0 -0.1185988796
C  C129  1  0.50420000  0.28372000  0.51992000  1.0 -0.1771445612
C  C130  1  0.50990000  0.12120000  0.42270000  1.0 0.5597619002
C  C131  1  0.39700000  0.95230000  0.02130000  1.0 -0.1536857824
C  C132  1  0.41640000  0.89590000  0.99670000  1.0 -0.1645301608
C  C133  1  0.37280000  0.02020000  0.96820000  1.0 -0.2067146105
C  C134  1  0.32640000  0.03810000  0.99550000  1.0 0.1180065841
C  C135  1  0.34748000  0.10838000  0.03750000  1.0 -0.1749754439
C  C136  1  0.30600000  0.12500000  0.06420000  1.0 -0.0942208832
C  C137  1  0.24340000  0.07118000  0.04878000  1.0 -0.0561424109
C  C138  1  0.22233000  0.00083000  0.00670000  1.0 -0.1185988796
C  C139  1  0.26380000  0.98428000  0.98008000  1.0 -0.1771445612
C  C140  1  0.19850000  0.08720000  0.07730000  1.0 0.5597619002
C  C141  1  0.10300000  0.12430000  0.55530000  1.0 -0.1536857824
C  C142  1  0.08360000  0.08030000  0.47950000  1.0 -0.1645301608
C  C143  1  0.12720000  0.09540000  0.64740000  1.0 -0.2067146105
C  C144  1  0.17360000  0.16910000  0.71170000  1.0 0.1180065841
C  C145  1  0.15252000  0.19002000  0.76090000  1.0 -0.1749754439
C  C146  1  0.19400000  0.25820000  0.81900000  1.0 -0.0942208832
C  C147  1  0.25660000  0.30538000  0.82778000  1.0 -0.0561424109
C  C148  1  0.27767000  0.28437000  0.77850000  1.0 -0.1185988796
C  C149  1  0.23620000  0.21628000  0.72048000  1.0 -0.1771445612
C  C150  1  0.30150000  0.37880000  0.88870000  1.0 0.5597619002
C  C151  1  0.06900000  0.54770000  0.94470000  1.0 -0.1536857824
C  C152  1  0.10080000  0.60410000  0.02050000  1.0 -0.1645301608
C  C153  1  0.94800000  0.47980000  0.85260000  1.0 -0.2067146105
C  C154  1  0.95740000  0.46190000  0.78830000  1.0 0.1180065841
C  C155  1  0.92912000  0.39162000  0.73910000  1.0 -0.1749754439
C  C156  1  0.93920000  0.37500000  0.68100000  1.0 -0.0942208832
C  C157  1  0.97760000  0.42882000  0.67222000  1.0 -0.0561424109
C  C158  1  0.00587000  0.49917000  0.72150000  1.0 -0.1185988796
C  C159  1  0.99580000  0.51572000  0.77952000  1.0 -0.1771445612
C  C160  1  0.99010000  0.41280000  0.61130000  1.0 0.5597619002
C  C161  1  0.94470000  0.06900000  0.54770000  1.0 -0.1536857824
C  C162  1  0.02050000  0.10080000  0.60410000  1.0 -0.1645301608
C  C163  1  0.85260000  0.94800000  0.47980000  1.0 -0.2067146105
C  C164  1  0.78830000  0.95740000  0.46190000  1.0 0.1180065841
C  C165  1  0.73910000  0.92912000  0.39162000  1.0 -0.1749754439
C  C166  1  0.68100000  0.93920000  0.37500000  1.0 -0.0942208832
C  C167  1  0.67222000  0.97760000  0.42882000  1.0 -0.0561424109
C  C168  1  0.72150000  0.00587000  0.49917000  1.0 -0.1185988796
C  C169  1  0.77952000  0.99580000  0.51572000  1.0 -0.1771445612
C  C170  1  0.61130000  0.99010000  0.41280000  1.0 0.5597619002
C  C171  1  0.55530000  0.10300000  0.12430000  1.0 -0.1536857824
C  C172  1  0.47950000  0.08360000  0.08030000  1.0 -0.1645301608
C  C173  1  0.64740000  0.12720000  0.09540000  1.0 -0.2067146105
C  C174  1  0.71170000  0.17360000  0.16910000  1.0 0.1180065841
C  C175  1  0.76090000  0.15252000  0.19002000  1.0 -0.1749754439
C  C176  1  0.81900000  0.19400000  0.25820000  1.0 -0.0942208832
C  C177  1  0.82778000  0.25660000  0.30538000  1.0 -0.0561424109
C  C178  1  0.77850000  0.27767000  0.28437000  1.0 -0.1185988796
C  C179  1  0.72048000  0.23620000  0.21628000  1.0 -0.1771445612
C  C180  1  0.88870000  0.30150000  0.37880000  1.0 0.5597619002
C  C181  1  0.02130000  0.39700000  0.95230000  1.0 -0.1536857824
C  C182  1  0.99670000  0.41640000  0.89590000  1.0 -0.1645301608
C  C183  1  0.96820000  0.37280000  0.02020000  1.0 -0.2067146105
C  C184  1  0.99550000  0.32640000  0.03810000  1.0 0.1180065841
C  C185  1  0.03750000  0.34748000  0.10838000  1.0 -0.1749754439
C  C186  1  0.06420000  0.30600000  0.12500000  1.0 -0.0942208832
C  C187  1  0.04878000  0.24340000  0.07118000  1.0 -0.0561424109
C  C188  1  0.00670000  0.22233000  0.00083000  1.0 -0.1185988796
C  C189  1  0.98008000  0.26380000  0.98428000  1.0 -0.1771445612
C  C190  1  0.07730000  0.19850000  0.08720000  1.0 0.5597619002
C  C191  1  0.47870000  0.43100000  0.37570000  1.0 -0.1536857824
C  C192  1  0.50330000  0.39920000  0.41970000  1.0 -0.1645301608
C  C193  1  0.53180000  0.55200000  0.40460000  1.0 -0.2067146105
C  C194  1  0.50450000  0.54260000  0.33090000  1.0 0.1180065841
C  C195  1  0.46250000  0.57088000  0.30998000  1.0 -0.1749754439
C  C196  1  0.43580000  0.56080000  0.24180000  1.0 -0.0942208832
C  C197  1  0.45122000  0.52240000  0.19462000  1.0 -0.0561424109
C  C198  1  0.49330000  0.49413000  0.21563000  1.0 -0.1185988796
C  C199  1  0.51992000  0.50420000  0.28372000  1.0 -0.1771445612
C  C200  1  0.42270000  0.50990000  0.12120000  1.0 0.5597619002
C  C201  1  0.12430000  0.55530000  0.10300000  1.0 -0.1536857824
C  C202  1  0.08030000  0.47950000  0.08360000  1.0 -0.1645301608
C  C203  1  0.09540000  0.64740000  0.12720000  1.0 -0.2067146105
C  C204  1  0.16910000  0.71170000  0.17360000  1.0 0.1180065841
C  C205  1  0.19002000  0.76090000  0.15252000  1.0 -0.1749754439
C  C206  1  0.25820000  0.81900000  0.19400000  1.0 -0.0942208832
C  C207  1  0.30538000  0.82778000  0.25660000  1.0 -0.0561424109
C  C208  1  0.28437000  0.77850000  0.27767000  1.0 -0.1185988796
C  C209  1  0.21628000  0.72048000  0.23620000  1.0 -0.1771445612
C  C210  1  0.37880000  0.88870000  0.30150000  1.0 0.5597619002
C  C211  1  0.54770000  0.94470000  0.06900000  1.0 -0.1536857824
C  C212  1  0.60410000  0.02050000  0.10080000  1.0 -0.1645301608
C  C213  1  0.47980000  0.85260000  0.94800000  1.0 -0.2067146105
C  C214  1  0.46190000  0.78830000  0.95740000  1.0 0.1180065841
C  C215  1  0.39162000  0.73910000  0.92912000  1.0 -0.1749754439
C  C216  1  0.37500000  0.68100000  0.93920000  1.0 -0.0942208832
C  C217  1  0.42882000  0.67222000  0.97760000  1.0 -0.0561424109
C  C218  1  0.49917000  0.72150000  0.00587000  1.0 -0.1185988796
C  C219  1  0.51572000  0.77952000  0.99580000  1.0 -0.1771445612
C  C220  1  0.41280000  0.61130000  0.99010000  1.0 0.5597619002
C  C221  1  0.37570000  0.47870000  0.43100000  1.0 -0.1536857824
C  C222  1  0.41970000  0.50330000  0.39920000  1.0 -0.1645301608
C  C223  1  0.40460000  0.53180000  0.55200000  1.0 -0.2067146105
C  C224  1  0.33090000  0.50450000  0.54260000  1.0 0.1180065841
C  C225  1  0.30998000  0.46250000  0.57088000  1.0 -0.1749754439
C  C226  1  0.24180000  0.43580000  0.56080000  1.0 -0.0942208832
C  C227  1  0.19462000  0.45122000  0.52240000  1.0 -0.0561424109
C  C228  1  0.21563000  0.49330000  0.49413000  1.0 -0.1185988796
C  C229  1  0.28372000  0.51992000  0.50420000  1.0 -0.1771445612
C  C230  1  0.12120000  0.42270000  0.50990000  1.0 0.5597619002
C  C231  1  0.95230000  0.02130000  0.39700000  1.0 -0.1536857824
C  C232  1  0.89590000  0.99670000  0.41640000  1.0 -0.1645301608
C  C233  1  0.02020000  0.96820000  0.37280000  1.0 -0.2067146105
C  C234  1  0.03810000  0.99550000  0.32640000  1.0 0.1180065841
C  C235  1  0.10838000  0.03750000  0.34748000  1.0 -0.1749754439
C  C236  1  0.12500000  0.06420000  0.30600000  1.0 -0.0942208832
C  C237  1  0.07118000  0.04878000  0.24340000  1.0 -0.0561424109
C  C238  1  0.00083000  0.00670000  0.22233000  1.0 -0.1185988796
C  C239  1  0.98428000  0.98008000  0.26380000  1.0 -0.1771445612
C  C240  1  0.08720000  0.07730000  0.19850000  1.0 0.5597619002
N  N1  1  0.91360000  0.99940000  0.98340000  1.0 -0.1094335746
N  N2  1  0.51600000  0.93020000  0.51660000  1.0 -0.1094335746
N  N3  1  0.58640000  0.56980000  0.08580000  1.0 -0.1094335746
N  N4  1  0.98400000  0.50060000  0.41420000  1.0 -0.1094335746
N  N5  1  0.50060000  0.41420000  0.98400000  1.0 -0.1094335746
N  N6  1  0.56980000  0.08580000  0.58640000  1.0 -0.1094335746
N  N7  1  0.93020000  0.51660000  0.51600000  1.0 -0.1094335746
N  N8  1  0.99940000  0.98340000  0.91360000  1.0 -0.1094335746
N  N9  1  0.08580000  0.58640000  0.56980000  1.0 -0.1094335746
N  N10  1  0.41420000  0.98400000  0.50060000  1.0 -0.1094335746
N  N11  1  0.98340000  0.91360000  0.99940000  1.0 -0.1094335746
N  N12  1  0.51660000  0.51600000  0.93020000  1.0 -0.1094335746
N  N13  1  0.49940000  0.41360000  0.48340000  1.0 -0.1094335746
N  N14  1  0.43020000  0.01600000  0.01660000  1.0 -0.1094335746
N  N15  1  0.06980000  0.08640000  0.58580000  1.0 -0.1094335746
N  N16  1  0.00060000  0.48400000  0.91420000  1.0 -0.1094335746
N  N17  1  0.91420000  0.00060000  0.48400000  1.0 -0.1094335746
N  N18  1  0.58580000  0.06980000  0.08640000  1.0 -0.1094335746
N  N19  1  0.01660000  0.43020000  0.01600000  1.0 -0.1094335746
N  N20  1  0.48340000  0.49940000  0.41360000  1.0 -0.1094335746
N  N21  1  0.08640000  0.58580000  0.06980000  1.0 -0.1094335746
N  N22  1  0.48400000  0.91420000  0.00060000  1.0 -0.1094335746
N  N23  1  0.41360000  0.48340000  0.49940000  1.0 -0.1094335746
N  N24  1  0.01600000  0.01660000  0.43020000  1.0 -0.1094335746
O  O1  1  0.60560000  0.03510000  0.88410000  1.0 -0.5695683648
O  O2  1  0.58200000  0.98090000  0.94150000  1.0 -0.5587733527
O  O3  1  0.65100000  0.72150000  0.61590000  1.0 -0.5695683648
O  O4  1  0.53940000  0.64050000  0.55850000  1.0 -0.5587733527
O  O5  1  0.89440000  0.77850000  0.42950000  1.0 -0.5695683648
O  O6  1  0.91800000  0.85950000  0.39890000  1.0 -0.5587733527
O  O7  1  0.84900000  0.46490000  0.07050000  1.0 -0.5695683648
O  O8  1  0.96060000  0.51910000  0.10110000  1.0 -0.5587733527
O  O9  1  0.46490000  0.07050000  0.84900000  1.0 -0.5695683648
O  O10  1  0.51910000  0.10110000  0.96060000  1.0 -0.5587733527
O  O11  1  0.77850000  0.42950000  0.89440000  1.0 -0.5695683648
O  O12  1  0.85950000  0.39890000  0.91800000  1.0 -0.5587733527
O  O13  1  0.72150000  0.61590000  0.65100000  1.0 -0.5695683648
O  O14  1  0.64050000  0.55850000  0.53940000  1.0 -0.5587733527
O  O15  1  0.03510000  0.88410000  0.60560000  1.0 -0.5695683648
O  O16  1  0.98090000  0.94150000  0.58200000  1.0 -0.5587733527
O  O17  1  0.42950000  0.89440000  0.77850000  1.0 -0.5695683648
O  O18  1  0.39890000  0.91800000  0.85950000  1.0 -0.5587733527
O  O19  1  0.07050000  0.84900000  0.46490000  1.0 -0.5695683648
O  O20  1  0.10110000  0.96060000  0.51910000  1.0 -0.5587733527
O  O21  1  0.88410000  0.60560000  0.03510000  1.0 -0.5695683648
O  O22  1  0.94150000  0.58200000  0.98090000  1.0 -0.5587733527
O  O23  1  0.61590000  0.65100000  0.72150000  1.0 -0.5695683648
O  O24  1  0.55850000  0.53940000  0.64050000  1.0 -0.5587733527
O  O25  1  0.53510000  0.10560000  0.38410000  1.0 -0.5695683648
O  O26  1  0.48090000  0.08200000  0.44150000  1.0 -0.5587733527
O  O27  1  0.22150000  0.15100000  0.11590000  1.0 -0.5695683648
O  O28  1  0.14050000  0.03940000  0.05850000  1.0 -0.5587733527
O  O29  1  0.27850000  0.39440000  0.92950000  1.0 -0.5695683648
O  O30  1  0.35950000  0.41800000  0.89890000  1.0 -0.5587733527
O  O31  1  0.96490000  0.34900000  0.57050000  1.0 -0.5695683648
O  O32  1  0.01910000  0.46060000  0.60110000  1.0 -0.5587733527
O  O33  1  0.57050000  0.96490000  0.34900000  1.0 -0.5695683648
O  O34  1  0.60110000  0.01910000  0.46060000  1.0 -0.5587733527
O  O35  1  0.92950000  0.27850000  0.39440000  1.0 -0.5695683648
O  O36  1  0.89890000  0.35950000  0.41800000  1.0 -0.5587733527
O  O37  1  0.11590000  0.22150000  0.15100000  1.0 -0.5695683648
O  O38  1  0.05850000  0.14050000  0.03940000  1.0 -0.5587733527
O  O39  1  0.38410000  0.53510000  0.10560000  1.0 -0.5695683648
O  O40  1  0.44150000  0.48090000  0.08200000  1.0 -0.5587733527
O  O41  1  0.39440000  0.92950000  0.27850000  1.0 -0.5695683648
O  O42  1  0.41800000  0.89890000  0.35950000  1.0 -0.5587733527
O  O43  1  0.34900000  0.57050000  0.96490000  1.0 -0.5695683648
O  O44  1  0.46060000  0.60110000  0.01910000  1.0 -0.5587733527
O  O45  1  0.10560000  0.38410000  0.53510000  1.0 -0.5695683648
O  O46  1  0.08200000  0.44150000  0.48090000  1.0 -0.5587733527
O  O47  1  0.15100000  0.11590000  0.22150000  1.0 -0.5695683648
O  O48  1  0.03940000  0.05850000  0.14050000  1.0 -0.5587733527
