# DDEC6 charges by PACMAN v1.1 (https://github.com/mtap-research/PACMAN-charge/)
data_BEFLAB01_FSR_pacman
_symmetry_space_group_name_H-M   'P 1'
_cell_length_a   14.37660000
_cell_length_b   14.37660000
_cell_length_c   10.02420000
_cell_angle_alpha   90.00000000
_cell_angle_beta   90.00000000
_cell_angle_gamma   91.03650000
_symmetry_Int_Tables_number   1
_chemical_formula_structural   AlPO4
_chemical_formula_sum   'Al16 P16 O64'
_cell_volume   2071.52908113
_cell_formula_units_Z   16
loop_
 _symmetry_equiv_pos_site_id
 _symmetry_equiv_pos_as_xyz
  1  'x, y, z'
loop_
 _atom_site_type_symbol
 _atom_site_label
 _atom_site_symmetry_multiplicity
 _atom_site_fract_x
 _atom_site_fract_y
 _atom_site_fract_z
 _atom_site_occupancy
 _atom_site_charge
Al  Al1  1  0.61940000  0.77720000  0.13010000  1.0 1.8131110246
Al  Al2  1  0.38060000  0.22280000  0.13010000  1.0 1.8131110246
Al  Al3  1  0.77720000  0.61940000  0.86990000  1.0 1.8131110246
Al  Al4  1  0.22280000  0.38060000  0.86990000  1.0 1.8131110246
Al  Al5  1  0.88060000  0.72280000  0.36990000  1.0 1.8131110246
Al  Al6  1  0.11940000  0.27720000  0.36990000  1.0 1.8131110246
Al  Al7  1  0.72280000  0.88060000  0.63010000  1.0 1.8131110246
Al  Al8  1  0.27720000  0.11940000  0.63010000  1.0 1.8131110246
Al  Al9  1  0.24620000  0.61500000  0.15590000  1.0 1.7715378428
Al  Al10  1  0.75380000  0.38500000  0.15590000  1.0 1.7715378428
Al  Al11  1  0.61500000  0.24620000  0.84410000  1.0 1.7715378428
Al  Al12  1  0.38500000  0.75380000  0.84410000  1.0 1.7715378428
Al  Al13  1  0.25380000  0.88500000  0.34410000  1.0 1.7715378428
Al  Al14  1  0.74620000  0.11500000  0.34410000  1.0 1.7715378428
Al  Al15  1  0.88500000  0.25380000  0.65590000  1.0 1.7715378428
Al  Al16  1  0.11500000  0.74620000  0.65590000  1.0 1.7715378428
P  P1  1  0.60500000  0.74740000  0.81780000  1.0 1.4305107052
P  P2  1  0.39500000  0.25260000  0.81780000  1.0 1.4305107052
P  P3  1  0.74740000  0.60500000  0.18220000  1.0 1.4305107052
P  P4  1  0.25260000  0.39500000  0.18220000  1.0 1.4305107052
P  P5  1  0.89500000  0.75260000  0.68220000  1.0 1.4242015059
P  P6  1  0.10500000  0.24740000  0.68220000  1.0 1.4305107052
P  P7  1  0.75260000  0.89500000  0.31780000  1.0 1.4305107052
P  P8  1  0.24740000  0.10500000  0.31780000  1.0 1.4305107052
P  P9  1  0.39450000  0.77890000  0.15860000  1.0 1.4305107052
P  P10  1  0.60550000  0.22110000  0.15860000  1.0 1.4305107052
P  P11  1  0.77890000  0.39450000  0.84140000  1.0 1.4305107052
P  P12  1  0.22110000  0.60550000  0.84140000  1.0 1.4305107052
P  P13  1  0.10550000  0.72110000  0.34140000  1.0 1.4305107052
P  P14  1  0.89450000  0.27890000  0.34140000  1.0 1.4305107052
P  P15  1  0.72110000  0.10550000  0.65860000  1.0 1.4305107052
P  P16  1  0.27890000  0.89450000  0.65860000  1.0 1.4305107052
O  O1  1  0.62980000  0.79880000  0.94270000  1.0 -0.8268553043
O  O2  1  0.37020000  0.20120000  0.94270000  1.0 -0.8268553043
O  O3  1  0.79880000  0.62980000  0.05730000  1.0 -0.8268553043
O  O4  1  0.20120000  0.37020000  0.05730000  1.0 -0.8268553043
O  O5  1  0.87020000  0.70120000  0.55730000  1.0 -0.8268553043
O  O6  1  0.12980000  0.29880000  0.55730000  1.0 -0.8268553043
O  O7  1  0.70120000  0.87020000  0.44270000  1.0 -0.8268553043
O  O8  1  0.29880000  0.12980000  0.44270000  1.0 -0.8268553043
O  O9  1  0.66450000  0.66310000  0.80520000  1.0 -0.8268553043
O  O10  1  0.33550000  0.33690000  0.80520000  1.0 -0.8268553043
O  O11  1  0.66310000  0.66450000  0.19480000  1.0 -0.8268553043
O  O12  1  0.33690000  0.33550000  0.19480000  1.0 -0.8268553043
O  O13  1  0.83550000  0.83690000  0.69480000  1.0 -0.8268553043
O  O14  1  0.16450000  0.16310000  0.69480000  1.0 -0.8268553043
O  O15  1  0.83690000  0.83550000  0.30520000  1.0 -0.8268553043
O  O16  1  0.16310000  0.16450000  0.30520000  1.0 -0.8268553043
O  O17  1  0.35240000  0.68560000  0.19230000  1.0 -0.8268553043
O  O18  1  0.64760000  0.31440000  0.19230000  1.0 -0.8268553043
O  O19  1  0.68560000  0.35240000  0.80770000  1.0 -0.8268553043
O  O20  1  0.31440000  0.64760000  0.80770000  1.0 -0.8268553043
O  O21  1  0.14760000  0.81440000  0.30770000  1.0 -0.8268553043
O  O22  1  0.85240000  0.18560000  0.30770000  1.0 -0.8268553043
O  O23  1  0.81440000  0.14760000  0.69230000  1.0 -0.8268553043
O  O24  1  0.18560000  0.85240000  0.69230000  1.0 -0.8268553043
O  O25  1  0.50330000  0.71450000  0.81600000  1.0 -0.7874152636
O  O26  1  0.49670000  0.28550000  0.81600000  1.0 -0.7874152636
O  O27  1  0.71450000  0.50330000  0.18400000  1.0 -0.7874152636
O  O28  1  0.28550000  0.49670000  0.18400000  1.0 -0.7874152636
O  O29  1  0.99670000  0.78550000  0.68400000  1.0 -0.7874152636
O  O30  1  0.00330000  0.21450000  0.68400000  1.0 -0.7874152636
O  O31  1  0.78550000  0.99670000  0.31600000  1.0 -0.7874152636
O  O32  1  0.21450000  0.00330000  0.31600000  1.0 -0.7874152636
O  O33  1  0.49680000  0.78020000  0.18650000  1.0 -0.7836692904
O  O34  1  0.50320000  0.21980000  0.18650000  1.0 -0.7836692904
O  O35  1  0.78020000  0.49680000  0.81350000  1.0 -0.7836692904
O  O36  1  0.21980000  0.50320000  0.81350000  1.0 -0.7836692904
O  O37  1  0.00320000  0.71980000  0.31350000  1.0 -0.7836692904
O  O38  1  0.99680000  0.28020000  0.31350000  1.0 -0.7836692904
O  O39  1  0.71980000  0.00320000  0.68650000  1.0 -0.7836692904
O  O40  1  0.28020000  0.99680000  0.68650000  1.0 -0.7836692904
O  O41  1  0.35310000  0.85470000  0.24050000  1.0 -0.7658494537
O  O42  1  0.64690000  0.14530000  0.24050000  1.0 -0.7658494537
O  O43  1  0.85470000  0.35310000  0.75950000  1.0 -0.7658494537
O  O44  1  0.14530000  0.64690000  0.75950000  1.0 -0.7658494537
O  O45  1  0.14690000  0.64530000  0.25950000  1.0 -0.7658494537
O  O46  1  0.85310000  0.35470000  0.25950000  1.0 -0.7658494537
O  O47  1  0.64530000  0.14690000  0.74050000  1.0 -0.7658494537
O  O48  1  0.35470000  0.85310000  0.74050000  1.0 -0.7658494537
O  O49  1  0.37750000  0.80370000  0.01280000  1.0 -0.8399664436
O  O50  1  0.62250000  0.19630000  0.01280000  1.0 -0.8399664436
O  O51  1  0.80370000  0.37750000  0.98720000  1.0 -0.8399664436
O  O52  1  0.19630000  0.62250000  0.98720000  1.0 -0.8399664436
O  O53  1  0.12250000  0.69630000  0.48720000  1.0 -0.8399664436
O  O54  1  0.87750000  0.30370000  0.48720000  1.0 -0.8399664436
O  O55  1  0.69630000  0.12250000  0.51280000  1.0 -0.8399664436
O  O56  1  0.30370000  0.87750000  0.51280000  1.0 -0.8399664436
O  O57  1  0.62530000  0.81190000  0.69920000  1.0 -0.7874152636
O  O58  1  0.37470000  0.18810000  0.69920000  1.0 -0.7874152636
O  O59  1  0.81190000  0.62530000  0.30080000  1.0 -0.7874152636
O  O60  1  0.18810000  0.37470000  0.30080000  1.0 -0.7874152636
O  O61  1  0.87470000  0.68810000  0.80080000  1.0 -0.7874152636
O  O62  1  0.12530000  0.31190000  0.80080000  1.0 -0.7874152636
O  O63  1  0.68810000  0.87470000  0.19920000  1.0 -0.7874152636
O  O64  1  0.31190000  0.12530000  0.19920000  1.0 -0.7874152636
