# DDEC6 charges by PACMAN v1.1 (https://github.com/mtap-research/PACMAN-charge/)
data_BEJZAS_ASR_pacman
_symmetry_space_group_name_H-M   'P 1'
_cell_length_a   10.42000000
_cell_length_b   10.45230000
_cell_length_c   11.62210000
_cell_angle_alpha   90.00000000
_cell_angle_beta   90.00000000
_cell_angle_gamma   90.00000000
_symmetry_Int_Tables_number   1
_chemical_formula_structural   ZnP2H3O8
_chemical_formula_sum   'Zn4 P8 H12 O32'
_cell_volume   1265.79738215
_cell_formula_units_Z   4
loop_
 _symmetry_equiv_pos_site_id
 _symmetry_equiv_pos_as_xyz
  1  'x, y, z'
loop_
 _atom_site_type_symbol
 _atom_site_label
 _atom_site_symmetry_multiplicity
 _atom_site_fract_x
 _atom_site_fract_y
 _atom_site_fract_z
 _atom_site_occupancy
 _atom_site_charge
Zn  Zn1  1  0.55313000  0.20064000  0.11876000  1.0 1.1604452484
Zn  Zn2  1  0.05313000  0.29936000  0.88124000  1.0 1.1604452484
Zn  Zn3  1  0.44687000  0.70064000  0.38124000  1.0 1.1604452484
Zn  Zn4  1  0.94687000  0.79936000  0.61876000  1.0 1.1604452484
P  P1  1  0.31230000  0.16010000  0.95510000  1.0 1.4711673015
P  P2  1  0.81230000  0.33990000  0.04490000  1.0 1.4711673015
P  P3  1  0.68770000  0.66010000  0.54490000  1.0 1.4711673015
P  P4  1  0.18770000  0.83990000  0.45510000  1.0 1.4711673015
P  P5  1  0.48680000  0.92760000  0.19940000  1.0 1.4383266522
P  P6  1  0.98680000  0.57240000  0.80060000  1.0 1.4339120143
P  P7  1  0.51320000  0.42760000  0.30060000  1.0 1.4383266522
P  P8  1  0.01320000  0.07240000  0.69940000  1.0 1.4383266522
H  H1  1  0.26300000  0.02400000  0.08700000  1.0 0.4416163542
H  H2  1  0.76300000  0.47600000  0.91300000  1.0 0.4416163542
H  H3  1  0.73700000  0.52400000  0.41300000  1.0 0.4416163542
H  H4  1  0.23700000  0.97600000  0.58700000  1.0 0.4416163542
H  H5  1  0.23600000  0.00500000  0.84000000  1.0 0.4675052294
H  H6  1  0.73600000  0.49500000  0.16000000  1.0 0.4675052294
H  H7  1  0.76400000  0.50500000  0.66000000  1.0 0.4675052294
H  H8  1  0.26400000  0.99500000  0.34000000  1.0 0.4675052294
H  H9  1  0.44700000  0.85100000  0.02800000  1.0 0.4576500707
H  H10  1  0.94700000  0.64900000  0.97200000  1.0 0.4576500707
H  H11  1  0.55300000  0.35100000  0.47200000  1.0 0.4576500707
H  H12  1  0.05300000  0.14900000  0.52800000  1.0 0.4576500707
O  O1  1  0.56060000  0.04890000  0.20490000  1.0 -0.7192201412
O  O2  1  0.06060000  0.45110000  0.79510000  1.0 -0.7192201412
O  O3  1  0.43940000  0.54890000  0.29510000  1.0 -0.7192201412
O  O4  1  0.93940000  0.95110000  0.70490000  1.0 -0.7192201412
O  O5  1  0.52140000  0.83710000  0.29440000  1.0 -0.7317395604
O  O6  1  0.02140000  0.66290000  0.70560000  1.0 -0.7317395604
O  O7  1  0.47860000  0.33710000  0.20560000  1.0 -0.7317395604
O  O8  1  0.97860000  0.16290000  0.79440000  1.0 -0.7317395604
O  O9  1  0.24480000  0.11460000  0.06170000  1.0 -0.6320202834
O  O10  1  0.74480000  0.38540000  0.93830000  1.0 -0.6320202834
O  O11  1  0.75520000  0.61460000  0.43830000  1.0 -0.6320202834
O  O12  1  0.25520000  0.88540000  0.56170000  1.0 -0.6320202834
O  O13  1  0.45470000  0.18970000  0.98010000  1.0 -0.7317395604
O  O14  1  0.95470000  0.31030000  0.01990000  1.0 -0.7317395604
O  O15  1  0.54530000  0.68970000  0.51990000  1.0 -0.7317395604
O  O16  1  0.04530000  0.81030000  0.48010000  1.0 -0.7317395604
O  O17  1  0.23710000  0.27340000  0.91160000  1.0 -0.6746880061
O  O18  1  0.73710000  0.22660000  0.08840000  1.0 -0.6775110311
O  O19  1  0.76290000  0.77340000  0.58840000  1.0 -0.6775110311
O  O20  1  0.26290000  0.72660000  0.41160000  1.0 -0.6746880061
O  O21  1  0.34550000  0.95520000  0.19920000  1.0 -0.6907828695
O  O22  1  0.84550000  0.54480000  0.80080000  1.0 -0.6907828695
O  O23  1  0.65450000  0.45520000  0.30080000  1.0 -0.6907828695
O  O24  1  0.15450000  0.04480000  0.69920000  1.0 -0.6907828695
O  O25  1  0.51760000  0.86530000  0.08390000  1.0 -0.637986903
O  O26  1  0.01760000  0.63470000  0.91610000  1.0 -0.637986903
O  O27  1  0.48240000  0.36530000  0.41610000  1.0 -0.6320202834
O  O28  1  0.98240000  0.13470000  0.58390000  1.0 -0.637986903
O  O29  1  0.31200000  0.05360000  0.86490000  1.0 -0.6175100154
O  O30  1  0.81200000  0.44640000  0.13510000  1.0 -0.6175100154
O  O31  1  0.68800000  0.55360000  0.63510000  1.0 -0.6175100154
O  O32  1  0.18800000  0.94640000  0.36490000  1.0 -0.6175100154
