# DDEC6 charges by PACMAN v1.1 (https://github.com/mtap-research/PACMAN-charge/)
data_BEKYOG01_ASR_pacman
_symmetry_space_group_name_H-M   'P 1'
_cell_length_a   11.73380000
_cell_length_b   11.73380000
_cell_length_c   12.31300000
_cell_angle_alpha   72.01620000
_cell_angle_beta   107.98400000
_cell_angle_gamma   103.26800000
_symmetry_Int_Tables_number   1
_chemical_formula_structural   Cr2Ag11(C6O13)2
_chemical_formula_sum   'Cr4 Ag22 C24 O52'
_cell_volume   1516.71140008
_cell_formula_units_Z   2
loop_
 _symmetry_equiv_pos_site_id
 _symmetry_equiv_pos_as_xyz
  1  'x, y, z'
loop_
 _atom_site_type_symbol
 _atom_site_label
 _atom_site_symmetry_multiplicity
 _atom_site_fract_x
 _atom_site_fract_y
 _atom_site_fract_z
 _atom_site_occupancy
 _atom_site_charge
Cr  Cr1  1  0.21400000  0.79564000  0.52536000  1.0 1.4211412073
Cr  Cr2  1  0.79564000  0.21400000  0.97464000  1.0 1.4211412073
Cr  Cr3  1  0.78600000  0.20436000  0.47464000  1.0 1.4211412073
Cr  Cr4  1  0.20436000  0.78600000  0.02536000  1.0 1.4211412073
Ag  Ag1  1  0.04720000  0.04720000  0.25000000  1.0 0.5723170043
Ag  Ag2  1  0.95280000  0.95280000  0.75000000  1.0 0.5723170043
Ag  Ag3  1  0.55662000  0.05048000  0.25456000  1.0 0.602847457
Ag  Ag4  1  0.05048000  0.55662000  0.24544000  1.0 0.602847457
Ag  Ag5  1  0.44338000  0.94952000  0.74544000  1.0 0.602847457
Ag  Ag6  1  0.94952000  0.44338000  0.75456000  1.0 0.602847457
Ag  Ag7  1  0.73219000  0.88833000  0.13001000  1.0 0.5723170043
Ag  Ag8  1  0.88833000  0.73219000  0.36999000  1.0 0.5723170043
Ag  Ag9  1  0.26781000  0.11167000  0.86999000  1.0 0.5723170043
Ag  Ag10  1  0.11167000  0.26781000  0.63001000  1.0 0.5723170043
Ag  Ag11  1  0.42250000  0.27190000  0.30090000  1.0 0.0224084828
Ag  Ag12  1  0.27190000  0.42250000  0.19910000  1.0 0.0224084828
Ag  Ag13  1  0.57750000  0.72810000  0.69910000  1.0 0.0224084828
Ag  Ag14  1  0.72810000  0.57750000  0.80090000  1.0 0.0224084828
Ag  Ag15  1  0.21600000  0.29840000  0.06750000  1.0 0.1575873719
Ag  Ag16  1  0.29840000  0.21600000  0.43250000  1.0 0.1575873719
Ag  Ag17  1  0.78400000  0.70160000  0.93250000  1.0 0.1575873719
Ag  Ag18  1  0.70160000  0.78400000  0.56750000  1.0 0.1575873719
Ag  Ag19  1  0.31160000  0.22580000  0.12460000  1.0 0.0946469457
Ag  Ag20  1  0.22580000  0.31160000  0.37540000  1.0 0.0946469457
Ag  Ag21  1  0.68840000  0.77420000  0.87540000  1.0 0.0946469457
Ag  Ag22  1  0.77420000  0.68840000  0.62460000  1.0 0.0946469457
C  C1  1  0.33270000  0.95650000  0.36740000  1.0 0.4648776055
C  C2  1  0.95650000  0.33270000  0.13260000  1.0 0.4648776055
C  C3  1  0.66730000  0.04350000  0.63260000  1.0 0.4648776055
C  C4  1  0.04350000  0.66730000  0.86740000  1.0 0.4648776055
C  C5  1  0.42710000  0.87810000  0.45720000  1.0 0.4696066306
C  C6  1  0.87810000  0.42710000  0.04280000  1.0 0.4696066306
C  C7  1  0.57290000  0.12190000  0.54280000  1.0 0.4696066306
C  C8  1  0.12190000  0.57290000  0.95720000  1.0 0.4696066306
C  C9  1  0.17040000  0.55220000  0.62930000  1.0 0.4696066306
C  C10  1  0.55220000  0.17040000  0.87070000  1.0 0.4696066306
C  C11  1  0.82960000  0.44780000  0.37070000  1.0 0.4696066306
C  C12  1  0.44780000  0.82960000  0.12930000  1.0 0.4696066306
C  C13  1  0.56480000  0.14200000  0.00270000  1.0 0.4696066306
C  C14  1  0.14200000  0.56480000  0.49730000  1.0 0.4696066306
C  C15  1  0.43520000  0.85800000  0.99730000  1.0 0.4696066306
C  C16  1  0.85800000  0.43520000  0.50270000  1.0 0.4696066306
C  C17  1  0.87280000  0.03520000  0.92450000  1.0 0.4696066306
C  C18  1  0.03520000  0.87280000  0.57550000  1.0 0.4696066306
C  C19  1  0.12720000  0.96480000  0.07550000  1.0 0.4696066306
C  C20  1  0.96480000  0.12720000  0.42450000  1.0 0.4696066306
C  C21  1  0.84460000  0.06640000  0.35620000  1.0 0.489183575
C  C22  1  0.06640000  0.84460000  0.14380000  1.0 0.489183575
C  C23  1  0.15540000  0.93360000  0.64380000  1.0 0.489183575
C  C24  1  0.93360000  0.15540000  0.85620000  1.0 0.489183575
O  O1  1  0.22750000  0.93230000  0.38620000  1.0 -0.5319464454
O  O2  1  0.93230000  0.22750000  0.11380000  1.0 -0.5319464454
O  O3  1  0.77250000  0.06770000  0.61380000  1.0 -0.5319464454
O  O4  1  0.06770000  0.77250000  0.88620000  1.0 -0.5319464454
O  O5  1  0.38540000  0.80100000  0.53740000  1.0 -0.499729663
O  O6  1  0.80100000  0.38540000  0.96260000  1.0 -0.499729663
O  O7  1  0.61460000  0.19900000  0.46260000  1.0 -0.499729663
O  O8  1  0.19900000  0.61460000  0.03740000  1.0 -0.499729663
O  O9  1  0.35960000  0.03780000  0.28380000  1.0 -0.4095835585
O  O10  1  0.03780000  0.35960000  0.21620000  1.0 -0.4095835585
O  O11  1  0.64040000  0.96220000  0.71620000  1.0 -0.4095835585
O  O12  1  0.96220000  0.64040000  0.78380000  1.0 -0.4095835585
O  O13  1  0.53010000  0.89410000  0.44760000  1.0 -0.4095835585
O  O14  1  0.89410000  0.53010000  0.05240000  1.0 -0.4095835585
O  O15  1  0.46990000  0.10590000  0.55240000  1.0 -0.4095835585
O  O16  1  0.10590000  0.46990000  0.94760000  1.0 -0.4095835585
O  O17  1  0.20840000  0.65220000  0.65980000  1.0 -0.499729663
O  O18  1  0.65220000  0.20840000  0.84020000  1.0 -0.499729663
O  O19  1  0.79160000  0.34780000  0.34020000  1.0 -0.499729663
O  O20  1  0.34780000  0.79160000  0.15980000  1.0 -0.499729663
O  O21  1  0.67330000  0.15830000  0.06550000  1.0 -0.5319464454
O  O22  1  0.15830000  0.67330000  0.43450000  1.0 -0.5319464454
O  O23  1  0.32670000  0.84170000  0.93450000  1.0 -0.5319464454
O  O24  1  0.84170000  0.32670000  0.56550000  1.0 -0.5319464454
O  O25  1  0.55100000  0.84120000  0.20030000  1.0 -0.4095835585
O  O26  1  0.84120000  0.55100000  0.29970000  1.0 -0.4095835585
O  O27  1  0.44900000  0.15880000  0.79970000  1.0 -0.4095835585
O  O28  1  0.15880000  0.44900000  0.70030000  1.0 -0.4095835585
O  O29  1  0.52580000  0.89660000  0.95770000  1.0 -0.4398014395
O  O30  1  0.89660000  0.52580000  0.54230000  1.0 -0.4398014395
O  O31  1  0.47420000  0.10340000  0.04230000  1.0 -0.4398014395
O  O32  1  0.10340000  0.47420000  0.45770000  1.0 -0.4398014395
O  O33  1  0.81120000  0.04660000  0.98980000  1.0 -0.5484315156
O  O34  1  0.04660000  0.81120000  0.51020000  1.0 -0.5484315156
O  O35  1  0.18880000  0.95340000  0.01020000  1.0 -0.5484315156
O  O36  1  0.95340000  0.18880000  0.48980000  1.0 -0.5484315156
O  O37  1  0.75120000  0.09280000  0.37140000  1.0 -0.5319464454
O  O38  1  0.09280000  0.75120000  0.12860000  1.0 -0.5319464454
O  O39  1  0.24880000  0.90720000  0.62860000  1.0 -0.5319464454
O  O40  1  0.90720000  0.24880000  0.87140000  1.0 -0.5319464454
O  O41  1  0.06470000  0.11330000  0.41870000  1.0 -0.434165418
O  O42  1  0.11330000  0.06470000  0.08130000  1.0 -0.434165418
O  O43  1  0.93530000  0.88670000  0.58130000  1.0 -0.434165418
O  O44  1  0.88670000  0.93530000  0.91870000  1.0 -0.434165418
O  O45  1  0.84250000  0.99890000  0.29850000  1.0 -0.4398014395
O  O46  1  0.99890000  0.84250000  0.20150000  1.0 -0.4398014395
O  O47  1  0.15750000  0.00110000  0.70150000  1.0 -0.4398014395
O  O48  1  0.00110000  0.15750000  0.79850000  1.0 -0.4398014395
O  O49  1  0.69740000  0.68860000  0.10630000  1.0 -0.3009787201
O  O50  1  0.68860000  0.69740000  0.39370000  1.0 -0.3104459344
O  O51  1  0.30260000  0.31140000  0.89370000  1.0 -0.3009787201
O  O52  1  0.31140000  0.30260000  0.60630000  1.0 -0.3009787201
