# DDEC6 charges by PACMAN v1.1 (https://github.com/mtap-research/PACMAN-charge/)
data_BENZOL_FSR_pacman
_symmetry_space_group_name_H-M   'P 1'
_cell_length_a   9.78100000
_cell_length_b   11.00700000
_cell_length_c   11.38200000
_cell_angle_alpha   80.46000000
_cell_angle_beta   82.42000000
_cell_angle_gamma   81.98000000
_symmetry_Int_Tables_number   1
_chemical_formula_structural   SrH12C18(N2O)3
_chemical_formula_sum   'Sr2 H24 C36 N12 O6'
_cell_volume   1189.16559505
_cell_formula_units_Z   2
loop_
 _symmetry_equiv_pos_site_id
 _symmetry_equiv_pos_as_xyz
  1  'x, y, z'
loop_
 _atom_site_type_symbol
 _atom_site_label
 _atom_site_symmetry_multiplicity
 _atom_site_fract_x
 _atom_site_fract_y
 _atom_site_fract_z
 _atom_site_occupancy
 _atom_site_charge
Sr  Sr1  1  0.92863000  0.33728000  0.99727000  1.0 1.3944414758
Sr  Sr2  1  0.07137000  0.66272000  0.00273000  1.0 1.3944414758
H  H1  1  0.26810000  0.37450000  0.66160000  1.0 0.1258741968
H  H2  1  0.73190000  0.62550000  0.33840000  1.0 0.1258741968
H  H3  1  0.28940000  0.33590000  0.47050000  1.0 0.119489546
H  H4  1  0.71060000  0.66410000  0.52950000  1.0 0.119489546
H  H5  1  0.70710000  0.32160000  0.45380000  1.0 0.1130117818
H  H6  1  0.29290000  0.67840000  0.54620000  1.0 0.1130117818
H  H7  1  0.68620000  0.35740000  0.64510000  1.0 0.119489546
H  H8  1  0.31380000  0.64260000  0.35490000  1.0 0.119489546
H  H9  1  0.99140000  0.16890000  0.34770000  1.0 0.1258741968
H  H10  1  0.00860000  0.83110000  0.65230000  1.0 0.1258741968
H  H11  1  0.00210000  0.02650000  0.69810000  1.0 0.119489546
H  H12  1  0.99790000  0.97350000  0.30190000  1.0 0.119489546
H  H13  1  0.99380000  0.54960000  0.79590000  1.0 0.356993606
H  H14  1  0.00620000  0.45040000  0.20410000  1.0 0.356993606
H  H15  1  0.86540000  0.58930000  0.85030000  1.0 0.339032551
H  H16  1  0.13460000  0.41070000  0.14970000  1.0 0.339032551
H  H17  1  0.81430000  0.12240000  0.94640000  1.0 0.3190157069
H  H18  1  0.18570000  0.87760000  0.05360000  1.0 0.3190157069
H  H19  1  0.88380000  0.06170000  0.03830000  1.0 0.3190157069
H  H20  1  0.11620000  0.93830000  0.96170000  1.0 0.3190157069
H  H21  1  0.15510000  0.11660000  0.06250000  1.0 0.3190157069
H  H22  1  0.84490000  0.88340000  0.93750000  1.0 0.3190157069
H  H23  1  0.17370000  0.21750000  0.11210000  1.0 0.339032551
H  H24  1  0.82630000  0.78250000  0.88790000  1.0 0.339032551
C  C1  1  0.57960000  0.39310000  0.85820000  1.0 0.2912821773
C  C2  1  0.42040000  0.60690000  0.14180000  1.0 0.2912821773
C  C3  1  0.46130000  0.39650000  0.79700000  1.0 -0.159839487
C  C4  1  0.53870000  0.60350000  0.20300000  1.0 -0.159839487
C  C5  1  0.32920000  0.41610000  0.86290000  1.0 0.2912821773
C  C6  1  0.67080000  0.58390000  0.13710000  1.0 0.2912821773
C  C7  1  0.47530000  0.37220000  0.67730000  1.0 0.1130117818
C  C8  1  0.52470000  0.62780000  0.32270000  1.0 0.1130117818
C  C9  1  0.35610000  0.36390000  0.61960000  1.0 -0.1422997828
C  C10  1  0.64390000  0.63610000  0.38040000  1.0 -0.1422997828
C  C11  1  0.36890000  0.34100000  0.50530000  1.0 -0.1492452717
C  C12  1  0.63110000  0.65900000  0.49470000  1.0 -0.1492452717
C  C13  1  0.50070000  0.32450000  0.43720000  1.0 0.1130117818
C  C14  1  0.49930000  0.67550000  0.56280000  1.0 0.1130117818
C  C15  1  0.61900000  0.33210000  0.49560000  1.0 -0.1492452717
C  C16  1  0.38100000  0.66790000  0.50440000  1.0 -0.1492452717
C  C17  1  0.60650000  0.35410000  0.60990000  1.0 -0.1422997828
C  C18  1  0.39350000  0.64590000  0.39010000  1.0 -0.1422997828
C  C19  1  0.51620000  0.30120000  0.31720000  1.0 -0.159839487
C  C20  1  0.48380000  0.69880000  0.68280000  1.0 -0.159839487
C  C21  1  0.40030000  0.29240000  0.25880000  1.0 0.2685816788
C  C22  1  0.59970000  0.70760000  0.74120000  1.0 0.2685816788
C  C23  1  0.64830000  0.28720000  0.24980000  1.0 0.2912821773
C  C24  1  0.35170000  0.71280000  0.75020000  1.0 0.2912821773
C  C25  1  0.98020000  0.34690000  0.46430000  1.0 0.2583500051
C  C26  1  0.01980000  0.65310000  0.53570000  1.0 0.2583500051
C  C27  1  0.98870000  0.24280000  0.55610000  1.0 -0.1492452717
C  C28  1  0.01130000  0.75720000  0.44390000  1.0 -0.1492452717
C  C29  1  0.98760000  0.26900000  0.67420000  1.0 0.3044504725
C  C30  1  0.01240000  0.73100000  0.32580000  1.0 0.3044504725
C  C31  1  0.99460000  0.10130000  0.40880000  1.0 -0.1422997828
C  C32  1  0.00540000  0.89870000  0.59120000  1.0 -0.1422997828
C  C33  1  0.99460000  0.12180000  0.52850000  1.0 0.1130117818
C  C34  1  0.00540000  0.87820000  0.47150000  1.0 0.1130117818
C  C35  1  0.00100000  0.01600000  0.61880000  1.0 -0.1422997828
C  C36  1  0.99900000  0.98400000  0.38120000  1.0 -0.1422997828
N  N1  1  0.67690000  0.39120000  0.90510000  1.0 -0.4514227606
N  N2  1  0.32310000  0.60880000  0.09490000  1.0 -0.4514227606
N  N3  1  0.22060000  0.43410000  0.91260000  1.0 -0.4194221593
N  N4  1  0.77940000  0.56590000  0.08740000  1.0 -0.4194221593
N  N5  1  0.30460000  0.28590000  0.21330000  1.0 -0.3919532395
N  N6  1  0.69540000  0.71410000  0.78670000  1.0 -0.3919532395
N  N7  1  0.75550000  0.27810000  0.19620000  1.0 -0.4674084282
N  N8  1  0.24450000  0.72190000  0.80380000  1.0 -0.4674084282
N  N9  1  0.98600000  0.29230000  0.76870000  1.0 -0.4514227606
N  N10  1  0.01400000  0.70770000  0.23130000  1.0 -0.4514227606
N  N11  1  0.97200000  0.42640000  0.38650000  1.0 -0.3779786623
N  N12  1  0.02800000  0.57360000  0.61350000  1.0 -0.3779786623
O  O1  1  0.94559000  0.55238000  0.86221000  1.0 -0.7886028386
O  O2  1  0.05441000  0.44762000  0.13779000  1.0 -0.7886028386
O  O3  1  0.88340000  0.12114000  0.98290000  1.0 -0.7278827525
O  O4  1  0.11660000  0.87886000  0.01710000  1.0 -0.7278827525
O  O5  1  0.11360000  0.18110000  0.09020000  1.0 -0.74133263
O  O6  1  0.88640000  0.81890000  0.90980000  1.0 -0.74133263
