# DDEC6 charges by PACMAN v1.1 (https://github.com/mtap-research/PACMAN-charge/)
data_BEPVEZ_ASR_pacman
_symmetry_space_group_name_H-M   'P 1'
_cell_length_a   11.45070000
_cell_length_b   11.60260000
_cell_length_c   13.20250000
_cell_angle_alpha   65.36000000
_cell_angle_beta   71.36800000
_cell_angle_gamma   71.46100000
_symmetry_Int_Tables_number   1
_chemical_formula_structural   Cu3H21(C5N2)4
_chemical_formula_sum   'Cu6 H42 C40 N16'
_cell_volume   1475.61702967
_cell_formula_units_Z   2
loop_
 _symmetry_equiv_pos_site_id
 _symmetry_equiv_pos_as_xyz
  1  'x, y, z'
loop_
 _atom_site_type_symbol
 _atom_site_label
 _atom_site_symmetry_multiplicity
 _atom_site_fract_x
 _atom_site_fract_y
 _atom_site_fract_z
 _atom_site_occupancy
 _atom_site_charge
Cu  Cu1  1  0.61797000  0.24402000  0.08878000  1.0 0.238246047
Cu  Cu2  1  0.38203000  0.75598000  0.91122000  1.0 0.238246047
Cu  Cu3  1  0.46381000  0.13632000  0.50565000  1.0 0.238246047
Cu  Cu4  1  0.53619000  0.86368000  0.49435000  1.0 0.238246047
Cu  Cu5  1  0.69019000  0.04833000  0.80240000  1.0 0.238246047
Cu  Cu6  1  0.30981000  0.95167000  0.19760000  1.0 0.238246047
H  H1  1  0.15070000  0.04780000  0.94290000  1.0 0.1513713682
H  H2  1  0.84930000  0.95220000  0.05710000  1.0 0.1513713682
H  H3  1  0.01960000  0.12780000  0.91300000  1.0 0.1513713682
H  H4  1  0.98040000  0.87220000  0.08700000  1.0 0.1513713682
H  H5  1  0.12630000  0.19960000  0.88800000  1.0 0.1513713682
H  H6  1  0.87370000  0.80040000  0.11200000  1.0 0.1513713682
H  H7  1  0.32480000  0.14270000  0.73530000  1.0 0.282461371
H  H8  1  0.67520000  0.85730000  0.26470000  1.0 0.282461371
H  H9  1  0.58800000  0.43150000  0.20160000  1.0 0.2856686075
H  H10  1  0.41200000  0.56850000  0.79840000  1.0 0.2856686075
H  H11  1  0.20040000  0.14540000  0.43860000  1.0 0.1513713682
H  H12  1  0.79960000  0.85460000  0.56140000  1.0 0.1513713682
H  H13  1  0.09340000  0.06930000  0.51540000  1.0 0.1399640699
H  H14  1  0.90660000  0.93070000  0.48460000  1.0 0.1399640699
H  H15  1  0.23490000  0.99490000  0.50130000  1.0 0.1572754045
H  H16  1  0.76510000  0.00510000  0.49870000  1.0 0.1572754045
H  H17  1  0.91550000  0.10730000  0.79490000  1.0 0.1399640699
H  H18  1  0.08450000  0.89270000  0.20510000  1.0 0.1399640699
H  H19  1  0.93440000  0.09860000  0.67550000  1.0 0.1347115596
H  H20  1  0.06560000  0.90140000  0.32450000  1.0 0.1347115596
H  H21  1  0.14550000  0.84010000  0.80900000  1.0 0.1399640699
H  H22  1  0.85450000  0.15990000  0.19100000  1.0 0.1399640699
H  H23  1  0.11880000  0.62970000  0.89610000  1.0 0.1163700183
H  H24  1  0.88120000  0.37030000  0.10390000  1.0 0.1163700183
H  H25  1  0.92140000  0.58800000  0.93740000  1.0 0.1399640699
H  H26  1  0.07860000  0.41200000  0.06260000  1.0 0.1399640699
H  H27  1  0.68760000  0.77220000  0.81860000  1.0 0.1513713682
H  H28  1  0.31240000  0.22780000  0.18140000  1.0 0.1513713682
H  H29  1  0.64190000  0.82580000  0.91870000  1.0 0.1347115596
H  H30  1  0.35810000  0.17420000  0.08130000  1.0 0.1347115596
H  H31  1  0.52360000  0.65790000  0.22230000  1.0 0.1572754045
H  H32  1  0.47640000  0.34210000  0.77770000  1.0 0.1572754045
H  H33  1  0.59350000  0.76270000  0.12290000  1.0 0.1513713682
H  H34  1  0.40650000  0.23730000  0.87710000  1.0 0.1513713682
H  H35  1  0.66850000  0.64340000  0.20700000  1.0 0.1399640699
H  H36  1  0.33150000  0.35660000  0.79300000  1.0 0.1399640699
H  H37  1  0.81350000  0.49910000  0.81200000  1.0 0.1513713682
H  H38  1  0.18650000  0.50090000  0.18800000  1.0 0.1513713682
H  H39  1  0.67990000  0.57240000  0.78510000  1.0 0.1513713682
H  H40  1  0.32010000  0.42760000  0.21490000  1.0 0.1513713682
H  H41  1  0.70850000  0.42140000  0.84710000  1.0 0.1513713682
H  H42  1  0.29150000  0.57860000  0.15290000  1.0 0.1513713682
C  C1  1  0.10890000  0.12300000  0.88970000  1.0 -0.4837825488
C  C2  1  0.89110000  0.87700000  0.11030000  1.0 -0.4837825488
C  C3  1  0.15590000  0.11360000  0.77370000  1.0 0.1861174141
C  C4  1  0.84410000  0.88640000  0.22630000  1.0 0.1861174141
C  C5  1  0.09890000  0.09100000  0.70870000  1.0 -0.090749115
C  C6  1  0.90110000  0.90900000  0.29130000  1.0 -0.090749115
C  C7  1  0.18780000  0.09510000  0.60610000  1.0 0.206878755
C  C8  1  0.81220000  0.90490000  0.39390000  1.0 0.206878755
C  C9  1  0.17830000  0.07440000  0.50670000  1.0 -0.4579321186
C  C10  1  0.82170000  0.92560000  0.49330000  1.0 -0.4579321186
C  C11  1  0.96930000  0.06260000  0.74300000  1.0 -0.2842228155
C  C12  1  0.03070000  0.93740000  0.25700000  1.0 -0.2888100068
C  C13  1  0.96400000  0.92250000  0.79880000  1.0 0.2546011766
C  C14  1  0.03600000  0.07750000  0.20120000  1.0 0.2551799973
C  C15  1  0.06620000  0.82250000  0.82590000  1.0 -0.175243337
C  C16  1  0.93380000  0.17750000  0.17410000  1.0 -0.175243337
C  C17  1  0.05040000  0.69770000  0.87760000  1.0 -0.0189303582
C  C18  1  0.94960000  0.30230000  0.12240000  1.0 -0.0189303582
C  C19  1  0.93320000  0.67280000  0.90210000  1.0 -0.2060096229
C  C20  1  0.06680000  0.32720000  0.09790000  1.0 -0.2060096229
C  C21  1  0.83320000  0.77510000  0.87360000  1.0 0.2692473491
C  C22  1  0.16680000  0.22490000  0.12640000  1.0 0.2692473491
C  C23  1  0.70170000  0.75860000  0.89170000  1.0 -0.2888100068
C  C24  1  0.29830000  0.24140000  0.10830000  1.0 -0.2888100068
C  C25  1  0.60130000  0.67190000  0.16760000  1.0 -0.4710777517
C  C26  1  0.39870000  0.32810000  0.83240000  1.0 -0.4710777517
C  C27  1  0.62990000  0.59630000  0.09080000  1.0 0.1838334423
C  C28  1  0.37010000  0.40370000  0.90920000  1.0 0.1838334423
C  C29  1  0.67420000  0.62870000  0.97460000  1.0 -0.1061385835
C  C30  1  0.32580000  0.37130000  0.02540000  1.0 -0.1061385835
C  C31  1  0.68130000  0.51920000  0.95130000  1.0 0.1838334423
C  C32  1  0.31870000  0.48080000  0.04870000  1.0 0.1838334423
C  C33  1  0.72460000  0.50150000  0.83890000  1.0 -0.4710777517
C  C34  1  0.27540000  0.49850000  0.16110000  1.0 -0.4710777517
C  C35  1  0.51920000  0.17970000  0.34780000  1.0 -0.0975213221
C  C36  1  0.48080000  0.82030000  0.65220000  1.0 -0.0975213221
C  C37  1  0.60060000  0.09670000  0.69020000  1.0 -0.1175288225
C  C38  1  0.39940000  0.90330000  0.30980000  1.0 -0.1175288225
C  C39  1  0.65130000  0.15740000  0.98910000  1.0 -0.0975213221
C  C40  1  0.34870000  0.84260000  0.01090000  1.0 -0.0975213221
N  N1  1  0.29380000  0.11670000  0.60890000  1.0 -0.2060096229
N  N2  1  0.70620000  0.88330000  0.39110000  1.0 -0.2060096229
N  N3  1  0.27070000  0.12790000  0.71220000  1.0 -0.1401617865
N  N4  1  0.72930000  0.87210000  0.28780000  1.0 -0.1401617865
N  N5  1  0.84830000  0.89730000  0.82260000  1.0 -0.2888100068
N  N6  1  0.15170000  0.10270000  0.17740000  1.0 -0.2888100068
N  N7  1  0.61450000  0.47390000  0.13070000  1.0 -0.1463210921
N  N8  1  0.38550000  0.52610000  0.86930000  1.0 -0.1463210921
N  N9  1  0.64580000  0.42430000  0.04610000  1.0 -0.2206854637
N  N10  1  0.35420000  0.57570000  0.95390000  1.0 -0.2206854637
N  N11  1  0.55490000  0.20730000  0.25100000  1.0 -0.3302101309
N  N12  1  0.44510000  0.79270000  0.74900000  1.0 -0.3302101309
N  N13  1  0.54620000  0.12270000  0.62140000  1.0 -0.2989284138
N  N14  1  0.45380000  0.87730000  0.37860000  1.0 -0.2989284138
N  N15  1  0.66810000  0.11000000  0.92310000  1.0 -0.3302101309
N  N16  1  0.33190000  0.89000000  0.07690000  1.0 -0.3302101309
