# DDEC6 charges by PACMAN v1.1 (https://github.com/mtap-research/PACMAN-charge/)
data_BERZIL_FSR_pacman
_symmetry_space_group_name_H-M   'P 1'
_cell_length_a   19.82440000
_cell_length_b   19.82440000
_cell_length_c   19.82440000
_cell_angle_alpha   126.28800000
_cell_angle_beta   102.62800000
_cell_angle_gamma   100.92600000
_symmetry_Int_Tables_number   1
_chemical_formula_structural   Zr3H24C36(NO5)4
_chemical_formula_sum   'Zr6 H48 C72 N8 O40'
_cell_volume   5601.76226596
_cell_formula_units_Z   2
loop_
 _symmetry_equiv_pos_site_id
 _symmetry_equiv_pos_as_xyz
  1  'x, y, z'
loop_
 _atom_site_type_symbol
 _atom_site_label
 _atom_site_symmetry_multiplicity
 _atom_site_fract_x
 _atom_site_fract_y
 _atom_site_fract_z
 _atom_site_occupancy
 _atom_site_charge
Zr  Zr1  1  0.90287000  0.90287000  0.00000000  1.0 2.4118699674
Zr  Zr2  1  0.09713000  0.09713000  0.00000000  1.0 2.4118699674
Zr  Zr3  1  0.07159000  0.09906000  0.17065000  1.0 2.5282622222
Zr  Zr4  1  0.92841000  0.90094000  0.82935000  1.0 2.5282622222
Zr  Zr5  1  0.07159000  0.90094000  0.97253000  1.0 2.5282622222
Zr  Zr6  1  0.92841000  0.09906000  0.02747000  1.0 2.5282622222
H  H1  1  0.38860000  0.44700000  0.52960000  1.0 0.1329856943
H  H2  1  0.44130000  0.53720000  0.55470000  1.0 0.1329856943
H  H3  1  0.57800000  0.53710000  0.71230000  1.0 0.1472786907
H  H4  1  0.69850000  0.65650000  0.81280000  1.0 0.1592510864
H  H5  1  0.70220000  0.66770000  0.61590000  1.0 0.1592510864
H  H6  1  0.52380000  0.37730000  0.56390000  1.0 0.1058738101
H  H7  1  0.91740000  0.85900000  0.47040000  1.0 0.1329856943
H  H8  1  0.98250000  0.88660000  0.44530000  1.0 0.1329856943
H  H9  1  0.82480000  0.86570000  0.28770000  1.0 0.1472786907
H  H10  1  0.84370000  0.88570000  0.18720000  1.0 0.1592510864
H  H11  1  0.05180000  0.08630000  0.38410000  1.0 0.1592510864
H  H12  1  0.81340000  0.95990000  0.43610000  1.0 0.1058738101
H  H13  1  0.08260000  0.55300000  0.94160000  1.0 0.1329856943
H  H14  1  0.01750000  0.46280000  0.90410000  1.0 0.1329856943
H  H15  1  0.17520000  0.46290000  0.04090000  1.0 0.1472786907
H  H16  1  0.15630000  0.34350000  0.04200000  1.0 0.1592510864
H  H17  1  0.94820000  0.33230000  0.03450000  1.0 0.1592510864
H  H18  1  0.18660000  0.62270000  0.14650000  1.0 0.1058738101
H  H19  1  0.61140000  0.14100000  0.05840000  1.0 0.1329856943
H  H20  1  0.55870000  0.11340000  0.09590000  1.0 0.1329856943
H  H21  1  0.42200000  0.13430000  0.95910000  1.0 0.1472786907
H  H22  1  0.30150000  0.11430000  0.95800000  1.0 0.1592510864
H  H23  1  0.29780000  0.91370000  0.96550000  1.0 0.1592510864
H  H24  1  0.47620000  0.04010000  0.85350000  1.0 0.1049116645
H  H25  1  0.61140000  0.55300000  0.47040000  1.0 0.1329856943
H  H26  1  0.55870000  0.46280000  0.44530000  1.0 0.1329856943
H  H27  1  0.42200000  0.46290000  0.28770000  1.0 0.1472786907
H  H28  1  0.30150000  0.34350000  0.18720000  1.0 0.1592510864
H  H29  1  0.29780000  0.33230000  0.38410000  1.0 0.1592510864
H  H30  1  0.47620000  0.62270000  0.43610000  1.0 0.1058738101
H  H31  1  0.08260000  0.14100000  0.52960000  1.0 0.1329856943
H  H32  1  0.01750000  0.11340000  0.55470000  1.0 0.1329856943
H  H33  1  0.17520000  0.13430000  0.71230000  1.0 0.1472786907
H  H34  1  0.15630000  0.11430000  0.81280000  1.0 0.1592510864
H  H35  1  0.94820000  0.91370000  0.61590000  1.0 0.1592510864
H  H36  1  0.18660000  0.04010000  0.56390000  1.0 0.1049116645
H  H37  1  0.91740000  0.44700000  0.05840000  1.0 0.1329856943
H  H38  1  0.98250000  0.53720000  0.09590000  1.0 0.1329856943
H  H39  1  0.82480000  0.53710000  0.95910000  1.0 0.1472786907
H  H40  1  0.84370000  0.65650000  0.95800000  1.0 0.1592510864
H  H41  1  0.05180000  0.66770000  0.96550000  1.0 0.1592510864
H  H42  1  0.81340000  0.37730000  0.85350000  1.0 0.1049116645
H  H43  1  0.38860000  0.85900000  0.94160000  1.0 0.1329856943
H  H44  1  0.44130000  0.88660000  0.90410000  1.0 0.1329856943
H  H45  1  0.57800000  0.86570000  0.04090000  1.0 0.1472786907
H  H46  1  0.69850000  0.88570000  0.04200000  1.0 0.1592510864
H  H47  1  0.70220000  0.08630000  0.03450000  1.0 0.1592510864
H  H48  1  0.52380000  0.95990000  0.14650000  1.0 0.1058738101
C  C1  1  0.78220000  0.75380000  0.78960000  1.0 0.6603067015
C  C2  1  0.42710000  0.47050000  0.51580000  1.0 -0.1121467035
C  C3  1  0.60320000  0.56360000  0.69260000  1.0 -0.1830337271
C  C4  1  0.67480000  0.63460000  0.75240000  1.0 -0.0470472406
C  C5  1  0.71170000  0.67330000  0.72380000  1.0 -0.0439579803
C  C6  1  0.67710000  0.64120000  0.63550000  1.0 -0.0836587018
C  C7  1  0.60550000  0.57020000  0.57570000  1.0 0.0448355151
C  C8  1  0.56850000  0.53140000  0.60430000  1.0 0.1592510864
C  C9  1  0.48320000  0.38100000  0.53240000  1.0 0.3218405601
C  C10  1  0.96420000  0.99260000  0.21040000  1.0 0.6603067015
C  C11  1  0.95470000  0.91130000  0.48420000  1.0 -0.1121467035
C  C12  1  0.87100000  0.91060000  0.30740000  1.0 -0.1830337271
C  C13  1  0.88220000  0.92240000  0.24760000  1.0 -0.0470472406
C  C14  1  0.94950000  0.98790000  0.27620000  1.0 -0.0439579803
C  C15  1  0.00570000  0.04160000  0.36450000  1.0 -0.0836587018
C  C16  1  0.99450000  0.02980000  0.42430000  1.0 0.0456081424
C  C17  1  0.92710000  0.96420000  0.39570000  1.0 0.1592510864
C  C18  1  0.84860000  0.95080000  0.46760000  1.0 0.3218405601
C  C19  1  0.03580000  0.24620000  0.02840000  1.0 0.6603067015
C  C20  1  0.04530000  0.52950000  0.95660000  1.0 -0.1121467035
C  C21  1  0.12900000  0.43640000  0.03960000  1.0 -0.1830337271
C  C22  1  0.11780000  0.36540000  0.04020000  1.0 -0.0470472406
C  C23  1  0.05050000  0.32670000  0.03840000  1.0 -0.0439579803
C  C24  1  0.99430000  0.35880000  0.03590000  1.0 -0.0851175245
C  C25  1  0.00550000  0.42980000  0.03530000  1.0 0.0448355151
C  C26  1  0.07290000  0.46860000  0.03710000  1.0 0.1592510864
C  C27  1  0.15140000  0.61900000  0.10220000  1.0 0.3218405601
C  C28  1  0.21780000  0.00740000  0.97160000  1.0 0.6603067015
C  C29  1  0.57290000  0.08870000  0.04340000  1.0 -0.1121467035
C  C30  1  0.39680000  0.08940000  0.96040000  1.0 -0.1830337271
C  C31  1  0.32520000  0.07760000  0.95980000  1.0 -0.0470472406
C  C32  1  0.28830000  0.01210000  0.96160000  1.0 -0.0439579803
C  C33  1  0.32290000  0.95840000  0.96410000  1.0 -0.0836587018
C  C34  1  0.39450000  0.97020000  0.96470000  1.0 0.0448355151
C  C35  1  0.43150000  0.03580000  0.96290000  1.0 0.1592510864
C  C36  1  0.51680000  0.04920000  0.89780000  1.0 0.3218405601
C  C37  1  0.21780000  0.24620000  0.21040000  1.0 0.6603067015
C  C38  1  0.57290000  0.52950000  0.48420000  1.0 -0.1121467035
C  C39  1  0.39680000  0.43640000  0.30740000  1.0 -0.1830337271
C  C40  1  0.32520000  0.36540000  0.24760000  1.0 -0.0470472406
C  C41  1  0.28830000  0.32670000  0.27620000  1.0 -0.0439579803
C  C42  1  0.32290000  0.35880000  0.36450000  1.0 -0.0836587018
C  C43  1  0.39450000  0.42980000  0.42430000  1.0 0.0448355151
C  C44  1  0.43150000  0.46860000  0.39570000  1.0 0.1592510864
C  C45  1  0.51680000  0.61900000  0.46760000  1.0 0.3218405601
C  C46  1  0.03580000  0.00740000  0.78960000  1.0 0.6603067015
C  C47  1  0.04530000  0.08870000  0.51580000  1.0 -0.1121467035
C  C48  1  0.12900000  0.08940000  0.69260000  1.0 -0.1830337271
C  C49  1  0.11780000  0.07760000  0.75240000  1.0 -0.0470472406
C  C50  1  0.05050000  0.01210000  0.72380000  1.0 -0.0439579803
C  C51  1  0.99430000  0.95840000  0.63550000  1.0 -0.0836587018
C  C52  1  0.00550000  0.97020000  0.57570000  1.0 0.0448355151
C  C53  1  0.07290000  0.03580000  0.60430000  1.0 0.1592510864
C  C54  1  0.15140000  0.04920000  0.53240000  1.0 0.3218405601
C  C55  1  0.96420000  0.75380000  0.97160000  1.0 0.6603067015
C  C56  1  0.95470000  0.47050000  0.04340000  1.0 -0.1121467035
C  C57  1  0.87100000  0.56360000  0.96040000  1.0 -0.1830337271
C  C58  1  0.88220000  0.63460000  0.95980000  1.0 -0.0470472406
C  C59  1  0.94950000  0.67330000  0.96160000  1.0 -0.0439579803
C  C60  1  0.00570000  0.64120000  0.96410000  1.0 -0.0836587018
C  C61  1  0.99450000  0.57020000  0.96470000  1.0 0.0448355151
C  C62  1  0.92710000  0.53140000  0.96290000  1.0 0.1592510864
C  C63  1  0.84860000  0.38100000  0.89780000  1.0 0.3218405601
C  C64  1  0.78220000  0.99260000  0.02840000  1.0 0.6603067015
C  C65  1  0.42710000  0.91130000  0.95660000  1.0 -0.1121467035
C  C66  1  0.60320000  0.91060000  0.03960000  1.0 -0.1830337271
C  C67  1  0.67480000  0.92240000  0.04020000  1.0 -0.0470472406
C  C68  1  0.71170000  0.98790000  0.03840000  1.0 -0.0439579803
C  C69  1  0.67710000  0.04160000  0.03590000  1.0 -0.0836587018
C  C70  1  0.60550000  0.02980000  0.03530000  1.0 0.0448355151
C  C71  1  0.56850000  0.96420000  0.03710000  1.0 0.1592510864
C  C72  1  0.48320000  0.95080000  0.10220000  1.0 0.3218405601
N  N1  1  0.49510000  0.45550000  0.54280000  1.0 -0.1024576928
N  N2  1  0.91270000  0.95230000  0.45720000  1.0 -0.1024576928
N  N3  1  0.08730000  0.54450000  0.03960000  1.0 -0.1024576928
N  N4  1  0.50490000  0.04770000  0.96040000  1.0 -0.1024576928
N  N5  1  0.50490000  0.54450000  0.45720000  1.0 -0.1024576928
N  N6  1  0.08730000  0.04770000  0.54280000  1.0 -0.1024576928
N  N7  1  0.91270000  0.45550000  0.96040000  1.0 -0.1024576928
N  N8  1  0.49510000  0.95230000  0.03960000  1.0 -0.1024576928
O  O1  1  0.80600000  0.78720000  0.87360000  1.0 -0.571547417
O  O2  1  0.81930000  0.78270000  0.75880000  1.0 -0.5533565125
O  O3  1  0.41860000  0.31460000  0.48120000  1.0 -0.3856378764
O  O4  1  0.91360000  0.93240000  0.12640000  1.0 -0.571547417
O  O5  1  0.02390000  0.06050000  0.24120000  1.0 -0.5533565125
O  O6  1  0.83340000  0.93740000  0.51880000  1.0 -0.3856378764
O  O7  1  0.08640000  0.21280000  0.01880000  1.0 -0.571547417
O  O8  1  0.97610000  0.21730000  0.03660000  1.0 -0.5533565125
O  O9  1  0.16660000  0.68540000  0.10400000  1.0 -0.3856378764
O  O10  1  0.19400000  0.06760000  0.98120000  1.0 -0.571547417
O  O11  1  0.18070000  0.93950000  0.96340000  1.0 -0.5533565125
O  O12  1  0.58140000  0.06260000  0.89600000  1.0 -0.3856378764
O  O13  1  0.19400000  0.21280000  0.12640000  1.0 -0.571547417
O  O14  1  0.18070000  0.21730000  0.24120000  1.0 -0.5551298018
O  O15  1  0.58140000  0.68540000  0.51880000  1.0 -0.3856378764
O  O16  1  0.08640000  0.06760000  0.87360000  1.0 -0.571547417
O  O17  1  0.97610000  0.93950000  0.75880000  1.0 -0.5533565125
O  O18  1  0.16660000  0.06260000  0.48120000  1.0 -0.3856378764
O  O19  1  0.91360000  0.78720000  0.98120000  1.0 -0.571547417
O  O20  1  0.02390000  0.78270000  0.96340000  1.0 -0.5533565125
O  O21  1  0.83340000  0.31460000  0.89600000  1.0 -0.3842342254
O  O22  1  0.80600000  0.93240000  0.01880000  1.0 -0.571547417
O  O23  1  0.81930000  0.06050000  0.03660000  1.0 -0.5533565125
O  O24  1  0.41860000  0.93740000  0.10400000  1.0 -0.3856378764
O  O25  1  0.06990000  0.21720000  0.28710000  1.0 -0.7504179087
O  O26  1  0.15980000  0.09780000  0.25760000  1.0 -0.6317231711
O  O27  1  0.93010000  0.78280000  0.71290000  1.0 -0.7504179087
O  O28  1  0.84020000  0.90220000  0.74240000  1.0 -0.646682715
O  O29  1  0.06990000  0.78280000  0.85270000  1.0 -0.7504179087
O  O30  1  0.15980000  0.90220000  0.06200000  1.0 -0.6350224968
O  O31  1  0.93010000  0.21720000  0.14730000  1.0 -0.7504179087
O  O32  1  0.84020000  0.09780000  0.93800000  1.0 -0.6317231711
O  O33  1  0.94850000  0.04950000  0.10100000  1.0 -1.1273317989
O  O34  1  0.94850000  0.84750000  0.89900000  1.0 -1.1273317989
O  O35  1  0.05150000  0.95050000  0.89900000  1.0 -1.1273317989
O  O36  1  0.05150000  0.15250000  0.10100000  1.0 -1.1273317989
O  O37  1  0.02760000  0.95440000  0.07320000  1.0 -1.101206189
O  O38  1  0.88120000  0.95440000  0.92680000  1.0 -1.101206189
O  O39  1  0.11880000  0.04560000  0.07320000  1.0 -1.101206189
O  O40  1  0.97240000  0.04560000  0.92680000  1.0 -1.101206189
