# DDEC6 charges by PACMAN v1.1 (https://github.com/mtap-research/PACMAN-charge/)
data_BETDEL_ASR_pacman
_symmetry_space_group_name_H-M   'P 1'
_cell_length_a   15.98650000
_cell_length_b   15.98650000
_cell_length_c   13.60930000
_cell_angle_alpha   81.83590000
_cell_angle_beta   98.16410000
_cell_angle_gamma   128.43200000
_symmetry_Int_Tables_number   1
_chemical_formula_structural   DyH7C16NO6
_chemical_formula_sum   'Dy4 H28 C64 N4 O24'
_cell_volume   2690.46363318
_cell_formula_units_Z   4
loop_
 _symmetry_equiv_pos_site_id
 _symmetry_equiv_pos_as_xyz
  1  'x, y, z'
loop_
 _atom_site_type_symbol
 _atom_site_label
 _atom_site_symmetry_multiplicity
 _atom_site_fract_x
 _atom_site_fract_y
 _atom_site_fract_z
 _atom_site_occupancy
 _atom_site_charge
Dy  Dy1  1  0.47467000  0.10683000  0.45891000  1.0 2.0531358921
Dy  Dy2  1  0.10683000  0.47467000  0.04109000  1.0 2.0531358921
Dy  Dy3  1  0.52533000  0.89317000  0.54109000  1.0 2.0531358921
Dy  Dy4  1  0.89317000  0.52533000  0.95891000  1.0 2.0531358921
H  H1  1  0.13450000  0.02670000  0.53540000  1.0 0.1234454156
H  H2  1  0.02670000  0.13450000  0.96460000  1.0 0.1234454156
H  H3  1  0.86550000  0.97330000  0.46460000  1.0 0.1234454156
H  H4  1  0.97330000  0.86550000  0.03540000  1.0 0.1234454156
H  H5  1  0.02990000  0.06030000  0.60590000  1.0 0.1107000092
H  H6  1  0.06030000  0.02990000  0.89410000  1.0 0.1107000092
H  H7  1  0.97010000  0.93970000  0.39410000  1.0 0.1107000092
H  H8  1  0.93970000  0.97010000  0.10590000  1.0 0.1107000092
H  H9  1  0.28740000  0.35820000  0.64760000  1.0 0.1107000092
H  H10  1  0.35820000  0.28740000  0.85240000  1.0 0.1107000092
H  H11  1  0.71260000  0.64180000  0.35240000  1.0 0.1107000092
H  H12  1  0.64180000  0.71260000  0.14760000  1.0 0.1107000092
H  H13  1  0.39810000  0.31450000  0.60410000  1.0 0.1234454156
H  H14  1  0.31450000  0.39810000  0.89590000  1.0 0.1234454156
H  H15  1  0.60190000  0.68550000  0.39590000  1.0 0.1234454156
H  H16  1  0.68550000  0.60190000  0.10410000  1.0 0.1234454156
H  H17  1  0.77990000  0.31770000  0.70270000  1.0 0.1298967355
H  H18  1  0.31770000  0.77990000  0.79730000  1.0 0.1298967355
H  H19  1  0.22010000  0.68230000  0.29730000  1.0 0.1298967355
H  H20  1  0.68230000  0.22010000  0.20270000  1.0 0.1298967355
H  H21  1  0.03310000  0.31930000  0.77430000  1.0 0.1298967355
H  H22  1  0.31930000  0.03310000  0.72570000  1.0 0.1298967355
H  H23  1  0.96690000  0.68070000  0.22570000  1.0 0.1298967355
H  H24  1  0.68070000  0.96690000  0.27430000  1.0 0.1298967355
H  H25  1  0.80640000  0.12140000  0.57480000  1.0 0.1399174386
H  H26  1  0.12140000  0.80640000  0.92520000  1.0 0.1399174386
H  H27  1  0.19360000  0.87860000  0.42520000  1.0 0.1399174386
H  H28  1  0.87860000  0.19360000  0.07480000  1.0 0.1399174386
C  C1  1  0.34360000  0.15060000  0.52350000  1.0 0.5606580281
C  C2  1  0.15060000  0.34360000  0.97650000  1.0 0.5606580281
C  C3  1  0.65640000  0.84940000  0.47650000  1.0 0.5606580281
C  C4  1  0.84940000  0.65640000  0.02350000  1.0 0.5606580281
C  C5  1  0.27480000  0.16900000  0.55950000  1.0 -0.0303943779
C  C6  1  0.16900000  0.27480000  0.94050000  1.0 -0.0303943779
C  C7  1  0.72520000  0.83100000  0.44050000  1.0 -0.0303943779
C  C8  1  0.83100000  0.72520000  0.05950000  1.0 -0.0303943779
C  C9  1  0.16700000  0.09280000  0.56000000  1.0 -0.0903668891
C  C10  1  0.09280000  0.16700000  0.94000000  1.0 -0.0903668891
C  C11  1  0.83300000  0.90720000  0.44000000  1.0 -0.0903668891
C  C12  1  0.90720000  0.83300000  0.06000000  1.0 -0.0903668891
C  C13  1  0.10260000  0.11400000  0.59850000  1.0 -0.1284321176
C  C14  1  0.11400000  0.10260000  0.90150000  1.0 -0.1284321176
C  C15  1  0.89740000  0.88600000  0.40150000  1.0 -0.1284321176
C  C16  1  0.88600000  0.89740000  0.09850000  1.0 -0.1284321176
C  C17  1  0.15250000  0.21590000  0.62390000  1.0 0.0692225916
C  C18  1  0.21590000  0.15250000  0.87610000  1.0 0.0692225916
C  C19  1  0.84750000  0.78410000  0.37610000  1.0 0.0692225916
C  C20  1  0.78410000  0.84750000  0.12390000  1.0 0.0692225916
C  C21  1  0.25670000  0.29090000  0.62700000  1.0 -0.1378752238
C  C22  1  0.29090000  0.25670000  0.87300000  1.0 -0.1378752238
C  C23  1  0.74330000  0.70910000  0.37300000  1.0 -0.1378752238
C  C24  1  0.70910000  0.74330000  0.12700000  1.0 -0.1378752238
C  C25  1  0.32370000  0.26550000  0.59700000  1.0 -0.0834938532
C  C26  1  0.26550000  0.32370000  0.90300000  1.0 -0.0834938532
C  C27  1  0.67630000  0.73450000  0.40300000  1.0 -0.0834938532
C  C28  1  0.73450000  0.67630000  0.09700000  1.0 -0.0834938532
C  C29  1  0.09010000  0.24790000  0.65020000  1.0 0.0285964121
C  C30  1  0.24790000  0.09010000  0.84980000  1.0 0.0285964121
C  C31  1  0.90990000  0.75210000  0.34980000  1.0 0.0285964121
C  C32  1  0.75210000  0.90990000  0.15020000  1.0 0.0285964121
C  C33  1  0.67320000  0.17000000  0.56780000  1.0 0.6192817592
C  C34  1  0.17000000  0.67320000  0.93220000  1.0 0.6192817592
C  C35  1  0.32680000  0.83000000  0.43220000  1.0 0.6192817592
C  C36  1  0.83000000  0.32680000  0.06780000  1.0 0.6192817592
C  C37  1  0.77570000  0.21410000  0.62750000  1.0 -0.0303943779
C  C38  1  0.21410000  0.77570000  0.87250000  1.0 -0.0303943779
C  C39  1  0.22430000  0.78590000  0.37250000  1.0 -0.0303943779
C  C40  1  0.78590000  0.22430000  0.12750000  1.0 -0.0303943779
C  C41  1  0.81690000  0.29190000  0.69500000  1.0 -0.0970897863
C  C42  1  0.29190000  0.81690000  0.80500000  1.0 -0.0970897863
C  C43  1  0.18310000  0.70810000  0.30500000  1.0 -0.0970897863
C  C44  1  0.70810000  0.18310000  0.19500000  1.0 -0.0970897863
C  C45  1  0.91220000  0.33040000  0.75010000  1.0 -0.0043817179
C  C46  1  0.33040000  0.91220000  0.74990000  1.0 -0.0051093237
C  C47  1  0.08780000  0.66960000  0.24990000  1.0 -0.0043817179
C  C48  1  0.66960000  0.08780000  0.25010000  1.0 -0.0043817179
C  C49  1  0.96930000  0.29350000  0.73660000  1.0 -0.1771217978
C  C50  1  0.29350000  0.96930000  0.76340000  1.0 -0.1771217978
C  C51  1  0.03070000  0.70650000  0.26340000  1.0 -0.1771217978
C  C52  1  0.70650000  0.03070000  0.23660000  1.0 -0.1771217978
C  C53  1  0.93350000  0.22190000  0.67040000  1.0 0.2018874788
C  C54  1  0.22190000  0.93350000  0.82960000  1.0 0.2018874788
C  C55  1  0.06650000  0.77810000  0.32960000  1.0 0.2018874788
C  C56  1  0.77810000  0.06650000  0.17040000  1.0 0.2018874788
C  C57  1  0.83380000  0.17560000  0.61650000  1.0 -0.1650980956
C  C58  1  0.17560000  0.83380000  0.88350000  1.0 -0.1650980956
C  C59  1  0.16620000  0.82440000  0.38350000  1.0 -0.1650980956
C  C60  1  0.82440000  0.16620000  0.11650000  1.0 -0.1650980956
C  C61  1  0.95450000  0.41050000  0.82900000  1.0 0.6379392946
C  C62  1  0.41050000  0.95450000  0.67100000  1.0 0.6379392946
C  C63  1  0.04550000  0.58950000  0.17100000  1.0 0.6379392946
C  C64  1  0.58950000  0.04550000  0.32900000  1.0 0.6379392946
N  N1  1  0.98940000  0.18500000  0.64920000  1.0 -0.2101224905
N  N2  1  0.18500000  0.98940000  0.85080000  1.0 -0.2101224905
N  N3  1  0.01060000  0.81500000  0.35080000  1.0 -0.2101224905
N  N4  1  0.81500000  0.01060000  0.14920000  1.0 -0.2151336468
O  O1  1  0.43780000  0.21340000  0.52060000  1.0 -0.5284071809
O  O2  1  0.21340000  0.43780000  0.97940000  1.0 -0.5284071809
O  O3  1  0.56220000  0.78660000  0.47940000  1.0 -0.5284071809
O  O4  1  0.78660000  0.56220000  0.02060000  1.0 -0.5284071809
O  O5  1  0.29730000  0.05230000  0.49330000  1.0 -0.6857686138
O  O6  1  0.05230000  0.29730000  0.00670000  1.0 -0.6857686138
O  O7  1  0.70270000  0.94770000  0.50670000  1.0 -0.6857686138
O  O8  1  0.94770000  0.70270000  0.99330000  1.0 -0.6857686138
O  O9  1  0.64190000  0.22610000  0.55200000  1.0 -0.6015319621
O  O10  1  0.22610000  0.64190000  0.94800000  1.0 -0.6015319621
O  O11  1  0.35810000  0.77390000  0.44800000  1.0 -0.6015319621
O  O12  1  0.77390000  0.35810000  0.05200000  1.0 -0.6015319621
O  O13  1  0.61550000  0.07530000  0.54050000  1.0 -0.7565447039
O  O14  1  0.07530000  0.61550000  0.95950000  1.0 -0.7565447039
O  O15  1  0.38450000  0.92470000  0.45950000  1.0 -0.7565447039
O  O16  1  0.92470000  0.38450000  0.04050000  1.0 -0.7565447039
O  O17  1  0.89610000  0.43550000  0.83840000  1.0 -0.6609726197
O  O18  1  0.43550000  0.89610000  0.66160000  1.0 -0.6609726197
O  O19  1  0.10390000  0.56450000  0.16160000  1.0 -0.6609726197
O  O20  1  0.56450000  0.10390000  0.33840000  1.0 -0.6609726197
O  O21  1  0.04320000  0.44260000  0.87540000  1.0 -0.649292717
O  O22  1  0.44260000  0.04320000  0.62460000  1.0 -0.649292717
O  O23  1  0.95680000  0.55740000  0.12460000  1.0 -0.649292717
O  O24  1  0.55740000  0.95680000  0.37540000  1.0 -0.649292717
