# DDEC6 charges by PACMAN v1.1 (https://github.com/mtap-research/PACMAN-charge/)
data_BETGEO_ASR_pacman
_symmetry_space_group_name_H-M   'P 1'
_cell_length_a   18.55640000
_cell_length_b   18.55640000
_cell_length_c   18.55640000
_cell_angle_alpha   90.00000000
_cell_angle_beta   90.00000000
_cell_angle_gamma   90.00000000
_symmetry_Int_Tables_number   1
_chemical_formula_structural   Ni12H8C24N32Cl5O4
_chemical_formula_sum   'Ni36 H24 C72 N96 Cl15 O12'
_cell_volume   6389.71042269
_cell_formula_units_Z   3
loop_
 _symmetry_equiv_pos_site_id
 _symmetry_equiv_pos_as_xyz
  1  'x, y, z'
loop_
 _atom_site_type_symbol
 _atom_site_label
 _atom_site_symmetry_multiplicity
 _atom_site_fract_x
 _atom_site_fract_y
 _atom_site_fract_z
 _atom_site_occupancy
 _atom_site_charge
Ni  Ni1  1  0.36647000  0.50000000  0.00000000  1.0 0.2978674967
Ni  Ni2  1  0.63353000  0.50000000  0.00000000  1.0 0.2978674967
Ni  Ni3  1  0.00000000  0.36647000  0.50000000  1.0 0.2978674967
Ni  Ni4  1  0.00000000  0.63353000  0.50000000  1.0 0.2978674967
Ni  Ni5  1  0.50000000  0.00000000  0.36647000  1.0 0.2978674967
Ni  Ni6  1  0.50000000  0.00000000  0.63353000  1.0 0.2978674967
Ni  Ni7  1  0.50000000  0.36647000  0.00000000  1.0 0.2978674967
Ni  Ni8  1  0.50000000  0.63353000  0.00000000  1.0 0.2978674967
Ni  Ni9  1  0.36647000  0.00000000  0.50000000  1.0 0.2978674967
Ni  Ni10  1  0.63353000  0.00000000  0.50000000  1.0 0.2978674967
Ni  Ni11  1  0.00000000  0.50000000  0.63353000  1.0 0.2978674967
Ni  Ni12  1  0.00000000  0.50000000  0.36647000  1.0 0.2978674967
Ni  Ni13  1  0.26048000  0.50000000  0.14052000  1.0 0.6086659224
Ni  Ni14  1  0.73952000  0.50000000  0.14052000  1.0 0.6086659224
Ni  Ni15  1  0.73952000  0.50000000  0.85948000  1.0 0.6086659224
Ni  Ni16  1  0.26048000  0.50000000  0.85948000  1.0 0.6086659224
Ni  Ni17  1  0.14052000  0.26048000  0.50000000  1.0 0.6086659224
Ni  Ni18  1  0.14052000  0.73952000  0.50000000  1.0 0.6086659224
Ni  Ni19  1  0.85948000  0.73952000  0.50000000  1.0 0.6086659224
Ni  Ni20  1  0.85948000  0.26048000  0.50000000  1.0 0.6086659224
Ni  Ni21  1  0.50000000  0.14052000  0.26048000  1.0 0.6086659224
Ni  Ni22  1  0.50000000  0.14052000  0.73952000  1.0 0.6086659224
Ni  Ni23  1  0.50000000  0.85948000  0.73952000  1.0 0.6086659224
Ni  Ni24  1  0.50000000  0.85948000  0.26048000  1.0 0.6086659224
Ni  Ni25  1  0.50000000  0.26048000  0.85948000  1.0 0.6086659224
Ni  Ni26  1  0.50000000  0.73952000  0.85948000  1.0 0.6086659224
Ni  Ni27  1  0.50000000  0.73952000  0.14052000  1.0 0.6086659224
Ni  Ni28  1  0.50000000  0.26048000  0.14052000  1.0 0.6086659224
Ni  Ni29  1  0.26048000  0.14052000  0.50000000  1.0 0.6086659224
Ni  Ni30  1  0.73952000  0.14052000  0.50000000  1.0 0.6086659224
Ni  Ni31  1  0.73952000  0.85948000  0.50000000  1.0 0.6086659224
Ni  Ni32  1  0.26048000  0.85948000  0.50000000  1.0 0.6086659224
Ni  Ni33  1  0.14052000  0.50000000  0.73952000  1.0 0.6086659224
Ni  Ni34  1  0.14052000  0.50000000  0.26048000  1.0 0.6086659224
Ni  Ni35  1  0.85948000  0.50000000  0.26048000  1.0 0.6086659224
Ni  Ni36  1  0.85948000  0.50000000  0.73952000  1.0 0.6086659224
H  H1  1  0.23550000  0.38910000  0.23550000  1.0 0.1130570263
H  H2  1  0.76450000  0.61090000  0.23550000  1.0 0.1130570263
H  H3  1  0.76450000  0.38910000  0.76450000  1.0 0.1130570263
H  H4  1  0.23550000  0.61090000  0.76450000  1.0 0.1130570263
H  H5  1  0.23550000  0.23550000  0.38910000  1.0 0.1130570263
H  H6  1  0.23550000  0.76450000  0.61090000  1.0 0.1130570263
H  H7  1  0.76450000  0.76450000  0.38910000  1.0 0.1130570263
H  H8  1  0.76450000  0.23550000  0.61090000  1.0 0.1130570263
H  H9  1  0.38910000  0.23550000  0.23550000  1.0 0.1130570263
H  H10  1  0.61090000  0.23550000  0.76450000  1.0 0.1130570263
H  H11  1  0.38910000  0.76450000  0.76450000  1.0 0.1130570263
H  H12  1  0.61090000  0.76450000  0.23550000  1.0 0.1130570263
H  H13  1  0.38910000  0.23550000  0.76450000  1.0 0.1130570263
H  H14  1  0.61090000  0.76450000  0.76450000  1.0 0.1130570263
H  H15  1  0.38910000  0.76450000  0.23550000  1.0 0.1130570263
H  H16  1  0.61090000  0.23550000  0.23550000  1.0 0.1130570263
H  H17  1  0.23550000  0.23550000  0.61090000  1.0 0.1130570263
H  H18  1  0.76450000  0.23550000  0.38910000  1.0 0.1130570263
H  H19  1  0.76450000  0.76450000  0.61090000  1.0 0.1130570263
H  H20  1  0.23550000  0.76450000  0.38910000  1.0 0.1130570263
H  H21  1  0.23550000  0.38910000  0.76450000  1.0 0.1130570263
H  H22  1  0.23550000  0.61090000  0.23550000  1.0 0.1130570263
H  H23  1  0.76450000  0.38910000  0.23550000  1.0 0.1130570263
H  H24  1  0.76450000  0.61090000  0.76450000  1.0 0.1130570263
C  C1  1  0.35110000  0.35110000  0.16260000  1.0 0.2978674967
C  C2  1  0.64890000  0.64890000  0.16260000  1.0 0.2978674967
C  C3  1  0.64890000  0.35110000  0.83740000  1.0 0.2978674967
C  C4  1  0.35110000  0.64890000  0.83740000  1.0 0.2978674967
C  C5  1  0.16260000  0.35110000  0.35110000  1.0 0.2978674967
C  C6  1  0.16260000  0.64890000  0.64890000  1.0 0.2978674967
C  C7  1  0.83740000  0.64890000  0.35110000  1.0 0.2978674967
C  C8  1  0.83740000  0.35110000  0.64890000  1.0 0.2978674967
C  C9  1  0.35110000  0.16260000  0.35110000  1.0 0.2978674967
C  C10  1  0.64890000  0.16260000  0.64890000  1.0 0.2978674967
C  C11  1  0.35110000  0.83740000  0.64890000  1.0 0.2978674967
C  C12  1  0.64890000  0.83740000  0.35110000  1.0 0.2978674967
C  C13  1  0.35110000  0.35110000  0.83740000  1.0 0.2978674967
C  C14  1  0.64890000  0.64890000  0.83740000  1.0 0.2978674967
C  C15  1  0.35110000  0.64890000  0.16260000  1.0 0.2978674967
C  C16  1  0.64890000  0.35110000  0.16260000  1.0 0.2978674967
C  C17  1  0.35110000  0.16260000  0.64890000  1.0 0.2978674967
C  C18  1  0.64890000  0.16260000  0.35110000  1.0 0.2978674967
C  C19  1  0.64890000  0.83740000  0.64890000  1.0 0.2978674967
C  C20  1  0.35110000  0.83740000  0.35110000  1.0 0.2978674967
C  C21  1  0.16260000  0.35110000  0.64890000  1.0 0.2978674967
C  C22  1  0.16260000  0.64890000  0.35110000  1.0 0.2978674967
C  C23  1  0.83740000  0.35110000  0.35110000  1.0 0.2978674967
C  C24  1  0.83740000  0.64890000  0.64890000  1.0 0.2978674967
C  C25  1  0.31700000  0.31700000  0.22550000  1.0 0.0504823566
C  C26  1  0.68300000  0.68300000  0.22550000  1.0 0.0504823566
C  C27  1  0.68300000  0.31700000  0.77450000  1.0 0.0504823566
C  C28  1  0.31700000  0.68300000  0.77450000  1.0 0.0504823566
C  C29  1  0.22550000  0.31700000  0.31700000  1.0 0.0504823566
C  C30  1  0.22550000  0.68300000  0.68300000  1.0 0.0504823566
C  C31  1  0.77450000  0.68300000  0.31700000  1.0 0.0504823566
C  C32  1  0.77450000  0.31700000  0.68300000  1.0 0.0504823566
C  C33  1  0.31700000  0.22550000  0.31700000  1.0 0.0504823566
C  C34  1  0.68300000  0.22550000  0.68300000  1.0 0.0504823566
C  C35  1  0.31700000  0.77450000  0.68300000  1.0 0.0504823566
C  C36  1  0.68300000  0.77450000  0.31700000  1.0 0.0504823566
C  C37  1  0.31700000  0.31700000  0.77450000  1.0 0.0504823566
C  C38  1  0.68300000  0.68300000  0.77450000  1.0 0.0504823566
C  C39  1  0.31700000  0.68300000  0.22550000  1.0 0.0504823566
C  C40  1  0.68300000  0.31700000  0.22550000  1.0 0.0504823566
C  C41  1  0.31700000  0.22550000  0.68300000  1.0 0.0504823566
C  C42  1  0.68300000  0.22550000  0.31700000  1.0 0.0504823566
C  C43  1  0.68300000  0.77450000  0.68300000  1.0 0.0504823566
C  C44  1  0.31700000  0.77450000  0.31700000  1.0 0.0504823566
C  C45  1  0.22550000  0.31700000  0.68300000  1.0 0.0504823566
C  C46  1  0.22550000  0.68300000  0.31700000  1.0 0.0504823566
C  C47  1  0.77450000  0.31700000  0.31700000  1.0 0.0504823566
C  C48  1  0.77450000  0.68300000  0.68300000  1.0 0.0504823566
C  C49  1  0.25580000  0.34810000  0.25580000  1.0 -0.1313517364
C  C50  1  0.74420000  0.65190000  0.25580000  1.0 -0.1313517364
C  C51  1  0.74420000  0.34810000  0.74420000  1.0 -0.1313517364
C  C52  1  0.25580000  0.65190000  0.74420000  1.0 -0.1313517364
C  C53  1  0.25580000  0.25580000  0.34810000  1.0 -0.1313517364
C  C54  1  0.25580000  0.74420000  0.65190000  1.0 -0.1313517364
C  C55  1  0.74420000  0.74420000  0.34810000  1.0 -0.1313517364
C  C56  1  0.74420000  0.25580000  0.65190000  1.0 -0.1313517364
C  C57  1  0.34810000  0.25580000  0.25580000  1.0 -0.1313517364
C  C58  1  0.65190000  0.25580000  0.74420000  1.0 -0.1313517364
C  C59  1  0.34810000  0.74420000  0.74420000  1.0 -0.1313517364
C  C60  1  0.65190000  0.74420000  0.25580000  1.0 -0.1313517364
C  C61  1  0.34810000  0.25580000  0.74420000  1.0 -0.1313517364
C  C62  1  0.65190000  0.74420000  0.74420000  1.0 -0.1313517364
C  C63  1  0.34810000  0.74420000  0.25580000  1.0 -0.1313517364
C  C64  1  0.65190000  0.25580000  0.25580000  1.0 -0.1313517364
C  C65  1  0.25580000  0.25580000  0.65190000  1.0 -0.1313517364
C  C66  1  0.74420000  0.25580000  0.34810000  1.0 -0.1313517364
C  C67  1  0.74420000  0.74420000  0.65190000  1.0 -0.1313517364
C  C68  1  0.25580000  0.74420000  0.34810000  1.0 -0.1313517364
C  C69  1  0.25580000  0.34810000  0.74420000  1.0 -0.1313517364
C  C70  1  0.25580000  0.65190000  0.25580000  1.0 -0.1313517364
C  C71  1  0.74420000  0.34810000  0.25580000  1.0 -0.1313517364
C  C72  1  0.74420000  0.65190000  0.74420000  1.0 -0.1313517364
N  N1  1  0.37153000  0.42154000  0.07629000  1.0 -0.0076545743
N  N2  1  0.62847000  0.57846000  0.07629000  1.0 -0.0076545743
N  N3  1  0.62847000  0.42154000  0.92371000  1.0 -0.0076545743
N  N4  1  0.37153000  0.57846000  0.92371000  1.0 -0.0076545743
N  N5  1  0.07629000  0.37153000  0.42154000  1.0 -0.0076545743
N  N6  1  0.07629000  0.62847000  0.57846000  1.0 -0.0076545743
N  N7  1  0.92371000  0.62847000  0.42154000  1.0 -0.0076545743
N  N8  1  0.92371000  0.37153000  0.57846000  1.0 -0.0076545743
N  N9  1  0.42154000  0.07629000  0.37153000  1.0 -0.0076545743
N  N10  1  0.57846000  0.07629000  0.62847000  1.0 -0.0076545743
N  N11  1  0.42154000  0.92371000  0.62847000  1.0 -0.0076545743
N  N12  1  0.57846000  0.92371000  0.37153000  1.0 -0.0076545743
N  N13  1  0.42154000  0.37153000  0.92371000  1.0 -0.0076545743
N  N14  1  0.57846000  0.62847000  0.92371000  1.0 -0.0076545743
N  N15  1  0.42154000  0.62847000  0.07629000  1.0 -0.0076545743
N  N16  1  0.57846000  0.37153000  0.07629000  1.0 -0.0076545743
N  N17  1  0.37153000  0.07629000  0.57846000  1.0 -0.0076545743
N  N18  1  0.62847000  0.07629000  0.42154000  1.0 -0.0076545743
N  N19  1  0.62847000  0.92371000  0.57846000  1.0 -0.0076545743
N  N20  1  0.37153000  0.92371000  0.42154000  1.0 -0.0076545743
N  N21  1  0.07629000  0.42154000  0.62847000  1.0 -0.0076545743
N  N22  1  0.07629000  0.57846000  0.37153000  1.0 -0.0076545743
N  N23  1  0.92371000  0.42154000  0.37153000  1.0 -0.0076545743
N  N24  1  0.92371000  0.57846000  0.62847000  1.0 -0.0076545743
N  N25  1  0.62847000  0.57846000  0.92371000  1.0 -0.0076545743
N  N26  1  0.37153000  0.42154000  0.92371000  1.0 -0.0076545743
N  N27  1  0.37153000  0.57846000  0.07629000  1.0 -0.0076545743
N  N28  1  0.62847000  0.42154000  0.07629000  1.0 -0.0076545743
N  N29  1  0.92371000  0.62847000  0.57846000  1.0 -0.0076545743
N  N30  1  0.92371000  0.37153000  0.42154000  1.0 -0.0076545743
N  N31  1  0.07629000  0.37153000  0.57846000  1.0 -0.0076545743
N  N32  1  0.07629000  0.62847000  0.42154000  1.0 -0.0076545743
N  N33  1  0.57846000  0.92371000  0.62847000  1.0 -0.0076545743
N  N34  1  0.42154000  0.92371000  0.37153000  1.0 -0.0076545743
N  N35  1  0.57846000  0.07629000  0.37153000  1.0 -0.0076545743
N  N36  1  0.42154000  0.07629000  0.62847000  1.0 -0.0076545743
N  N37  1  0.57846000  0.62847000  0.07629000  1.0 -0.0076545743
N  N38  1  0.42154000  0.37153000  0.07629000  1.0 -0.0076545743
N  N39  1  0.57846000  0.37153000  0.92371000  1.0 -0.0076545743
N  N40  1  0.42154000  0.62847000  0.92371000  1.0 -0.0076545743
N  N41  1  0.62847000  0.92371000  0.42154000  1.0 -0.0076545743
N  N42  1  0.37153000  0.92371000  0.57846000  1.0 -0.0076545743
N  N43  1  0.37153000  0.07629000  0.42154000  1.0 -0.0076545743
N  N44  1  0.62847000  0.07629000  0.57846000  1.0 -0.0076545743
N  N45  1  0.92371000  0.57846000  0.37153000  1.0 -0.0076545743
N  N46  1  0.92371000  0.42154000  0.62847000  1.0 -0.0076545743
N  N47  1  0.07629000  0.57846000  0.62847000  1.0 -0.0076545743
N  N48  1  0.07629000  0.42154000  0.37153000  1.0 -0.0076545743
N  N49  1  0.32637000  0.41064000  0.13058000  1.0 -0.2134706946
N  N50  1  0.67363000  0.58936000  0.13058000  1.0 -0.2134706946
N  N51  1  0.67363000  0.41064000  0.86942000  1.0 -0.2134706946
N  N52  1  0.32637000  0.58936000  0.86942000  1.0 -0.2134706946
N  N53  1  0.13058000  0.32637000  0.41064000  1.0 -0.2134706946
N  N54  1  0.13058000  0.67363000  0.58936000  1.0 -0.2134706946
N  N55  1  0.86942000  0.67363000  0.41064000  1.0 -0.2134706946
N  N56  1  0.86942000  0.32637000  0.58936000  1.0 -0.2134706946
N  N57  1  0.41064000  0.13058000  0.32637000  1.0 -0.2134706946
N  N58  1  0.58936000  0.13058000  0.67363000  1.0 -0.2134706946
N  N59  1  0.41064000  0.86942000  0.67363000  1.0 -0.2134706946
N  N60  1  0.58936000  0.86942000  0.32637000  1.0 -0.2134706946
N  N61  1  0.41064000  0.32637000  0.86942000  1.0 -0.2134706946
N  N62  1  0.58936000  0.67363000  0.86942000  1.0 -0.2134706946
N  N63  1  0.41064000  0.67363000  0.13058000  1.0 -0.2134706946
N  N64  1  0.58936000  0.32637000  0.13058000  1.0 -0.2134706946
N  N65  1  0.32637000  0.13058000  0.58936000  1.0 -0.2134706946
N  N66  1  0.67363000  0.13058000  0.41064000  1.0 -0.2134706946
N  N67  1  0.67363000  0.86942000  0.58936000  1.0 -0.2134706946
N  N68  1  0.32637000  0.86942000  0.41064000  1.0 -0.2134706946
N  N69  1  0.13058000  0.41064000  0.67363000  1.0 -0.2134706946
N  N70  1  0.13058000  0.58936000  0.32637000  1.0 -0.2134706946
N  N71  1  0.86942000  0.41064000  0.32637000  1.0 -0.2134706946
N  N72  1  0.86942000  0.58936000  0.67363000  1.0 -0.2134706946
N  N73  1  0.67363000  0.58936000  0.86942000  1.0 -0.2134706946
N  N74  1  0.32637000  0.41064000  0.86942000  1.0 -0.2134706946
N  N75  1  0.32637000  0.58936000  0.13058000  1.0 -0.2134706946
N  N76  1  0.67363000  0.41064000  0.13058000  1.0 -0.2134706946
N  N77  1  0.86942000  0.67363000  0.58936000  1.0 -0.2134706946
N  N78  1  0.86942000  0.32637000  0.41064000  1.0 -0.2134706946
N  N79  1  0.13058000  0.32637000  0.58936000  1.0 -0.2134706946
N  N80  1  0.13058000  0.67363000  0.41064000  1.0 -0.2134706946
N  N81  1  0.58936000  0.86942000  0.67363000  1.0 -0.2134706946
N  N82  1  0.41064000  0.86942000  0.32637000  1.0 -0.2134706946
N  N83  1  0.58936000  0.13058000  0.32637000  1.0 -0.2134706946
N  N84  1  0.41064000  0.13058000  0.67363000  1.0 -0.2134706946
N  N85  1  0.58936000  0.67363000  0.13058000  1.0 -0.2134706946
N  N86  1  0.41064000  0.32637000  0.13058000  1.0 -0.2134706946
N  N87  1  0.58936000  0.32637000  0.86942000  1.0 -0.2134706946
N  N88  1  0.41064000  0.67363000  0.86942000  1.0 -0.2134706946
N  N89  1  0.67363000  0.86942000  0.41064000  1.0 -0.2134706946
N  N90  1  0.32637000  0.86942000  0.58936000  1.0 -0.2134706946
N  N91  1  0.32637000  0.13058000  0.41064000  1.0 -0.2134706946
N  N92  1  0.67363000  0.13058000  0.58936000  1.0 -0.2134706946
N  N93  1  0.86942000  0.58936000  0.32637000  1.0 -0.2134706946
N  N94  1  0.86942000  0.41064000  0.67363000  1.0 -0.2134706946
N  N95  1  0.13058000  0.58936000  0.67363000  1.0 -0.2134706946
N  N96  1  0.13058000  0.41064000  0.32637000  1.0 -0.2134706946
Cl  Cl1  1  0.50000000  0.50000000  0.00000000  1.0 -0.3671522224
Cl  Cl2  1  0.00000000  0.50000000  0.50000000  1.0 -0.3671522224
Cl  Cl3  1  0.50000000  0.00000000  0.50000000  1.0 -0.3671522224
Cl  Cl4  1  0.27120000  0.50000000  0.27120000  1.0 -0.3804236337
Cl  Cl5  1  0.72880000  0.50000000  0.27120000  1.0 -0.3804236337
Cl  Cl6  1  0.72880000  0.50000000  0.72880000  1.0 -0.3804236337
Cl  Cl7  1  0.27120000  0.50000000  0.72880000  1.0 -0.3804236337
Cl  Cl8  1  0.27120000  0.27120000  0.50000000  1.0 -0.3804236337
Cl  Cl9  1  0.27120000  0.72880000  0.50000000  1.0 -0.3804236337
Cl  Cl10  1  0.72880000  0.72880000  0.50000000  1.0 -0.3804236337
Cl  Cl11  1  0.72880000  0.27120000  0.50000000  1.0 -0.3804236337
Cl  Cl12  1  0.50000000  0.27120000  0.27120000  1.0 -0.3804236337
Cl  Cl13  1  0.50000000  0.27120000  0.72880000  1.0 -0.3804236337
Cl  Cl14  1  0.50000000  0.72880000  0.72880000  1.0 -0.3804236337
Cl  Cl15  1  0.50000000  0.72880000  0.27120000  1.0 -0.3804236337
O  O1  1  0.15390000  0.50000000  0.15390000  1.0 -0.8185968632
O  O2  1  0.84610000  0.50000000  0.15390000  1.0 -0.8185968632
O  O3  1  0.84610000  0.50000000  0.84610000  1.0 -0.8185968632
O  O4  1  0.15390000  0.50000000  0.84610000  1.0 -0.8185968632
O  O5  1  0.15390000  0.15390000  0.50000000  1.0 -0.8185968632
O  O6  1  0.15390000  0.84610000  0.50000000  1.0 -0.8185968632
O  O7  1  0.84610000  0.84610000  0.50000000  1.0 -0.8185968632
O  O8  1  0.84610000  0.15390000  0.50000000  1.0 -0.8185968632
O  O9  1  0.50000000  0.15390000  0.15390000  1.0 -0.8185968632
O  O10  1  0.50000000  0.15390000  0.84610000  1.0 -0.8185968632
O  O11  1  0.50000000  0.84610000  0.84610000  1.0 -0.8185968632
O  O12  1  0.50000000  0.84610000  0.15390000  1.0 -0.8185968632
