# DDEC6 charges by PACMAN v1.1 (https://github.com/mtap-research/PACMAN-charge/)
data_BETGIS_ASR_pacman
_symmetry_space_group_name_H-M   'P 1'
_cell_length_a   18.64830000
_cell_length_b   18.64830000
_cell_length_c   18.64830000
_cell_angle_alpha   90.00000000
_cell_angle_beta   90.00000000
_cell_angle_gamma   90.00000000
_symmetry_Int_Tables_number   1
_chemical_formula_structural   Ni12H8C24N32Cl9
_chemical_formula_sum   'Ni36 H24 C72 N96 Cl27'
_cell_volume   6485.11589194
_cell_formula_units_Z   3
loop_
 _symmetry_equiv_pos_site_id
 _symmetry_equiv_pos_as_xyz
  1  'x, y, z'
loop_
 _atom_site_type_symbol
 _atom_site_label
 _atom_site_symmetry_multiplicity
 _atom_site_fract_x
 _atom_site_fract_y
 _atom_site_fract_z
 _atom_site_occupancy
 _atom_site_charge
Ni  Ni1  1  0.36564000  0.50000000  0.00000000  1.0 0.2491495898
Ni  Ni2  1  0.63436000  0.50000000  0.00000000  1.0 0.2491495898
Ni  Ni3  1  0.00000000  0.36564000  0.50000000  1.0 0.2491495898
Ni  Ni4  1  0.00000000  0.63436000  0.50000000  1.0 0.2491495898
Ni  Ni5  1  0.50000000  0.00000000  0.36564000  1.0 0.2491495898
Ni  Ni6  1  0.50000000  0.00000000  0.63436000  1.0 0.2491495898
Ni  Ni7  1  0.50000000  0.36564000  0.00000000  1.0 0.2491495898
Ni  Ni8  1  0.50000000  0.63436000  0.00000000  1.0 0.2491495898
Ni  Ni9  1  0.36564000  0.00000000  0.50000000  1.0 0.2491495898
Ni  Ni10  1  0.63436000  0.00000000  0.50000000  1.0 0.2491495898
Ni  Ni11  1  0.00000000  0.50000000  0.63436000  1.0 0.2491495898
Ni  Ni12  1  0.00000000  0.50000000  0.36564000  1.0 0.2491495898
Ni  Ni13  1  0.24860000  0.50000000  0.13427000  1.0 0.2718633069
Ni  Ni14  1  0.75140000  0.50000000  0.13427000  1.0 0.2718633069
Ni  Ni15  1  0.75140000  0.50000000  0.86573000  1.0 0.2718633069
Ni  Ni16  1  0.24860000  0.50000000  0.86573000  1.0 0.2718633069
Ni  Ni17  1  0.13427000  0.24860000  0.50000000  1.0 0.2718633069
Ni  Ni18  1  0.13427000  0.75140000  0.50000000  1.0 0.2718633069
Ni  Ni19  1  0.86573000  0.75140000  0.50000000  1.0 0.2718633069
Ni  Ni20  1  0.86573000  0.24860000  0.50000000  1.0 0.2718633069
Ni  Ni21  1  0.50000000  0.13427000  0.24860000  1.0 0.2718633069
Ni  Ni22  1  0.50000000  0.13427000  0.75140000  1.0 0.2718633069
Ni  Ni23  1  0.50000000  0.86573000  0.75140000  1.0 0.2718633069
Ni  Ni24  1  0.50000000  0.86573000  0.24860000  1.0 0.2718633069
Ni  Ni25  1  0.50000000  0.24860000  0.86573000  1.0 0.2718633069
Ni  Ni26  1  0.50000000  0.75140000  0.86573000  1.0 0.2718633069
Ni  Ni27  1  0.50000000  0.75140000  0.13427000  1.0 0.2718633069
Ni  Ni28  1  0.50000000  0.24860000  0.13427000  1.0 0.2718633069
Ni  Ni29  1  0.24860000  0.13427000  0.50000000  1.0 0.2718633069
Ni  Ni30  1  0.75140000  0.13427000  0.50000000  1.0 0.2718633069
Ni  Ni31  1  0.75140000  0.86573000  0.50000000  1.0 0.2718633069
Ni  Ni32  1  0.24860000  0.86573000  0.50000000  1.0 0.2718633069
Ni  Ni33  1  0.13427000  0.50000000  0.75140000  1.0 0.2718633069
Ni  Ni34  1  0.13427000  0.50000000  0.24860000  1.0 0.2718633069
Ni  Ni35  1  0.86573000  0.50000000  0.24860000  1.0 0.2718633069
Ni  Ni36  1  0.86573000  0.50000000  0.75140000  1.0 0.2718633069
H  H1  1  0.23930000  0.39130000  0.23930000  1.0 0.1126218445
H  H2  1  0.76070000  0.60870000  0.23930000  1.0 0.1126218445
H  H3  1  0.76070000  0.39130000  0.76070000  1.0 0.1126218445
H  H4  1  0.23930000  0.60870000  0.76070000  1.0 0.1126218445
H  H5  1  0.23930000  0.23930000  0.39130000  1.0 0.1126218445
H  H6  1  0.23930000  0.76070000  0.60870000  1.0 0.1126218445
H  H7  1  0.76070000  0.76070000  0.39130000  1.0 0.1126218445
H  H8  1  0.76070000  0.23930000  0.60870000  1.0 0.1126218445
H  H9  1  0.39130000  0.23930000  0.23930000  1.0 0.1126218445
H  H10  1  0.60870000  0.23930000  0.76070000  1.0 0.1126218445
H  H11  1  0.39130000  0.76070000  0.76070000  1.0 0.1126218445
H  H12  1  0.60870000  0.76070000  0.23930000  1.0 0.1126218445
H  H13  1  0.39130000  0.23930000  0.76070000  1.0 0.1126218445
H  H14  1  0.60870000  0.76070000  0.76070000  1.0 0.1126218445
H  H15  1  0.39130000  0.76070000  0.23930000  1.0 0.1126218445
H  H16  1  0.60870000  0.23930000  0.23930000  1.0 0.1126218445
H  H17  1  0.23930000  0.23930000  0.60870000  1.0 0.1126218445
H  H18  1  0.76070000  0.23930000  0.39130000  1.0 0.1126218445
H  H19  1  0.76070000  0.76070000  0.60870000  1.0 0.1126218445
H  H20  1  0.23930000  0.76070000  0.39130000  1.0 0.1126218445
H  H21  1  0.23930000  0.39130000  0.76070000  1.0 0.1126218445
H  H22  1  0.23930000  0.60870000  0.23930000  1.0 0.1126218445
H  H23  1  0.76070000  0.39130000  0.23930000  1.0 0.1126218445
H  H24  1  0.76070000  0.60870000  0.76070000  1.0 0.1126218445
C  C1  1  0.35186000  0.35186000  0.16430000  1.0 0.2786472741
C  C2  1  0.64814000  0.64814000  0.16430000  1.0 0.2786472741
C  C3  1  0.64814000  0.35186000  0.83570000  1.0 0.2786472741
C  C4  1  0.35186000  0.64814000  0.83570000  1.0 0.2786472741
C  C5  1  0.16430000  0.35186000  0.35186000  1.0 0.2786472741
C  C6  1  0.16430000  0.64814000  0.64814000  1.0 0.2786472741
C  C7  1  0.83570000  0.64814000  0.35186000  1.0 0.2786472741
C  C8  1  0.83570000  0.35186000  0.64814000  1.0 0.2786472741
C  C9  1  0.35186000  0.16430000  0.35186000  1.0 0.2786472741
C  C10  1  0.64814000  0.16430000  0.64814000  1.0 0.2786472741
C  C11  1  0.35186000  0.83570000  0.64814000  1.0 0.2786472741
C  C12  1  0.64814000  0.83570000  0.35186000  1.0 0.2786472741
C  C13  1  0.35186000  0.35186000  0.83570000  1.0 0.2786472741
C  C14  1  0.64814000  0.64814000  0.83570000  1.0 0.2786472741
C  C15  1  0.35186000  0.64814000  0.16430000  1.0 0.2786472741
C  C16  1  0.64814000  0.35186000  0.16430000  1.0 0.2786472741
C  C17  1  0.35186000  0.16430000  0.64814000  1.0 0.2786472741
C  C18  1  0.64814000  0.16430000  0.35186000  1.0 0.2786472741
C  C19  1  0.64814000  0.83570000  0.64814000  1.0 0.2786472741
C  C20  1  0.35186000  0.83570000  0.35186000  1.0 0.2786472741
C  C21  1  0.16430000  0.35186000  0.64814000  1.0 0.2786472741
C  C22  1  0.16430000  0.64814000  0.35186000  1.0 0.2786472741
C  C23  1  0.83570000  0.35186000  0.35186000  1.0 0.2786472741
C  C24  1  0.83570000  0.64814000  0.64814000  1.0 0.2786472741
C  C25  1  0.31895000  0.31895000  0.22750000  1.0 0.043447231
C  C26  1  0.68105000  0.68105000  0.22750000  1.0 0.043447231
C  C27  1  0.68105000  0.31895000  0.77250000  1.0 0.043447231
C  C28  1  0.31895000  0.68105000  0.77250000  1.0 0.043447231
C  C29  1  0.22750000  0.31895000  0.31895000  1.0 0.043447231
C  C30  1  0.22750000  0.68105000  0.68105000  1.0 0.043447231
C  C31  1  0.77250000  0.68105000  0.31895000  1.0 0.043447231
C  C32  1  0.77250000  0.31895000  0.68105000  1.0 0.043447231
C  C33  1  0.31895000  0.22750000  0.31895000  1.0 0.043447231
C  C34  1  0.68105000  0.22750000  0.68105000  1.0 0.043447231
C  C35  1  0.31895000  0.77250000  0.68105000  1.0 0.043447231
C  C36  1  0.68105000  0.77250000  0.31895000  1.0 0.043447231
C  C37  1  0.31895000  0.31895000  0.77250000  1.0 0.043447231
C  C38  1  0.68105000  0.68105000  0.77250000  1.0 0.043447231
C  C39  1  0.31895000  0.68105000  0.22750000  1.0 0.043447231
C  C40  1  0.68105000  0.31895000  0.22750000  1.0 0.043447231
C  C41  1  0.31895000  0.22750000  0.68105000  1.0 0.043447231
C  C42  1  0.68105000  0.22750000  0.31895000  1.0 0.043447231
C  C43  1  0.68105000  0.77250000  0.68105000  1.0 0.043447231
C  C44  1  0.31895000  0.77250000  0.31895000  1.0 0.043447231
C  C45  1  0.22750000  0.31895000  0.68105000  1.0 0.043447231
C  C46  1  0.22750000  0.68105000  0.31895000  1.0 0.043447231
C  C47  1  0.77250000  0.31895000  0.31895000  1.0 0.043447231
C  C48  1  0.77250000  0.68105000  0.68105000  1.0 0.043447231
C  C49  1  0.25879000  0.34970000  0.25879000  1.0 -0.1337470012
C  C50  1  0.74121000  0.65030000  0.25879000  1.0 -0.1337470012
C  C51  1  0.74121000  0.34970000  0.74121000  1.0 -0.1337470012
C  C52  1  0.25879000  0.65030000  0.74121000  1.0 -0.1337470012
C  C53  1  0.25879000  0.25879000  0.34970000  1.0 -0.1337470012
C  C54  1  0.25879000  0.74121000  0.65030000  1.0 -0.1337470012
C  C55  1  0.74121000  0.74121000  0.34970000  1.0 -0.1337470012
C  C56  1  0.74121000  0.25879000  0.65030000  1.0 -0.1337470012
C  C57  1  0.34970000  0.25879000  0.25879000  1.0 -0.1337470012
C  C58  1  0.65030000  0.25879000  0.74121000  1.0 -0.1337470012
C  C59  1  0.34970000  0.74121000  0.74121000  1.0 -0.1337470012
C  C60  1  0.65030000  0.74121000  0.25879000  1.0 -0.1337470012
C  C61  1  0.34970000  0.25879000  0.74121000  1.0 -0.1337470012
C  C62  1  0.65030000  0.74121000  0.74121000  1.0 -0.1337470012
C  C63  1  0.34970000  0.74121000  0.25879000  1.0 -0.1337470012
C  C64  1  0.65030000  0.25879000  0.25879000  1.0 -0.1337470012
C  C65  1  0.25879000  0.25879000  0.65030000  1.0 -0.1337470012
C  C66  1  0.74121000  0.25879000  0.34970000  1.0 -0.1337470012
C  C67  1  0.74121000  0.74121000  0.65030000  1.0 -0.1337470012
C  C68  1  0.25879000  0.74121000  0.34970000  1.0 -0.1337470012
C  C69  1  0.25879000  0.34970000  0.74121000  1.0 -0.1337470012
C  C70  1  0.25879000  0.65030000  0.25879000  1.0 -0.1337470012
C  C71  1  0.74121000  0.34970000  0.25879000  1.0 -0.1337470012
C  C72  1  0.74121000  0.65030000  0.74121000  1.0 -0.1337470012
N  N1  1  0.37103000  0.42035000  0.07702000  1.0 0.0035756397
N  N2  1  0.62897000  0.57965000  0.07702000  1.0 0.0035756397
N  N3  1  0.62897000  0.42035000  0.92298000  1.0 0.0035756397
N  N4  1  0.37103000  0.57965000  0.92298000  1.0 0.0035756397
N  N5  1  0.07702000  0.37103000  0.42035000  1.0 0.0035756397
N  N6  1  0.07702000  0.62897000  0.57965000  1.0 0.0035756397
N  N7  1  0.92298000  0.62897000  0.42035000  1.0 0.0035756397
N  N8  1  0.92298000  0.37103000  0.57965000  1.0 0.0035756397
N  N9  1  0.42035000  0.07702000  0.37103000  1.0 0.0035756397
N  N10  1  0.57965000  0.07702000  0.62897000  1.0 0.0035756397
N  N11  1  0.42035000  0.92298000  0.62897000  1.0 0.0035756397
N  N12  1  0.57965000  0.92298000  0.37103000  1.0 0.0035756397
N  N13  1  0.42035000  0.37103000  0.92298000  1.0 0.0035756397
N  N14  1  0.57965000  0.62897000  0.92298000  1.0 0.0035756397
N  N15  1  0.42035000  0.62897000  0.07702000  1.0 0.0035756397
N  N16  1  0.57965000  0.37103000  0.07702000  1.0 0.0035756397
N  N17  1  0.37103000  0.07702000  0.57965000  1.0 0.0035756397
N  N18  1  0.62897000  0.07702000  0.42035000  1.0 0.0035756397
N  N19  1  0.62897000  0.92298000  0.57965000  1.0 0.0035756397
N  N20  1  0.37103000  0.92298000  0.42035000  1.0 0.0035756397
N  N21  1  0.07702000  0.42035000  0.62897000  1.0 0.0035756397
N  N22  1  0.07702000  0.57965000  0.37103000  1.0 0.0035756397
N  N23  1  0.92298000  0.42035000  0.37103000  1.0 0.0035756397
N  N24  1  0.92298000  0.57965000  0.62897000  1.0 0.0035756397
N  N25  1  0.62897000  0.57965000  0.92298000  1.0 0.0035756397
N  N26  1  0.37103000  0.42035000  0.92298000  1.0 0.0035756397
N  N27  1  0.37103000  0.57965000  0.07702000  1.0 0.0035756397
N  N28  1  0.62897000  0.42035000  0.07702000  1.0 0.0035756397
N  N29  1  0.92298000  0.62897000  0.57965000  1.0 0.0035756397
N  N30  1  0.92298000  0.37103000  0.42035000  1.0 0.0035756397
N  N31  1  0.07702000  0.37103000  0.57965000  1.0 0.0035756397
N  N32  1  0.07702000  0.62897000  0.42035000  1.0 0.0035756397
N  N33  1  0.57965000  0.92298000  0.62897000  1.0 0.0035756397
N  N34  1  0.42035000  0.92298000  0.37103000  1.0 0.0035756397
N  N35  1  0.57965000  0.07702000  0.37103000  1.0 0.0035756397
N  N36  1  0.42035000  0.07702000  0.62897000  1.0 0.0035756397
N  N37  1  0.57965000  0.62897000  0.07702000  1.0 0.0035756397
N  N38  1  0.42035000  0.37103000  0.07702000  1.0 0.0035756397
N  N39  1  0.57965000  0.37103000  0.92298000  1.0 0.0035756397
N  N40  1  0.42035000  0.62897000  0.92298000  1.0 0.0035756397
N  N41  1  0.62897000  0.92298000  0.42035000  1.0 0.0035756397
N  N42  1  0.37103000  0.92298000  0.57965000  1.0 0.0035756397
N  N43  1  0.37103000  0.07702000  0.42035000  1.0 0.0035756397
N  N44  1  0.62897000  0.07702000  0.57965000  1.0 0.0035756397
N  N45  1  0.92298000  0.57965000  0.37103000  1.0 0.0035756397
N  N46  1  0.92298000  0.42035000  0.62897000  1.0 0.0035756397
N  N47  1  0.07702000  0.57965000  0.62897000  1.0 0.0035756397
N  N48  1  0.07702000  0.42035000  0.37103000  1.0 0.0035756397
N  N49  1  0.32613000  0.41040000  0.13175000  1.0 -0.1985948554
N  N50  1  0.67387000  0.58960000  0.13175000  1.0 -0.1985948554
N  N51  1  0.67387000  0.41040000  0.86825000  1.0 -0.1985948554
N  N52  1  0.32613000  0.58960000  0.86825000  1.0 -0.1985948554
N  N53  1  0.13175000  0.32613000  0.41040000  1.0 -0.1985948554
N  N54  1  0.13175000  0.67387000  0.58960000  1.0 -0.1985948554
N  N55  1  0.86825000  0.67387000  0.41040000  1.0 -0.1985948554
N  N56  1  0.86825000  0.32613000  0.58960000  1.0 -0.1985948554
N  N57  1  0.41040000  0.13175000  0.32613000  1.0 -0.1985948554
N  N58  1  0.58960000  0.13175000  0.67387000  1.0 -0.1985948554
N  N59  1  0.41040000  0.86825000  0.67387000  1.0 -0.1985948554
N  N60  1  0.58960000  0.86825000  0.32613000  1.0 -0.1985948554
N  N61  1  0.41040000  0.32613000  0.86825000  1.0 -0.1985948554
N  N62  1  0.58960000  0.67387000  0.86825000  1.0 -0.1985948554
N  N63  1  0.41040000  0.67387000  0.13175000  1.0 -0.1985948554
N  N64  1  0.58960000  0.32613000  0.13175000  1.0 -0.1985948554
N  N65  1  0.32613000  0.13175000  0.58960000  1.0 -0.1985948554
N  N66  1  0.67387000  0.13175000  0.41040000  1.0 -0.1985948554
N  N67  1  0.67387000  0.86825000  0.58960000  1.0 -0.1985948554
N  N68  1  0.32613000  0.86825000  0.41040000  1.0 -0.1985948554
N  N69  1  0.13175000  0.41040000  0.67387000  1.0 -0.1985948554
N  N70  1  0.13175000  0.58960000  0.32613000  1.0 -0.1985948554
N  N71  1  0.86825000  0.41040000  0.32613000  1.0 -0.1985948554
N  N72  1  0.86825000  0.58960000  0.67387000  1.0 -0.1985948554
N  N73  1  0.67387000  0.58960000  0.86825000  1.0 -0.1985948554
N  N74  1  0.32613000  0.41040000  0.86825000  1.0 -0.1985948554
N  N75  1  0.32613000  0.58960000  0.13175000  1.0 -0.1985948554
N  N76  1  0.67387000  0.41040000  0.13175000  1.0 -0.1985948554
N  N77  1  0.86825000  0.67387000  0.58960000  1.0 -0.1985948554
N  N78  1  0.86825000  0.32613000  0.41040000  1.0 -0.1985948554
N  N79  1  0.13175000  0.32613000  0.58960000  1.0 -0.1985948554
N  N80  1  0.13175000  0.67387000  0.41040000  1.0 -0.1985948554
N  N81  1  0.58960000  0.86825000  0.67387000  1.0 -0.1985948554
N  N82  1  0.41040000  0.86825000  0.32613000  1.0 -0.1985948554
N  N83  1  0.58960000  0.13175000  0.32613000  1.0 -0.1985948554
N  N84  1  0.41040000  0.13175000  0.67387000  1.0 -0.1985948554
N  N85  1  0.58960000  0.67387000  0.13175000  1.0 -0.1985948554
N  N86  1  0.41040000  0.32613000  0.13175000  1.0 -0.1985948554
N  N87  1  0.58960000  0.32613000  0.86825000  1.0 -0.1985948554
N  N88  1  0.41040000  0.67387000  0.86825000  1.0 -0.1985948554
N  N89  1  0.67387000  0.86825000  0.41040000  1.0 -0.1985948554
N  N90  1  0.32613000  0.86825000  0.58960000  1.0 -0.1985948554
N  N91  1  0.32613000  0.13175000  0.41040000  1.0 -0.1985948554
N  N92  1  0.67387000  0.13175000  0.58960000  1.0 -0.1985948554
N  N93  1  0.86825000  0.58960000  0.32613000  1.0 -0.1985948554
N  N94  1  0.86825000  0.41040000  0.67387000  1.0 -0.1985948554
N  N95  1  0.13175000  0.58960000  0.67387000  1.0 -0.1985948554
N  N96  1  0.13175000  0.41040000  0.32613000  1.0 -0.1985948554
Cl  Cl1  1  0.50000000  0.50000000  0.00000000  1.0 -0.388969364
Cl  Cl2  1  0.00000000  0.50000000  0.50000000  1.0 -0.388969364
Cl  Cl3  1  0.50000000  0.00000000  0.50000000  1.0 -0.388969364
Cl  Cl4  1  0.14260000  0.42400000  0.14260000  1.0 -0.2587478481
Cl  Cl5  1  0.85740000  0.57600000  0.14260000  1.0 -0.2587478481
Cl  Cl6  1  0.85740000  0.42400000  0.85740000  1.0 -0.2587478481
Cl  Cl7  1  0.14260000  0.57600000  0.85740000  1.0 -0.2587478481
Cl  Cl8  1  0.14260000  0.14260000  0.42400000  1.0 -0.2587478481
Cl  Cl9  1  0.14260000  0.85740000  0.57600000  1.0 -0.2587478481
Cl  Cl10  1  0.85740000  0.85740000  0.42400000  1.0 -0.2587478481
Cl  Cl11  1  0.85740000  0.14260000  0.57600000  1.0 -0.2587478481
Cl  Cl12  1  0.42400000  0.14260000  0.14260000  1.0 -0.2587478481
Cl  Cl13  1  0.57600000  0.14260000  0.85740000  1.0 -0.2587478481
Cl  Cl14  1  0.42400000  0.85740000  0.85740000  1.0 -0.2587478481
Cl  Cl15  1  0.57600000  0.85740000  0.14260000  1.0 -0.2587478481
Cl  Cl16  1  0.42400000  0.14260000  0.85740000  1.0 -0.2587478481
Cl  Cl17  1  0.57600000  0.85740000  0.85740000  1.0 -0.2587478481
Cl  Cl18  1  0.42400000  0.85740000  0.14260000  1.0 -0.2587478481
Cl  Cl19  1  0.57600000  0.14260000  0.14260000  1.0 -0.2587478481
Cl  Cl20  1  0.14260000  0.14260000  0.57600000  1.0 -0.2587478481
Cl  Cl21  1  0.85740000  0.14260000  0.42400000  1.0 -0.2587478481
Cl  Cl22  1  0.85740000  0.85740000  0.57600000  1.0 -0.2587478481
Cl  Cl23  1  0.14260000  0.85740000  0.42400000  1.0 -0.2587478481
Cl  Cl24  1  0.14260000  0.42400000  0.85740000  1.0 -0.2587478481
Cl  Cl25  1  0.14260000  0.57600000  0.14260000  1.0 -0.2587478481
Cl  Cl26  1  0.85740000  0.42400000  0.14260000  1.0 -0.2587478481
Cl  Cl27  1  0.85740000  0.57600000  0.85740000  1.0 -0.2587478481
