# DDEC6 charges by PACMAN v1.1 (https://github.com/mtap-research/PACMAN-charge/)
data_BETHIT_ASR_pacman
_symmetry_space_group_name_H-M   'P 1'
_cell_length_a   19.36200000
_cell_length_b   19.36200000
_cell_length_c   19.36200000
_cell_angle_alpha   90.00000000
_cell_angle_beta   90.00000000
_cell_angle_gamma   90.00000000
_symmetry_Int_Tables_number   1
_chemical_formula_structural   Cd4H8C24N32Cl
_chemical_formula_sum   'Cd12 H24 C72 N96 Cl3'
_cell_volume   7258.56294593
_cell_formula_units_Z   3
loop_
 _symmetry_equiv_pos_site_id
 _symmetry_equiv_pos_as_xyz
  1  'x, y, z'
loop_
 _atom_site_type_symbol
 _atom_site_label
 _atom_site_symmetry_multiplicity
 _atom_site_fract_x
 _atom_site_fract_y
 _atom_site_fract_z
 _atom_site_occupancy
 _atom_site_charge
Cd  Cd1  1  0.35543000  0.50000000  0.00000000  1.0 0.6645568174
Cd  Cd2  1  0.64457000  0.50000000  0.00000000  1.0 0.6650699537
Cd  Cd3  1  0.00000000  0.35543000  0.50000000  1.0 0.6645568174
Cd  Cd4  1  0.00000000  0.64457000  0.50000000  1.0 0.6645568174
Cd  Cd5  1  0.50000000  0.00000000  0.35543000  1.0 0.6650699537
Cd  Cd6  1  0.50000000  0.00000000  0.64457000  1.0 0.6645568174
Cd  Cd7  1  0.50000000  0.35543000  0.00000000  1.0 0.6650699537
Cd  Cd8  1  0.50000000  0.64457000  0.00000000  1.0 0.6650699537
Cd  Cd9  1  0.35543000  0.00000000  0.50000000  1.0 0.6645568174
Cd  Cd10  1  0.64457000  0.00000000  0.50000000  1.0 0.6650699537
Cd  Cd11  1  0.00000000  0.50000000  0.64457000  1.0 0.6645568174
Cd  Cd12  1  0.00000000  0.50000000  0.35543000  1.0 0.6645568174
H  H1  1  0.24030000  0.38710000  0.24030000  1.0 0.1318171172
H  H2  1  0.75970000  0.61290000  0.24030000  1.0 0.1318171172
H  H3  1  0.75970000  0.38710000  0.75970000  1.0 0.1318171172
H  H4  1  0.24030000  0.61290000  0.75970000  1.0 0.1318171172
H  H5  1  0.24030000  0.24030000  0.38710000  1.0 0.1318171172
H  H6  1  0.24030000  0.75970000  0.61290000  1.0 0.1318171172
H  H7  1  0.75970000  0.75970000  0.38710000  1.0 0.1318171172
H  H8  1  0.75970000  0.24030000  0.61290000  1.0 0.1318171172
H  H9  1  0.38710000  0.24030000  0.24030000  1.0 0.1318171172
H  H10  1  0.61290000  0.24030000  0.75970000  1.0 0.1318171172
H  H11  1  0.38710000  0.75970000  0.75970000  1.0 0.1318171172
H  H12  1  0.61290000  0.75970000  0.24030000  1.0 0.1318171172
H  H13  1  0.38710000  0.24030000  0.75970000  1.0 0.1318171172
H  H14  1  0.61290000  0.75970000  0.75970000  1.0 0.1318171172
H  H15  1  0.38710000  0.75970000  0.24030000  1.0 0.1318171172
H  H16  1  0.61290000  0.24030000  0.24030000  1.0 0.1318171172
H  H17  1  0.24030000  0.24030000  0.61290000  1.0 0.1318171172
H  H18  1  0.75970000  0.24030000  0.38710000  1.0 0.1318171172
H  H19  1  0.75970000  0.75970000  0.61290000  1.0 0.1318171172
H  H20  1  0.24030000  0.75970000  0.38710000  1.0 0.1318171172
H  H21  1  0.24030000  0.38710000  0.75970000  1.0 0.1318171172
H  H22  1  0.24030000  0.61290000  0.24030000  1.0 0.1318171172
H  H23  1  0.75970000  0.38710000  0.24030000  1.0 0.1318171172
H  H24  1  0.75970000  0.61290000  0.75970000  1.0 0.1318171172
C  C1  1  0.34895000  0.34895000  0.16773000  1.0 0.2371139252
C  C2  1  0.65105000  0.65105000  0.16773000  1.0 0.2371139252
C  C3  1  0.65105000  0.34895000  0.83227000  1.0 0.2371139252
C  C4  1  0.34895000  0.65105000  0.83227000  1.0 0.2371139252
C  C5  1  0.16773000  0.34895000  0.34895000  1.0 0.2371139252
C  C6  1  0.16773000  0.65105000  0.65105000  1.0 0.2371139252
C  C7  1  0.83227000  0.65105000  0.34895000  1.0 0.2371139252
C  C8  1  0.83227000  0.34895000  0.65105000  1.0 0.2371139252
C  C9  1  0.34895000  0.16773000  0.34895000  1.0 0.2371139252
C  C10  1  0.65105000  0.16773000  0.65105000  1.0 0.2371139252
C  C11  1  0.34895000  0.83227000  0.65105000  1.0 0.2371139252
C  C12  1  0.65105000  0.83227000  0.34895000  1.0 0.2371139252
C  C13  1  0.34895000  0.34895000  0.83227000  1.0 0.2371139252
C  C14  1  0.65105000  0.65105000  0.83227000  1.0 0.2371139252
C  C15  1  0.34895000  0.65105000  0.16773000  1.0 0.2371139252
C  C16  1  0.65105000  0.34895000  0.16773000  1.0 0.2371139252
C  C17  1  0.34895000  0.16773000  0.65105000  1.0 0.2371139252
C  C18  1  0.65105000  0.16773000  0.34895000  1.0 0.2371139252
C  C19  1  0.65105000  0.83227000  0.65105000  1.0 0.2371139252
C  C20  1  0.34895000  0.83227000  0.34895000  1.0 0.2371139252
C  C21  1  0.16773000  0.34895000  0.65105000  1.0 0.2371139252
C  C22  1  0.16773000  0.65105000  0.34895000  1.0 0.2371139252
C  C23  1  0.83227000  0.34895000  0.34895000  1.0 0.2371139252
C  C24  1  0.83227000  0.65105000  0.65105000  1.0 0.2371139252
C  C25  1  0.31849000  0.31849000  0.23034000  1.0 0.0447005157
C  C26  1  0.68151000  0.68151000  0.23034000  1.0 0.0455422487
C  C27  1  0.68151000  0.31849000  0.76966000  1.0 0.0455422487
C  C28  1  0.31849000  0.68151000  0.76966000  1.0 0.0455422487
C  C29  1  0.23034000  0.31849000  0.31849000  1.0 0.0447005157
C  C30  1  0.23034000  0.68151000  0.68151000  1.0 0.0455422487
C  C31  1  0.76966000  0.68151000  0.31849000  1.0 0.0455422487
C  C32  1  0.76966000  0.31849000  0.68151000  1.0 0.0455422487
C  C33  1  0.31849000  0.23034000  0.31849000  1.0 0.0447005157
C  C34  1  0.68151000  0.23034000  0.68151000  1.0 0.0455422487
C  C35  1  0.31849000  0.76966000  0.68151000  1.0 0.0455422487
C  C36  1  0.68151000  0.76966000  0.31849000  1.0 0.0455422487
C  C37  1  0.31849000  0.31849000  0.76966000  1.0 0.0455422487
C  C38  1  0.68151000  0.68151000  0.76966000  1.0 0.0455422487
C  C39  1  0.31849000  0.68151000  0.23034000  1.0 0.0455422487
C  C40  1  0.68151000  0.31849000  0.23034000  1.0 0.0455422487
C  C41  1  0.31849000  0.23034000  0.68151000  1.0 0.0455422487
C  C42  1  0.68151000  0.23034000  0.31849000  1.0 0.0455422487
C  C43  1  0.68151000  0.76966000  0.68151000  1.0 0.0455422487
C  C44  1  0.31849000  0.76966000  0.31849000  1.0 0.0455422487
C  C45  1  0.23034000  0.31849000  0.68151000  1.0 0.0455422487
C  C46  1  0.23034000  0.68151000  0.31849000  1.0 0.0455422487
C  C47  1  0.76966000  0.31849000  0.31849000  1.0 0.0455422487
C  C48  1  0.76966000  0.68151000  0.68151000  1.0 0.0455422487
C  C49  1  0.25984000  0.34782000  0.25984000  1.0 -0.1180850032
C  C50  1  0.74016000  0.65218000  0.25984000  1.0 -0.1180850032
C  C51  1  0.74016000  0.34782000  0.74016000  1.0 -0.1180850032
C  C52  1  0.25984000  0.65218000  0.74016000  1.0 -0.1180850032
C  C53  1  0.25984000  0.25984000  0.34782000  1.0 -0.1180850032
C  C54  1  0.25984000  0.74016000  0.65218000  1.0 -0.1180850032
C  C55  1  0.74016000  0.74016000  0.34782000  1.0 -0.1180850032
C  C56  1  0.74016000  0.25984000  0.65218000  1.0 -0.1180850032
C  C57  1  0.34782000  0.25984000  0.25984000  1.0 -0.1180850032
C  C58  1  0.65218000  0.25984000  0.74016000  1.0 -0.1180850032
C  C59  1  0.34782000  0.74016000  0.74016000  1.0 -0.1180850032
C  C60  1  0.65218000  0.74016000  0.25984000  1.0 -0.1180850032
C  C61  1  0.34782000  0.25984000  0.74016000  1.0 -0.1180850032
C  C62  1  0.65218000  0.74016000  0.74016000  1.0 -0.1180850032
C  C63  1  0.34782000  0.74016000  0.25984000  1.0 -0.1180850032
C  C64  1  0.65218000  0.25984000  0.25984000  1.0 -0.1180850032
C  C65  1  0.25984000  0.25984000  0.65218000  1.0 -0.1180850032
C  C66  1  0.74016000  0.25984000  0.34782000  1.0 -0.1180850032
C  C67  1  0.74016000  0.74016000  0.65218000  1.0 -0.1180850032
C  C68  1  0.25984000  0.74016000  0.34782000  1.0 -0.1180850032
C  C69  1  0.25984000  0.34782000  0.74016000  1.0 -0.1180850032
C  C70  1  0.25984000  0.65218000  0.25984000  1.0 -0.1180850032
C  C71  1  0.74016000  0.34782000  0.25984000  1.0 -0.1180850032
C  C72  1  0.74016000  0.65218000  0.74016000  1.0 -0.1180850032
N  N1  1  0.36585000  0.41388000  0.08266000  1.0 -0.034375752
N  N2  1  0.63415000  0.58612000  0.08266000  1.0 -0.034375752
N  N3  1  0.63415000  0.41388000  0.91734000  1.0 -0.034375752
N  N4  1  0.36585000  0.58612000  0.91734000  1.0 -0.034375752
N  N5  1  0.08266000  0.36585000  0.41388000  1.0 -0.034375752
N  N6  1  0.08266000  0.63415000  0.58612000  1.0 -0.034375752
N  N7  1  0.91734000  0.63415000  0.41388000  1.0 -0.034375752
N  N8  1  0.91734000  0.36585000  0.58612000  1.0 -0.034375752
N  N9  1  0.41388000  0.08266000  0.36585000  1.0 -0.034375752
N  N10  1  0.58612000  0.08266000  0.63415000  1.0 -0.034375752
N  N11  1  0.41388000  0.91734000  0.63415000  1.0 -0.034375752
N  N12  1  0.58612000  0.91734000  0.36585000  1.0 -0.034375752
N  N13  1  0.41388000  0.36585000  0.91734000  1.0 -0.034375752
N  N14  1  0.58612000  0.63415000  0.91734000  1.0 -0.034375752
N  N15  1  0.41388000  0.63415000  0.08266000  1.0 -0.034375752
N  N16  1  0.58612000  0.36585000  0.08266000  1.0 -0.034375752
N  N17  1  0.36585000  0.08266000  0.58612000  1.0 -0.034375752
N  N18  1  0.63415000  0.08266000  0.41388000  1.0 -0.034375752
N  N19  1  0.63415000  0.91734000  0.58612000  1.0 -0.034375752
N  N20  1  0.36585000  0.91734000  0.41388000  1.0 -0.034375752
N  N21  1  0.08266000  0.41388000  0.63415000  1.0 -0.034375752
N  N22  1  0.08266000  0.58612000  0.36585000  1.0 -0.034375752
N  N23  1  0.91734000  0.41388000  0.36585000  1.0 -0.034375752
N  N24  1  0.91734000  0.58612000  0.63415000  1.0 -0.034375752
N  N25  1  0.63415000  0.58612000  0.91734000  1.0 -0.034375752
N  N26  1  0.36585000  0.41388000  0.91734000  1.0 -0.034375752
N  N27  1  0.36585000  0.58612000  0.08266000  1.0 -0.034375752
N  N28  1  0.63415000  0.41388000  0.08266000  1.0 -0.034375752
N  N29  1  0.91734000  0.63415000  0.58612000  1.0 -0.034375752
N  N30  1  0.91734000  0.36585000  0.41388000  1.0 -0.034375752
N  N31  1  0.08266000  0.36585000  0.58612000  1.0 -0.034375752
N  N32  1  0.08266000  0.63415000  0.41388000  1.0 -0.034375752
N  N33  1  0.58612000  0.91734000  0.63415000  1.0 -0.034375752
N  N34  1  0.41388000  0.91734000  0.36585000  1.0 -0.034375752
N  N35  1  0.58612000  0.08266000  0.36585000  1.0 -0.034375752
N  N36  1  0.41388000  0.08266000  0.63415000  1.0 -0.034375752
N  N37  1  0.58612000  0.63415000  0.08266000  1.0 -0.034375752
N  N38  1  0.41388000  0.36585000  0.08266000  1.0 -0.034375752
N  N39  1  0.58612000  0.36585000  0.91734000  1.0 -0.034375752
N  N40  1  0.41388000  0.63415000  0.91734000  1.0 -0.034375752
N  N41  1  0.63415000  0.91734000  0.41388000  1.0 -0.034375752
N  N42  1  0.36585000  0.91734000  0.58612000  1.0 -0.034375752
N  N43  1  0.36585000  0.08266000  0.41388000  1.0 -0.034375752
N  N44  1  0.63415000  0.08266000  0.58612000  1.0 -0.034375752
N  N45  1  0.91734000  0.58612000  0.36585000  1.0 -0.034375752
N  N46  1  0.91734000  0.41388000  0.63415000  1.0 -0.034375752
N  N47  1  0.08266000  0.58612000  0.63415000  1.0 -0.034375752
N  N48  1  0.08266000  0.41388000  0.36585000  1.0 -0.034375752
N  N49  1  0.32375000  0.40471000  0.13615000  1.0 -0.2457708556
N  N50  1  0.67625000  0.59529000  0.13615000  1.0 -0.2457708556
N  N51  1  0.67625000  0.40471000  0.86385000  1.0 -0.2457708556
N  N52  1  0.32375000  0.59529000  0.86385000  1.0 -0.2457708556
N  N53  1  0.13615000  0.32375000  0.40471000  1.0 -0.2457708556
N  N54  1  0.13615000  0.67625000  0.59529000  1.0 -0.2457708556
N  N55  1  0.86385000  0.67625000  0.40471000  1.0 -0.2457708556
N  N56  1  0.86385000  0.32375000  0.59529000  1.0 -0.2457708556
N  N57  1  0.40471000  0.13615000  0.32375000  1.0 -0.2457708556
N  N58  1  0.59529000  0.13615000  0.67625000  1.0 -0.2457708556
N  N59  1  0.40471000  0.86385000  0.67625000  1.0 -0.2457708556
N  N60  1  0.59529000  0.86385000  0.32375000  1.0 -0.2457708556
N  N61  1  0.40471000  0.32375000  0.86385000  1.0 -0.2457708556
N  N62  1  0.59529000  0.67625000  0.86385000  1.0 -0.2457708556
N  N63  1  0.40471000  0.67625000  0.13615000  1.0 -0.2457708556
N  N64  1  0.59529000  0.32375000  0.13615000  1.0 -0.2457708556
N  N65  1  0.32375000  0.13615000  0.59529000  1.0 -0.2457708556
N  N66  1  0.67625000  0.13615000  0.40471000  1.0 -0.2457708556
N  N67  1  0.67625000  0.86385000  0.59529000  1.0 -0.2457708556
N  N68  1  0.32375000  0.86385000  0.40471000  1.0 -0.2457708556
N  N69  1  0.13615000  0.40471000  0.67625000  1.0 -0.2457708556
N  N70  1  0.13615000  0.59529000  0.32375000  1.0 -0.2457708556
N  N71  1  0.86385000  0.40471000  0.32375000  1.0 -0.2457708556
N  N72  1  0.86385000  0.59529000  0.67625000  1.0 -0.2457708556
N  N73  1  0.67625000  0.59529000  0.86385000  1.0 -0.2457708556
N  N74  1  0.32375000  0.40471000  0.86385000  1.0 -0.2457708556
N  N75  1  0.32375000  0.59529000  0.13615000  1.0 -0.2457708556
N  N76  1  0.67625000  0.40471000  0.13615000  1.0 -0.2457708556
N  N77  1  0.86385000  0.67625000  0.59529000  1.0 -0.2457708556
N  N78  1  0.86385000  0.32375000  0.40471000  1.0 -0.2457708556
N  N79  1  0.13615000  0.32375000  0.59529000  1.0 -0.2457708556
N  N80  1  0.13615000  0.67625000  0.40471000  1.0 -0.2457708556
N  N81  1  0.59529000  0.86385000  0.67625000  1.0 -0.2457708556
N  N82  1  0.40471000  0.86385000  0.32375000  1.0 -0.2457708556
N  N83  1  0.59529000  0.13615000  0.32375000  1.0 -0.2457708556
N  N84  1  0.40471000  0.13615000  0.67625000  1.0 -0.2457708556
N  N85  1  0.59529000  0.67625000  0.13615000  1.0 -0.2457708556
N  N86  1  0.40471000  0.32375000  0.13615000  1.0 -0.2457708556
N  N87  1  0.59529000  0.32375000  0.86385000  1.0 -0.2457708556
N  N88  1  0.40471000  0.67625000  0.86385000  1.0 -0.2457708556
N  N89  1  0.67625000  0.86385000  0.40471000  1.0 -0.2457708556
N  N90  1  0.32375000  0.86385000  0.59529000  1.0 -0.2457708556
N  N91  1  0.32375000  0.13615000  0.40471000  1.0 -0.2457708556
N  N92  1  0.67625000  0.13615000  0.59529000  1.0 -0.2457708556
N  N93  1  0.86385000  0.59529000  0.32375000  1.0 -0.2457708556
N  N94  1  0.86385000  0.40471000  0.67625000  1.0 -0.2457708556
N  N95  1  0.13615000  0.59529000  0.67625000  1.0 -0.2457708556
N  N96  1  0.13615000  0.40471000  0.32375000  1.0 -0.2457708556
Cl  Cl1  1  0.50000000  0.50000000  0.00000000  1.0 -0.5470013458
Cl  Cl2  1  0.00000000  0.50000000  0.50000000  1.0 -0.5470013458
Cl  Cl3  1  0.50000000  0.00000000  0.50000000  1.0 -0.5470013458
