# DDEC6 charges by PACMAN v1.1 (https://github.com/mtap-research/PACMAN-charge/)
data_BEWCUD_ASR_pacman
_symmetry_space_group_name_H-M   'P 1'
_cell_length_a   26.09410000
_cell_length_b   26.09410000
_cell_length_c   26.09410000
_cell_angle_alpha   107.93100000
_cell_angle_beta   107.93100000
_cell_angle_gamma   112.59800000
_symmetry_Int_Tables_number   1
_chemical_formula_structural   Zn3H26C50(NO4)2
_chemical_formula_sum   'Zn12 H104 C200 N8 O32'
_cell_volume   13646.65870590
_cell_formula_units_Z   4
loop_
 _symmetry_equiv_pos_site_id
 _symmetry_equiv_pos_as_xyz
  1  'x, y, z'
loop_
 _atom_site_type_symbol
 _atom_site_label
 _atom_site_symmetry_multiplicity
 _atom_site_fract_x
 _atom_site_fract_y
 _atom_site_fract_z
 _atom_site_occupancy
 _atom_site_charge
Zn  Zn1  1  0.32512000  0.17488000  0.50000000  1.0 0.9491730014
Zn  Zn2  1  0.82512000  0.32512000  0.15024000  1.0 0.9491730014
Zn  Zn3  1  0.67488000  0.82512000  0.50000000  1.0 0.9447775761
Zn  Zn4  1  0.17488000  0.67488000  0.84976000  1.0 0.9447775761
Zn  Zn5  1  0.39350000  0.10650000  0.50000000  1.0 0.9269084612
Zn  Zn6  1  0.89350000  0.39350000  0.28700000  1.0 0.9269084612
Zn  Zn7  1  0.60650000  0.89350000  0.50000000  1.0 0.9269084612
Zn  Zn8  1  0.10650000  0.60650000  0.71300000  1.0 0.9269084612
Zn  Zn9  1  0.23781000  0.23781000  0.00000000  1.0 0.3833289921
Zn  Zn10  1  0.26219000  0.26219000  0.00000000  1.0 0.3833289921
Zn  Zn11  1  0.76219000  0.76219000  0.00000000  1.0 0.3859629014
Zn  Zn12  1  0.73781000  0.73781000  0.00000000  1.0 0.3833289921
H  H1  1  0.35060000  0.22580000  0.36640000  1.0 0.1263994442
H  H2  1  0.98420000  0.35060000  0.12480000  1.0 0.1263994442
H  H3  1  0.85940000  0.98420000  0.63360000  1.0 0.1263994442
H  H4  1  0.22580000  0.85940000  0.87520000  1.0 0.1263994442
H  H5  1  0.64060000  0.27420000  0.12480000  1.0 0.1263994442
H  H6  1  0.51580000  0.64060000  0.36640000  1.0 0.1263994442
H  H7  1  0.14940000  0.51580000  0.87520000  1.0 0.1263994442
H  H8  1  0.27420000  0.14940000  0.63360000  1.0 0.1263994442
H  H9  1  0.64940000  0.77420000  0.63360000  1.0 0.1263994442
H  H10  1  0.01580000  0.64940000  0.87520000  1.0 0.1263994442
H  H11  1  0.14060000  0.01580000  0.36640000  1.0 0.1263994442
H  H12  1  0.77420000  0.14060000  0.12480000  1.0 0.1263994442
H  H13  1  0.35940000  0.72580000  0.87520000  1.0 0.1263994442
H  H14  1  0.48420000  0.35940000  0.63360000  1.0 0.1263994442
H  H15  1  0.85060000  0.48420000  0.12480000  1.0 0.1263994442
H  H16  1  0.72580000  0.85060000  0.36640000  1.0 0.1263994442
H  H17  1  0.37170000  0.25170000  0.29580000  1.0 0.1139288864
H  H18  1  0.07590000  0.37170000  0.12000000  1.0 0.1139288864
H  H19  1  0.95590000  0.07590000  0.70420000  1.0 0.1139288864
H  H20  1  0.25170000  0.95590000  0.88000000  1.0 0.1139288864
H  H21  1  0.54410000  0.24830000  0.12000000  1.0 0.1139288864
H  H22  1  0.42410000  0.54410000  0.29580000  1.0 0.1139288864
H  H23  1  0.12830000  0.42410000  0.88000000  1.0 0.1139288864
H  H24  1  0.24830000  0.12830000  0.70420000  1.0 0.1139288864
H  H25  1  0.62830000  0.74830000  0.70420000  1.0 0.1139288864
H  H26  1  0.92410000  0.62830000  0.88000000  1.0 0.1139288864
H  H27  1  0.04410000  0.92410000  0.29580000  1.0 0.1139288864
H  H28  1  0.74830000  0.04410000  0.12000000  1.0 0.1139288864
H  H29  1  0.45590000  0.75170000  0.88000000  1.0 0.1139288864
H  H30  1  0.57590000  0.45590000  0.70420000  1.0 0.1139288864
H  H31  1  0.87170000  0.57590000  0.12000000  1.0 0.1139288864
H  H32  1  0.75170000  0.87170000  0.29580000  1.0 0.1139288864
H  H33  1  0.47200000  0.16540000  0.29740000  1.0 0.120223641
H  H34  1  0.17460000  0.47200000  0.30660000  1.0 0.120223641
H  H35  1  0.86800000  0.17460000  0.70260000  1.0 0.120223641
H  H36  1  0.16540000  0.86800000  0.69340000  1.0 0.120223641
H  H37  1  0.63200000  0.33460000  0.30660000  1.0 0.120223641
H  H38  1  0.32540000  0.63200000  0.29740000  1.0 0.120223641
H  H39  1  0.02800000  0.32540000  0.69340000  1.0 0.120223641
H  H40  1  0.33460000  0.02800000  0.70260000  1.0 0.120223641
H  H41  1  0.52800000  0.83460000  0.70260000  1.0 0.120223641
H  H42  1  0.82540000  0.52800000  0.69340000  1.0 0.120223641
H  H43  1  0.13200000  0.82540000  0.29740000  1.0 0.120223641
H  H44  1  0.83460000  0.13200000  0.30660000  1.0 0.120223641
H  H45  1  0.36800000  0.66540000  0.69340000  1.0 0.120223641
H  H46  1  0.67460000  0.36800000  0.70260000  1.0 0.120223641
H  H47  1  0.97200000  0.67460000  0.30660000  1.0 0.120223641
H  H48  1  0.66540000  0.97200000  0.29740000  1.0 0.120223641
H  H49  1  0.44750000  0.13830000  0.36720000  1.0 0.120223641
H  H50  1  0.08030000  0.44750000  0.30920000  1.0 0.120223641
H  H51  1  0.77110000  0.08030000  0.63280000  1.0 0.120223641
H  H52  1  0.13830000  0.77110000  0.69080000  1.0 0.120223641
H  H53  1  0.72890000  0.36170000  0.30920000  1.0 0.120223641
H  H54  1  0.41970000  0.72890000  0.36720000  1.0 0.120223641
H  H55  1  0.05250000  0.41970000  0.69080000  1.0 0.120223641
H  H56  1  0.36170000  0.05250000  0.63280000  1.0 0.120223641
H  H57  1  0.55250000  0.86170000  0.63280000  1.0 0.120223641
H  H58  1  0.91970000  0.55250000  0.69080000  1.0 0.120223641
H  H59  1  0.22890000  0.91970000  0.36720000  1.0 0.120223641
H  H60  1  0.86170000  0.22890000  0.30920000  1.0 0.120223641
H  H61  1  0.27110000  0.63830000  0.69080000  1.0 0.120223641
H  H62  1  0.58030000  0.27110000  0.63280000  1.0 0.120223641
H  H63  1  0.94750000  0.58030000  0.30920000  1.0 0.120223641
H  H64  1  0.63830000  0.94750000  0.36720000  1.0 0.120223641
H  H65  1  0.53010000  0.25000000  0.28010000  1.0 0.120223641
H  H66  1  0.25000000  0.53010000  0.28010000  1.0 0.120223641
H  H67  1  0.96990000  0.25000000  0.71990000  1.0 0.120223641
H  H68  1  0.25000000  0.96990000  0.71990000  1.0 0.120223641
H  H69  1  0.46990000  0.75000000  0.71990000  1.0 0.120223641
H  H70  1  0.75000000  0.46990000  0.71990000  1.0 0.120223641
H  H71  1  0.03010000  0.75000000  0.28010000  1.0 0.120223641
H  H72  1  0.75000000  0.03010000  0.28010000  1.0 0.120223641
H  H73  1  0.35840000  0.21740000  0.19740000  1.0 0.120223641
H  H74  1  0.16100000  0.35840000  0.14100000  1.0 0.120223641
H  H75  1  0.02000000  0.16100000  0.80260000  1.0 0.120223641
H  H76  1  0.21740000  0.02000000  0.85900000  1.0 0.120223641
H  H77  1  0.48000000  0.28260000  0.14100000  1.0 0.120223641
H  H78  1  0.33900000  0.48000000  0.19740000  1.0 0.120223641
H  H79  1  0.14160000  0.33900000  0.85900000  1.0 0.120223641
H  H80  1  0.28260000  0.14160000  0.80260000  1.0 0.120223641
H  H81  1  0.64160000  0.78260000  0.80260000  1.0 0.120223641
H  H82  1  0.83900000  0.64160000  0.85900000  1.0 0.120223641
H  H83  1  0.98000000  0.83900000  0.19740000  1.0 0.120223641
H  H84  1  0.78260000  0.98000000  0.14100000  1.0 0.120223641
H  H85  1  0.52000000  0.71740000  0.85900000  1.0 0.120223641
H  H86  1  0.66100000  0.52000000  0.80260000  1.0 0.120223641
H  H87  1  0.85840000  0.66100000  0.14100000  1.0 0.120223641
H  H88  1  0.71740000  0.85840000  0.19740000  1.0 0.120223641
H  H89  1  0.39280000  0.16450000  0.05690000  1.0 0.120223641
H  H90  1  0.33590000  0.39280000  0.22830000  1.0 0.120223641
H  H91  1  0.10760000  0.33590000  0.94310000  1.0 0.120223641
H  H92  1  0.16450000  0.10760000  0.77170000  1.0 0.120223641
H  H93  1  0.39240000  0.33550000  0.22830000  1.0 0.120223641
H  H94  1  0.16410000  0.39240000  0.05690000  1.0 0.120223641
H  H95  1  0.10720000  0.16410000  0.77170000  1.0 0.120223641
H  H96  1  0.33550000  0.10720000  0.94310000  1.0 0.120223641
H  H97  1  0.60720000  0.83550000  0.94310000  1.0 0.120223641
H  H98  1  0.66410000  0.60720000  0.77170000  1.0 0.120223641
H  H99  1  0.89240000  0.66410000  0.05690000  1.0 0.120223641
H  H100  1  0.83550000  0.89240000  0.22830000  1.0 0.120223641
H  H101  1  0.60760000  0.66450000  0.77170000  1.0 0.120223641
H  H102  1  0.83590000  0.60760000  0.94310000  1.0 0.120223641
H  H103  1  0.89280000  0.83590000  0.22830000  1.0 0.120223641
H  H104  1  0.66450000  0.89280000  0.05690000  1.0 0.120223641
C  C1  1  0.38280000  0.16090000  0.41910000  1.0 0.5826482976
C  C2  1  0.96370000  0.38280000  0.22190000  1.0 0.5826482976
C  C3  1  0.74180000  0.96370000  0.58090000  1.0 0.5826482976
C  C4  1  0.16090000  0.74180000  0.77810000  1.0 0.5826482976
C  C5  1  0.75820000  0.33910000  0.22190000  1.0 0.5826482976
C  C6  1  0.53630000  0.75820000  0.41910000  1.0 0.5826482976
C  C7  1  0.11720000  0.53630000  0.77810000  1.0 0.5826482976
C  C8  1  0.33910000  0.11720000  0.58090000  1.0 0.5826482976
C  C9  1  0.61720000  0.83910000  0.58090000  1.0 0.5826482976
C  C10  1  0.03630000  0.61720000  0.77810000  1.0 0.5826482976
C  C11  1  0.25820000  0.03630000  0.41910000  1.0 0.5826482976
C  C12  1  0.83910000  0.25820000  0.22190000  1.0 0.5826482976
C  C13  1  0.24180000  0.66090000  0.77810000  1.0 0.5826482976
C  C14  1  0.46370000  0.24180000  0.58090000  1.0 0.5826482976
C  C15  1  0.88280000  0.46370000  0.22190000  1.0 0.5826482976
C  C16  1  0.66090000  0.88280000  0.41910000  1.0 0.5826482976
C  C17  1  0.39510000  0.17910000  0.37300000  1.0 -0.0489174232
C  C18  1  0.02210000  0.39510000  0.21600000  1.0 -0.0489174232
C  C19  1  0.80610000  0.02210000  0.62700000  1.0 -0.0489174232
C  C20  1  0.17910000  0.80610000  0.78400000  1.0 -0.0489174232
C  C21  1  0.69390000  0.32090000  0.21600000  1.0 -0.0489174232
C  C22  1  0.47790000  0.69390000  0.37300000  1.0 -0.0489174232
C  C23  1  0.10490000  0.47790000  0.78400000  1.0 -0.0489174232
C  C24  1  0.32090000  0.10490000  0.62700000  1.0 -0.0489174232
C  C25  1  0.60490000  0.82090000  0.62700000  1.0 -0.0489174232
C  C26  1  0.97790000  0.60490000  0.78400000  1.0 -0.0489174232
C  C27  1  0.19390000  0.97790000  0.37300000  1.0 -0.0489174232
C  C28  1  0.82090000  0.19390000  0.21600000  1.0 -0.0489174232
C  C29  1  0.30610000  0.67910000  0.78400000  1.0 -0.0489174232
C  C30  1  0.52210000  0.30610000  0.62700000  1.0 -0.0489174232
C  C31  1  0.89510000  0.52210000  0.21600000  1.0 -0.0489174232
C  C32  1  0.67910000  0.89510000  0.37300000  1.0 -0.0489174232
C  C33  1  0.37460000  0.21340000  0.35200000  1.0 -0.0802536402
C  C34  1  0.02260000  0.37460000  0.16120000  1.0 -0.0802536402
C  C35  1  0.86140000  0.02260000  0.64800000  1.0 -0.0802536402
C  C36  1  0.21340000  0.86140000  0.83880000  1.0 -0.0802536402
C  C37  1  0.63860000  0.28660000  0.16120000  1.0 -0.0802536402
C  C38  1  0.47740000  0.63860000  0.35200000  1.0 -0.0802536402
C  C39  1  0.12540000  0.47740000  0.83880000  1.0 -0.0802536402
C  C40  1  0.28660000  0.12540000  0.64800000  1.0 -0.0802536402
C  C41  1  0.62540000  0.78660000  0.64800000  1.0 -0.0802536402
C  C42  1  0.97740000  0.62540000  0.83880000  1.0 -0.0802536402
C  C43  1  0.13860000  0.97740000  0.35200000  1.0 -0.0802536402
C  C44  1  0.78660000  0.13860000  0.16120000  1.0 -0.0802536402
C  C45  1  0.36140000  0.71340000  0.83880000  1.0 -0.0802536402
C  C46  1  0.52260000  0.36140000  0.64800000  1.0 -0.0802536402
C  C47  1  0.87460000  0.52260000  0.16120000  1.0 -0.0802536402
C  C48  1  0.71340000  0.87460000  0.35200000  1.0 -0.0802536402
C  C49  1  0.38770000  0.23000000  0.31070000  1.0 -0.1694173889
C  C50  1  0.07700000  0.38770000  0.15770000  1.0 -0.1694173889
C  C51  1  0.91930000  0.07700000  0.68930000  1.0 -0.1694173889
C  C52  1  0.23000000  0.91930000  0.84230000  1.0 -0.1694173889
C  C53  1  0.58070000  0.27000000  0.15770000  1.0 -0.1694173889
C  C54  1  0.42300000  0.58070000  0.31070000  1.0 -0.1694173889
C  C55  1  0.11230000  0.42300000  0.84230000  1.0 -0.1694173889
C  C56  1  0.27000000  0.11230000  0.68930000  1.0 -0.1694173889
C  C57  1  0.61230000  0.77000000  0.68930000  1.0 -0.1694173889
C  C58  1  0.92300000  0.61230000  0.84230000  1.0 -0.1694173889
C  C59  1  0.08070000  0.92300000  0.31070000  1.0 -0.1694173889
C  C60  1  0.77000000  0.08070000  0.15770000  1.0 -0.1694173889
C  C61  1  0.41930000  0.73000000  0.84230000  1.0 -0.1694173889
C  C62  1  0.57700000  0.41930000  0.68930000  1.0 -0.1694173889
C  C63  1  0.88770000  0.57700000  0.15770000  1.0 -0.1694173889
C  C64  1  0.73000000  0.88770000  0.31070000  1.0 -0.1694173889
C  C65  1  0.42720000  0.21290000  0.29090000  1.0 0.0868595371
C  C66  1  0.13630000  0.42720000  0.21430000  1.0 0.0868595371
C  C67  1  0.92200000  0.13630000  0.70910000  1.0 0.0868595371
C  C68  1  0.21290000  0.92200000  0.78570000  1.0 0.0868595371
C  C69  1  0.57800000  0.28710000  0.21430000  1.0 0.0868595371
C  C70  1  0.36370000  0.57800000  0.29090000  1.0 0.0868595371
C  C71  1  0.07280000  0.36370000  0.78570000  1.0 0.0868595371
C  C72  1  0.28710000  0.07280000  0.70910000  1.0 0.0868595371
C  C73  1  0.57280000  0.78710000  0.70910000  1.0 0.0868595371
C  C74  1  0.86370000  0.57280000  0.78570000  1.0 0.0868595371
C  C75  1  0.07800000  0.86370000  0.29090000  1.0 0.0868595371
C  C76  1  0.78710000  0.07800000  0.21430000  1.0 0.0868595371
C  C77  1  0.42200000  0.71290000  0.78570000  1.0 0.0868595371
C  C78  1  0.63630000  0.42200000  0.70910000  1.0 0.0868595371
C  C79  1  0.92720000  0.63630000  0.21430000  1.0 0.0868595371
C  C80  1  0.71290000  0.92720000  0.29090000  1.0 0.0868595371
C  C81  1  0.44780000  0.17790000  0.31150000  1.0 -0.1646353362
C  C82  1  0.13630000  0.44780000  0.26990000  1.0 -0.1646353362
C  C83  1  0.86640000  0.13630000  0.68850000  1.0 -0.1646353362
C  C84  1  0.17790000  0.86640000  0.73010000  1.0 -0.1646353362
C  C85  1  0.63360000  0.32210000  0.26990000  1.0 -0.1646353362
C  C86  1  0.36370000  0.63360000  0.31150000  1.0 -0.1646353362
C  C87  1  0.05220000  0.36370000  0.73010000  1.0 -0.1646353362
C  C88  1  0.32210000  0.05220000  0.68850000  1.0 -0.1646353362
C  C89  1  0.55220000  0.82210000  0.68850000  1.0 -0.1646353362
C  C90  1  0.86370000  0.55220000  0.73010000  1.0 -0.1646353362
C  C91  1  0.13360000  0.86370000  0.31150000  1.0 -0.1646353362
C  C92  1  0.82210000  0.13360000  0.26990000  1.0 -0.1646353362
C  C93  1  0.36640000  0.67790000  0.73010000  1.0 -0.1646353362
C  C94  1  0.63630000  0.36640000  0.68850000  1.0 -0.1646353362
C  C95  1  0.94780000  0.63630000  0.26990000  1.0 -0.1646353362
C  C96  1  0.67790000  0.94780000  0.31150000  1.0 -0.1646353362
C  C97  1  0.43280000  0.16110000  0.35290000  1.0 -0.0802536402
C  C98  1  0.07990000  0.43280000  0.27170000  1.0 -0.0802536402
C  C99  1  0.80820000  0.07990000  0.64710000  1.0 -0.0802536402
C  C100  1  0.16110000  0.80820000  0.72830000  1.0 -0.0802536402
C  C101  1  0.69180000  0.33890000  0.27170000  1.0 -0.0802536402
C  C102  1  0.42010000  0.69180000  0.35290000  1.0 -0.0802536402
C  C103  1  0.06720000  0.42010000  0.72830000  1.0 -0.0802536402
C  C104  1  0.33890000  0.06720000  0.64710000  1.0 -0.0802536402
C  C105  1  0.56720000  0.83890000  0.64710000  1.0 -0.0802536402
C  C106  1  0.92010000  0.56720000  0.72830000  1.0 -0.0802536402
C  C107  1  0.19180000  0.92010000  0.35290000  1.0 -0.0802536402
C  C108  1  0.83890000  0.19180000  0.27170000  1.0 -0.0802536402
C  C109  1  0.30820000  0.66110000  0.72830000  1.0 -0.0802536402
C  C110  1  0.57990000  0.30820000  0.64710000  1.0 -0.0802536402
C  C111  1  0.93280000  0.57990000  0.27170000  1.0 -0.0802536402
C  C112  1  0.66110000  0.93280000  0.35290000  1.0 -0.0802536402
C  C113  1  0.44110000  0.23030000  0.24380000  1.0 0.0607939952
C  C114  1  0.19730000  0.44110000  0.21080000  1.0 0.0607939952
C  C115  1  0.98650000  0.19730000  0.75620000  1.0 0.0607939952
C  C116  1  0.23030000  0.98650000  0.78920000  1.0 0.0607939952
C  C117  1  0.51350000  0.26970000  0.21080000  1.0 0.0607939952
C  C118  1  0.30270000  0.51350000  0.24380000  1.0 0.0607939952
C  C119  1  0.05890000  0.30270000  0.78920000  1.0 0.0607939952
C  C120  1  0.26970000  0.05890000  0.75620000  1.0 0.0607939952
C  C121  1  0.55890000  0.76970000  0.75620000  1.0 0.0607939952
C  C122  1  0.80270000  0.55890000  0.78920000  1.0 0.0607939952
C  C123  1  0.01350000  0.80270000  0.24380000  1.0 0.0607939952
C  C124  1  0.76970000  0.01350000  0.21080000  1.0 0.0607939952
C  C125  1  0.48650000  0.73030000  0.78920000  1.0 0.0607939952
C  C126  1  0.69730000  0.48650000  0.75620000  1.0 0.0607939952
C  C127  1  0.94110000  0.69730000  0.21080000  1.0 0.0607939952
C  C128  1  0.73030000  0.94110000  0.24380000  1.0 0.0607939952
C  C129  1  0.49980000  0.25000000  0.24980000  1.0 -0.1986155028
C  C130  1  0.25000000  0.49980000  0.24980000  1.0 -0.1986155028
C  C131  1  0.00020000  0.25000000  0.75020000  1.0 -0.1986155028
C  C132  1  0.25000000  0.00020000  0.75020000  1.0 -0.1986155028
C  C133  1  0.50020000  0.75000000  0.75020000  1.0 -0.1986155028
C  C134  1  0.75000000  0.50020000  0.75020000  1.0 -0.1986155028
C  C135  1  0.99980000  0.75000000  0.24980000  1.0 -0.1986155028
C  C136  1  0.75000000  0.99980000  0.24980000  1.0 -0.1986155028
C  C137  1  0.39820000  0.23080000  0.20040000  1.0 -0.1829560773
C  C138  1  0.19780000  0.39820000  0.16740000  1.0 -0.1829560773
C  C139  1  0.03040000  0.19780000  0.79960000  1.0 -0.1829560773
C  C140  1  0.23080000  0.03040000  0.83260000  1.0 -0.1829560773
C  C141  1  0.46960000  0.26920000  0.16740000  1.0 -0.1829560773
C  C142  1  0.30220000  0.46960000  0.20040000  1.0 -0.1829560773
C  C143  1  0.10180000  0.30220000  0.83260000  1.0 -0.1829560773
C  C144  1  0.26920000  0.10180000  0.79960000  1.0 -0.1829560773
C  C145  1  0.60180000  0.76920000  0.79960000  1.0 -0.1829560773
C  C146  1  0.80220000  0.60180000  0.83260000  1.0 -0.1829560773
C  C147  1  0.96960000  0.80220000  0.20040000  1.0 -0.1829560773
C  C148  1  0.76920000  0.96960000  0.16740000  1.0 -0.1829560773
C  C149  1  0.53040000  0.73080000  0.83260000  1.0 -0.1829560773
C  C150  1  0.69780000  0.53040000  0.79960000  1.0 -0.1829560773
C  C151  1  0.89820000  0.69780000  0.16740000  1.0 -0.1829560773
C  C152  1  0.73080000  0.89820000  0.20040000  1.0 -0.1829560773
C  C153  1  0.41010000  0.25000000  0.16010000  1.0 0.0607939952
C  C154  1  0.25000000  0.41010000  0.16010000  1.0 0.0607939952
C  C155  1  0.08990000  0.25000000  0.83990000  1.0 0.0661777089
C  C156  1  0.25000000  0.08990000  0.83990000  1.0 0.0607939952
C  C157  1  0.58990000  0.75000000  0.83990000  1.0 0.0661777089
C  C158  1  0.75000000  0.58990000  0.83990000  1.0 0.0607939952
C  C159  1  0.91010000  0.75000000  0.16010000  1.0 0.0607939952
C  C160  1  0.75000000  0.91010000  0.16010000  1.0 0.0607939952
C  C161  1  0.36330000  0.25000000  0.11330000  1.0 -0.0894442109
C  C162  1  0.25000000  0.36330000  0.11330000  1.0 -0.0894442109
C  C163  1  0.13670000  0.25000000  0.88670000  1.0 -0.0894442109
C  C164  1  0.25000000  0.13670000  0.88670000  1.0 -0.0894442109
C  C165  1  0.63670000  0.75000000  0.88670000  1.0 -0.0894442109
C  C166  1  0.75000000  0.63670000  0.88670000  1.0 -0.0894442109
C  C167  1  0.86330000  0.75000000  0.11330000  1.0 -0.0894442109
C  C168  1  0.75000000  0.86330000  0.11330000  1.0 -0.0894442109
C  C169  1  0.34127000  0.21180000  0.05169000  1.0 0.1776998022
C  C170  1  0.28958000  0.34127000  0.12947000  1.0 0.1776998022
C  C171  1  0.16011000  0.28958000  0.94831000  1.0 0.1776998022
C  C172  1  0.21180000  0.16011000  0.87053000  1.0 0.1776998022
C  C173  1  0.33989000  0.28820000  0.12947000  1.0 0.1776998022
C  C174  1  0.21042000  0.33989000  0.05169000  1.0 0.1776998022
C  C175  1  0.15873000  0.21042000  0.87053000  1.0 0.1776998022
C  C176  1  0.28820000  0.15873000  0.94831000  1.0 0.1776998022
C  C177  1  0.65873000  0.78820000  0.94831000  1.0 0.1776998022
C  C178  1  0.71042000  0.65873000  0.87053000  1.0 0.1776998022
C  C179  1  0.83989000  0.71042000  0.05169000  1.0 0.1776998022
C  C180  1  0.78820000  0.83989000  0.12947000  1.0 0.1776998022
C  C181  1  0.66011000  0.71180000  0.87053000  1.0 0.1776998022
C  C182  1  0.78958000  0.66011000  0.94831000  1.0 0.1776998022
C  C183  1  0.84127000  0.78958000  0.12947000  1.0 0.1776998022
C  C184  1  0.71180000  0.84127000  0.05169000  1.0 0.1776998022
C  C185  1  0.36283000  0.16907000  0.03150000  1.0 -0.1986155028
C  C186  1  0.33133000  0.36283000  0.19376000  1.0 -0.1986155028
C  C187  1  0.13757000  0.33133000  0.96850000  1.0 -0.1986155028
C  C188  1  0.16907000  0.13757000  0.80624000  1.0 -0.1986155028
C  C189  1  0.36243000  0.33093000  0.19376000  1.0 -0.1986155028
C  C190  1  0.16867000  0.36243000  0.03150000  1.0 -0.1986155028
C  C191  1  0.13717000  0.16867000  0.80624000  1.0 -0.1986155028
C  C192  1  0.33093000  0.13717000  0.96850000  1.0 -0.1986155028
C  C193  1  0.63717000  0.83093000  0.96850000  1.0 -0.1986155028
C  C194  1  0.66867000  0.63717000  0.80624000  1.0 -0.1986155028
C  C195  1  0.86243000  0.66867000  0.03150000  1.0 -0.1986155028
C  C196  1  0.83093000  0.86243000  0.19376000  1.0 -0.1986155028
C  C197  1  0.63757000  0.66907000  0.80624000  1.0 -0.1986155028
C  C198  1  0.83133000  0.63757000  0.96850000  1.0 -0.1986155028
C  C199  1  0.86283000  0.83133000  0.19376000  1.0 -0.1986155028
C  C200  1  0.66907000  0.86283000  0.03150000  1.0 -0.1986155028
N  N1  1  0.29779000  0.20221000  0.00000000  1.0 -0.295547398
N  N2  1  0.29779000  0.29779000  0.09558000  1.0 -0.295547398
N  N3  1  0.20221000  0.29779000  0.00000000  1.0 -0.295547398
N  N4  1  0.20221000  0.20221000  0.90442000  1.0 -0.295547398
N  N5  1  0.70221000  0.79779000  0.00000000  1.0 -0.294543477
N  N6  1  0.70221000  0.70221000  0.90442000  1.0 -0.295547398
N  N7  1  0.79779000  0.70221000  0.00000000  1.0 -0.294543477
N  N8  1  0.79779000  0.79779000  0.09558000  1.0 -0.295547398
O  O1  1  0.34964000  0.18223000  0.43575000  1.0 -0.5676248281
O  O2  1  0.91389000  0.34964000  0.16741000  1.0 -0.5676248281
O  O3  1  0.74648000  0.91389000  0.56425000  1.0 -0.5676248281
O  O4  1  0.18223000  0.74648000  0.83259000  1.0 -0.5676248281
O  O5  1  0.75352000  0.31777000  0.16741000  1.0 -0.5676248281
O  O6  1  0.58611000  0.75352000  0.43575000  1.0 -0.5676248281
O  O7  1  0.15036000  0.58611000  0.83259000  1.0 -0.5676248281
O  O8  1  0.31777000  0.15036000  0.56425000  1.0 -0.5676248281
O  O9  1  0.65036000  0.81777000  0.56425000  1.0 -0.5676248281
O  O10  1  0.08611000  0.65036000  0.83259000  1.0 -0.5676248281
O  O11  1  0.25352000  0.08611000  0.43575000  1.0 -0.5676248281
O  O12  1  0.81777000  0.25352000  0.16741000  1.0 -0.5676248281
O  O13  1  0.24648000  0.68223000  0.83259000  1.0 -0.5676248281
O  O14  1  0.41389000  0.24648000  0.56425000  1.0 -0.5676248281
O  O15  1  0.84964000  0.41389000  0.16741000  1.0 -0.5676248281
O  O16  1  0.68223000  0.84964000  0.43575000  1.0 -0.5676248281
O  O17  1  0.40257000  0.13078000  0.43647000  1.0 -0.5005222114
O  O18  1  0.96610000  0.40257000  0.27179000  1.0 -0.5005222114
O  O19  1  0.69431000  0.96610000  0.56353000  1.0 -0.5005222114
O  O20  1  0.13078000  0.69431000  0.72821000  1.0 -0.5005222114
O  O21  1  0.80569000  0.36922000  0.27179000  1.0 -0.5005222114
O  O22  1  0.53390000  0.80569000  0.43647000  1.0 -0.5005222114
O  O23  1  0.09743000  0.53390000  0.72821000  1.0 -0.5005222114
O  O24  1  0.36922000  0.09743000  0.56353000  1.0 -0.5005222114
O  O25  1  0.59743000  0.86922000  0.56353000  1.0 -0.5005222114
O  O26  1  0.03390000  0.59743000  0.72821000  1.0 -0.5005222114
O  O27  1  0.30569000  0.03390000  0.43647000  1.0 -0.5005222114
O  O28  1  0.86922000  0.30569000  0.27179000  1.0 -0.5005222114
O  O29  1  0.19431000  0.63078000  0.72821000  1.0 -0.5005222114
O  O30  1  0.46610000  0.19431000  0.56353000  1.0 -0.5005222114
O  O31  1  0.90257000  0.46610000  0.27179000  1.0 -0.5005222114
O  O32  1  0.63078000  0.90257000  0.43647000  1.0 -0.5005222114
