# DDEC6 charges by PACMAN v1.1 (https://github.com/mtap-research/PACMAN-charge/)
data_BEXQOL_ASR_pacman
_symmetry_space_group_name_H-M   'P 1'
_cell_length_a   13.87180000
_cell_length_b   16.94890000
_cell_length_c   20.77200000
_cell_angle_alpha   90.00000000
_cell_angle_beta   90.00000000
_cell_angle_gamma   90.00000000
_symmetry_Int_Tables_number   1
_chemical_formula_structural   Co(C2N3)3
_chemical_formula_sum   'Co8 C48 N72'
_cell_volume   4883.74129219
_cell_formula_units_Z   8
loop_
 _symmetry_equiv_pos_site_id
 _symmetry_equiv_pos_as_xyz
  1  'x, y, z'
loop_
 _atom_site_type_symbol
 _atom_site_label
 _atom_site_symmetry_multiplicity
 _atom_site_fract_x
 _atom_site_fract_y
 _atom_site_fract_z
 _atom_site_occupancy
 _atom_site_charge
Co  Co1  1  0.87834000  0.20171000  0.07608000  1.0 1.0051624749
Co  Co2  1  0.62166000  0.79829000  0.57608000  1.0 1.0005136362
Co  Co3  1  0.12166000  0.70171000  0.42392000  1.0 1.0005136362
Co  Co4  1  0.37834000  0.29829000  0.92392000  1.0 1.0005136362
Co  Co5  1  0.03634000  0.20105000  0.41522000  1.0 1.0005136362
Co  Co6  1  0.46366000  0.79895000  0.91522000  1.0 1.0005136362
Co  Co7  1  0.96366000  0.70105000  0.08478000  1.0 1.0005136362
Co  Co8  1  0.53634000  0.29895000  0.58478000  1.0 1.0005136362
C  C1  1  0.80867000  0.21121000  0.22518000  1.0 0.4218397711
C  C2  1  0.69133000  0.78879000  0.72518000  1.0 0.4277417068
C  C3  1  0.19133000  0.71121000  0.27482000  1.0 0.4277417068
C  C4  1  0.30867000  0.28879000  0.77482000  1.0 0.4218397711
C  C5  1  0.84501000  0.21351000  0.33012000  1.0 0.4218397711
C  C6  1  0.65499000  0.78649000  0.83012000  1.0 0.4218397711
C  C7  1  0.15499000  0.71351000  0.16988000  1.0 0.4218397711
C  C8  1  0.34501000  0.28649000  0.66988000  1.0 0.4218397711
C  C9  1  0.07155000  0.18454000  0.16063000  1.0 0.4277417068
C  C10  1  0.42845000  0.81546000  0.66063000  1.0 0.4277417068
C  C11  1  0.92845000  0.68454000  0.33937000  1.0 0.4277417068
C  C12  1  0.57155000  0.31546000  0.83937000  1.0 0.4277417068
C  C13  1  0.10968000  0.18749000  0.26620000  1.0 0.4277417068
C  C14  1  0.39032000  0.81251000  0.76620000  1.0 0.4277417068
C  C15  1  0.89032000  0.68749000  0.23380000  1.0 0.4277417068
C  C16  1  0.60968000  0.31251000  0.73380000  1.0 0.4277417068
C  C17  1  0.99544000  0.23561000  0.95394000  1.0 0.4613154579
C  C18  1  0.50456000  0.76439000  0.45394000  1.0 0.4613154579
C  C19  1  0.00456000  0.73561000  0.54606000  1.0 0.4613154579
C  C20  1  0.49544000  0.26439000  0.04606000  1.0 0.4613154579
C  C21  1  0.14809000  0.27887000  0.93702000  1.0 0.4412104735
C  C22  1  0.35191000  0.72113000  0.43702000  1.0 0.4412104735
C  C23  1  0.85191000  0.77887000  0.56298000  1.0 0.4412104735
C  C24  1  0.64809000  0.22113000  0.06298000  1.0 0.4412104735
C  C25  1  0.94238000  0.38198000  0.06200000  1.0 0.4495663617
C  C26  1  0.55762000  0.61802000  0.56200000  1.0 0.4495663617
C  C27  1  0.05762000  0.88198000  0.43800000  1.0 0.4495663617
C  C28  1  0.44238000  0.11802000  0.93800000  1.0 0.4495663617
C  C29  1  0.98329000  0.51338000  0.06583000  1.0 0.4697364394
C  C30  1  0.51671000  0.48662000  0.56583000  1.0 0.4697364394
C  C31  1  0.01671000  0.01338000  0.43417000  1.0 0.4697364394
C  C32  1  0.48329000  0.98662000  0.93417000  1.0 0.4697364394
C  C33  1  0.25949000  0.18812000  0.45760000  1.0 0.4412104735
C  C34  1  0.24051000  0.81188000  0.95760000  1.0 0.4412104735
C  C35  1  0.74051000  0.68812000  0.04240000  1.0 0.4412104735
C  C36  1  0.75949000  0.31188000  0.54240000  1.0 0.4412104735
C  C37  1  0.40878000  0.23878000  0.47637000  1.0 0.4412104735
C  C38  1  0.09122000  0.76122000  0.97637000  1.0 0.4412104735
C  C39  1  0.59122000  0.73878000  0.02363000  1.0 0.4412104735
C  C40  1  0.90878000  0.26122000  0.52363000  1.0 0.4412104735
C  C41  1  0.89598000  0.88062000  0.09046000  1.0 0.4495663617
C  C42  1  0.60402000  0.11938000  0.59046000  1.0 0.4495663617
C  C43  1  0.10402000  0.38062000  0.40954000  1.0 0.4495663617
C  C44  1  0.39598000  0.61938000  0.90954000  1.0 0.4495663617
C  C45  1  0.85931000  0.01267000  0.08199000  1.0 0.4613154579
C  C46  1  0.64069000  0.98733000  0.58199000  1.0 0.4613154579
C  C47  1  0.14069000  0.51267000  0.41801000  1.0 0.4613154579
C  C48  1  0.35931000  0.48733000  0.91801000  1.0 0.4613154579
N  N1  1  0.82826000  0.20764000  0.17182000  1.0 -0.4195816732
N  N2  1  0.67174000  0.79236000  0.67182000  1.0 -0.4195816732
N  N3  1  0.17174000  0.70764000  0.32818000  1.0 -0.4195816732
N  N4  1  0.32826000  0.29236000  0.82818000  1.0 -0.4138211485
N  N5  1  0.89772000  0.21431000  0.37269000  1.0 -0.4195816732
N  N6  1  0.60228000  0.78569000  0.87269000  1.0 -0.4311323163
N  N7  1  0.10228000  0.71431000  0.12731000  1.0 -0.4195816732
N  N8  1  0.39772000  0.28569000  0.62731000  1.0 -0.4195816732
N  N9  1  0.77844000  0.21329000  0.28531000  1.0 -0.3395475115
N  N10  1  0.72156000  0.78671000  0.78531000  1.0 -0.3395475115
N  N11  1  0.22156000  0.71329000  0.21469000  1.0 -0.3395475115
N  N12  1  0.27844000  0.28671000  0.71469000  1.0 -0.3513420051
N  N13  1  0.01984000  0.18998000  0.11723000  1.0 -0.4311323163
N  N14  1  0.48016000  0.81002000  0.61723000  1.0 -0.4311323163
N  N15  1  0.98016000  0.68998000  0.38277000  1.0 -0.4311323163
N  N16  1  0.51984000  0.31002000  0.88277000  1.0 -0.4311323163
N  N17  1  0.09376000  0.19317000  0.32035000  1.0 -0.4311323163
N  N18  1  0.40624000  0.80683000  0.82035000  1.0 -0.4311323163
N  N19  1  0.90624000  0.69317000  0.17965000  1.0 -0.4311323163
N  N20  1  0.59376000  0.30683000  0.67965000  1.0 -0.4311323163
N  N21  1  0.13659000  0.17875000  0.20582000  1.0 -0.3395475115
N  N22  1  0.36341000  0.82125000  0.70582000  1.0 -0.3342526581
N  N23  1  0.86341000  0.67875000  0.29418000  1.0 -0.3342526581
N  N24  1  0.63659000  0.32125000  0.79418000  1.0 -0.3395475115
N  N25  1  0.93438000  0.20206000  0.97955000  1.0 -0.4406584348
N  N26  1  0.56562000  0.79794000  0.47955000  1.0 -0.4406584348
N  N27  1  0.06562000  0.70206000  0.52045000  1.0 -0.4406584348
N  N28  1  0.43438000  0.29794000  0.02045000  1.0 -0.4406584348
N  N29  1  0.22928000  0.28526000  0.94748000  1.0 -0.4138211485
N  N30  1  0.27072000  0.71474000  0.44748000  1.0 -0.4195816732
N  N31  1  0.77072000  0.78526000  0.55252000  1.0 -0.4195816732
N  N32  1  0.72928000  0.21474000  0.05252000  1.0 -0.4195816732
N  N33  1  0.05720000  0.27585000  0.92031000  1.0 -0.3581188843
N  N34  1  0.44280000  0.72415000  0.42031000  1.0 -0.3581188843
N  N35  1  0.94280000  0.77585000  0.57969000  1.0 -0.3581188843
N  N36  1  0.55720000  0.22415000  0.07969000  1.0 -0.3581188843
N  N37  1  0.90114000  0.32476000  0.07251000  1.0 -0.4311323163
N  N38  1  0.59886000  0.67524000  0.57251000  1.0 -0.4311323163
N  N39  1  0.09886000  0.82476000  0.42749000  1.0 -0.4406584348
N  N40  1  0.40114000  0.17524000  0.92749000  1.0 -0.4311323163
N  N41  1  0.98122000  0.57890000  0.07904000  1.0 -0.4311323163
N  N42  1  0.51878000  0.42110000  0.57904000  1.0 -0.4311323163
N  N43  1  0.01878000  0.07890000  0.42096000  1.0 -0.4311323163
N  N44  1  0.48122000  0.92110000  0.92096000  1.0 -0.4406584348
N  N45  1  0.99735000  0.44145000  0.04590000  1.0 -0.3851706113
N  N46  1  0.50265000  0.55855000  0.54590000  1.0 -0.3815423872
N  N47  1  0.00265000  0.94145000  0.45410000  1.0 -0.3815423872
N  N48  1  0.49735000  0.05855000  0.95410000  1.0 -0.3851706113
N  N49  1  0.17633000  0.18800000  0.45557000  1.0 -0.4311323163
N  N50  1  0.32367000  0.81200000  0.95557000  1.0 -0.4311323163
N  N51  1  0.82367000  0.68800000  0.04443000  1.0 -0.4311323163
N  N52  1  0.67633000  0.31200000  0.54443000  1.0 -0.4311323163
N  N53  1  0.46675000  0.28484000  0.49111000  1.0 -0.4195816732
N  N54  1  0.03325000  0.71516000  0.99111000  1.0 -0.4195816732
N  N55  1  0.53325000  0.78484000  0.00889000  1.0 -0.4311323163
N  N56  1  0.96675000  0.21516000  0.50889000  1.0 -0.4311323163
N  N57  1  0.35342000  0.18113000  0.45740000  1.0 -0.3581188843
N  N58  1  0.14658000  0.81887000  0.95740000  1.0 -0.3513420051
N  N59  1  0.64658000  0.68113000  0.04260000  1.0 -0.3513420051
N  N60  1  0.85342000  0.31887000  0.54260000  1.0 -0.3581188843
N  N61  1  0.93938000  0.82307000  0.08702000  1.0 -0.4508582081
N  N62  1  0.56062000  0.17693000  0.58702000  1.0 -0.4508582081
N  N63  1  0.06062000  0.32307000  0.41298000  1.0 -0.4508582081
N  N64  1  0.43938000  0.67693000  0.91298000  1.0 -0.4508582081
N  N65  1  0.86662000  0.07887000  0.07195000  1.0 -0.4406584348
N  N66  1  0.63338000  0.92113000  0.57195000  1.0 -0.4406584348
N  N67  1  0.13338000  0.57887000  0.42805000  1.0 -0.4406584348
N  N68  1  0.36662000  0.42113000  0.92805000  1.0 -0.4406584348
N  N69  1  0.83707000  0.93986000  0.09654000  1.0 -0.3671237256
N  N70  1  0.66293000  0.06014000  0.59654000  1.0 -0.3671237256
N  N71  1  0.16293000  0.43986000  0.40346000  1.0 -0.3671237256
N  N72  1  0.33707000  0.56014000  0.90346000  1.0 -0.3671237256
