# DDEC6 charges by PACMAN v1.1 (https://github.com/mtap-research/PACMAN-charge/)
data_BEXQIF_ASR_pacman
_symmetry_space_group_name_H-M   'P 1'
_cell_length_a   13.91040000
_cell_length_b   17.03650000
_cell_length_c   20.81500000
_cell_angle_alpha   90.00000000
_cell_angle_beta   90.00000000
_cell_angle_gamma   90.00000000
_symmetry_Int_Tables_number   1
_chemical_formula_structural   Fe(C2N3)3
_chemical_formula_sum   'Fe8 C48 N72'
_cell_volume   4932.83298362
_cell_formula_units_Z   8
loop_
 _symmetry_equiv_pos_site_id
 _symmetry_equiv_pos_as_xyz
  1  'x, y, z'
loop_
 _atom_site_type_symbol
 _atom_site_label
 _atom_site_symmetry_multiplicity
 _atom_site_fract_x
 _atom_site_fract_y
 _atom_site_fract_z
 _atom_site_occupancy
 _atom_site_charge
Fe  Fe1  1  0.87648000  0.19975000  0.07563000  1.0 1.0589430279
Fe  Fe2  1  0.62352000  0.80025000  0.57563000  1.0 1.0589430279
Fe  Fe3  1  0.12352000  0.69975000  0.42437000  1.0 1.0589430279
Fe  Fe4  1  0.37648000  0.30025000  0.92437000  1.0 1.0532704836
Fe  Fe5  1  0.03537000  0.19941000  0.41692000  1.0 1.0532704836
Fe  Fe6  1  0.46463000  0.80059000  0.91692000  1.0 1.0532704836
Fe  Fe7  1  0.96463000  0.69941000  0.08308000  1.0 1.0589430279
Fe  Fe8  1  0.53537000  0.30059000  0.58308000  1.0 1.0532704836
C  C1  1  0.80728000  0.21020000  0.22631000  1.0 0.4236013016
C  C2  1  0.69272000  0.78980000  0.72631000  1.0 0.4236013016
C  C3  1  0.19272000  0.71020000  0.27369000  1.0 0.4236013016
C  C4  1  0.30728000  0.28980000  0.77369000  1.0 0.4236013016
C  C5  1  0.84271000  0.21308000  0.33118000  1.0 0.4299168696
C  C6  1  0.65729000  0.78692000  0.83118000  1.0 0.4299168696
C  C7  1  0.15729000  0.71308000  0.16882000  1.0 0.4299168696
C  C8  1  0.34271000  0.28692000  0.66882000  1.0 0.4299168696
C  C9  1  0.07102000  0.18347000  0.16069000  1.0 0.4299168696
C  C10  1  0.42898000  0.81653000  0.66069000  1.0 0.4299168696
C  C11  1  0.92898000  0.68347000  0.33931000  1.0 0.4299168696
C  C12  1  0.57102000  0.31653000  0.83931000  1.0 0.4299168696
C  C13  1  0.10862000  0.18641000  0.26648000  1.0 0.4299168696
C  C14  1  0.39138000  0.81359000  0.76648000  1.0 0.4299168696
C  C15  1  0.89138000  0.68641000  0.23352000  1.0 0.4401304544
C  C16  1  0.60862000  0.31359000  0.73352000  1.0 0.4299168696
C  C17  1  0.99338000  0.23392000  0.95178000  1.0 0.4580485394
C  C18  1  0.50662000  0.76608000  0.45178000  1.0 0.4580485394
C  C19  1  0.00662000  0.73392000  0.54822000  1.0 0.4580485394
C  C20  1  0.49338000  0.26608000  0.04822000  1.0 0.4580485394
C  C21  1  0.14490000  0.27872000  0.93574000  1.0 0.4401304544
C  C22  1  0.35510000  0.72128000  0.43574000  1.0 0.4401304544
C  C23  1  0.85510000  0.77872000  0.56426000  1.0 0.4401304544
C  C24  1  0.64490000  0.22128000  0.06426000  1.0 0.4401304544
C  C25  1  0.94315000  0.38031000  0.06110000  1.0 0.4401304544
C  C26  1  0.55685000  0.61969000  0.56110000  1.0 0.4401304544
C  C27  1  0.05685000  0.88031000  0.43890000  1.0 0.4483196914
C  C28  1  0.44315000  0.11969000  0.93890000  1.0 0.4401304544
C  C29  1  0.98522000  0.51070000  0.06415000  1.0 0.4674750215
C  C30  1  0.51478000  0.48930000  0.56415000  1.0 0.4674750215
C  C31  1  0.01478000  0.01070000  0.43585000  1.0 0.4674750215
C  C32  1  0.48522000  0.98930000  0.93585000  1.0 0.4674750215
C  C33  1  0.26030000  0.18577000  0.45857000  1.0 0.4401304544
C  C34  1  0.23970000  0.81423000  0.95857000  1.0 0.4401304544
C  C35  1  0.73970000  0.68577000  0.04143000  1.0 0.4401304544
C  C36  1  0.76030000  0.31423000  0.54143000  1.0 0.4401304544
C  C37  1  0.40882000  0.23831000  0.47478000  1.0 0.4483196914
C  C38  1  0.09118000  0.76169000  0.97478000  1.0 0.4483196914
C  C39  1  0.59118000  0.73831000  0.02522000  1.0 0.4483196914
C  C40  1  0.90882000  0.26169000  0.52522000  1.0 0.4483196914
C  C41  1  0.89511000  0.87924000  0.08995000  1.0 0.4483196914
C  C42  1  0.60489000  0.12076000  0.58995000  1.0 0.4483196914
C  C43  1  0.10489000  0.37924000  0.41005000  1.0 0.4483196914
C  C44  1  0.39511000  0.62076000  0.91005000  1.0 0.4483196914
C  C45  1  0.85726000  0.01017000  0.08163000  1.0 0.4674750215
C  C46  1  0.64274000  0.98983000  0.58163000  1.0 0.4674750215
C  C47  1  0.14274000  0.51017000  0.41837000  1.0 0.4674750215
C  C48  1  0.35726000  0.48983000  0.91837000  1.0 0.4674750215
N  N1  1  0.82689000  0.20676000  0.17315000  1.0 -0.4315612549
N  N2  1  0.67311000  0.79324000  0.67315000  1.0 -0.4315612549
N  N3  1  0.17311000  0.70676000  0.32685000  1.0 -0.4315612549
N  N4  1  0.32689000  0.29324000  0.82685000  1.0 -0.4315612549
N  N5  1  0.89442000  0.21424000  0.37401000  1.0 -0.4315612549
N  N6  1  0.60558000  0.78576000  0.87401000  1.0 -0.4405155487
N  N7  1  0.10558000  0.71424000  0.12599000  1.0 -0.4405155487
N  N8  1  0.39442000  0.28576000  0.62599000  1.0 -0.4405155487
N  N9  1  0.77647000  0.21207000  0.28611000  1.0 -0.3273025745
N  N10  1  0.72353000  0.78793000  0.78611000  1.0 -0.3273025745
N  N11  1  0.22353000  0.71207000  0.21389000  1.0 -0.3273025745
N  N12  1  0.27647000  0.28793000  0.71389000  1.0 -0.3273025745
N  N13  1  0.01973000  0.18791000  0.11774000  1.0 -0.4405155487
N  N14  1  0.48027000  0.81209000  0.61774000  1.0 -0.4405155487
N  N15  1  0.98027000  0.68791000  0.38226000  1.0 -0.4405155487
N  N16  1  0.51973000  0.31209000  0.88226000  1.0 -0.4405155487
N  N17  1  0.09199000  0.19166000  0.32048000  1.0 -0.4488309854
N  N18  1  0.40801000  0.80834000  0.82048000  1.0 -0.4488309854
N  N19  1  0.90801000  0.69166000  0.17952000  1.0 -0.4488309854
N  N20  1  0.59199000  0.30834000  0.67952000  1.0 -0.4488309854
N  N21  1  0.13617000  0.17915000  0.20635000  1.0 -0.3177315647
N  N22  1  0.36383000  0.82085000  0.70635000  1.0 -0.3177315647
N  N23  1  0.86383000  0.67915000  0.29365000  1.0 -0.3177315647
N  N24  1  0.63617000  0.32085000  0.79365000  1.0 -0.3177315647
N  N25  1  0.93302000  0.20053000  0.97754000  1.0 -0.462069634
N  N26  1  0.56698000  0.79947000  0.47754000  1.0 -0.462069634
N  N27  1  0.06698000  0.70053000  0.52246000  1.0 -0.462069634
N  N28  1  0.43302000  0.29947000  0.02246000  1.0 -0.462069634
N  N29  1  0.22537000  0.28599000  0.94743000  1.0 -0.4405155487
N  N30  1  0.27463000  0.71401000  0.44743000  1.0 -0.4405155487
N  N31  1  0.77463000  0.78599000  0.55257000  1.0 -0.4405155487
N  N32  1  0.72537000  0.21401000  0.05257000  1.0 -0.4405155487
N  N33  1  0.05494000  0.27385000  0.91817000  1.0 -0.3389041733
N  N34  1  0.44506000  0.72615000  0.41817000  1.0 -0.3389041733
N  N35  1  0.94506000  0.77385000  0.58183000  1.0 -0.3389041733
N  N36  1  0.55494000  0.22615000  0.08183000  1.0 -0.3389041733
N  N37  1  0.90093000  0.32390000  0.07184000  1.0 -0.462069634
N  N38  1  0.59907000  0.67610000  0.57184000  1.0 -0.462069634
N  N39  1  0.09907000  0.82390000  0.42816000  1.0 -0.4721295351
N  N40  1  0.40093000  0.17610000  0.92816000  1.0 -0.462069634
N  N41  1  0.98359000  0.57625000  0.07670000  1.0 -0.462069634
N  N42  1  0.51641000  0.42375000  0.57670000  1.0 -0.462069634
N  N43  1  0.01641000  0.07625000  0.42330000  1.0 -0.462069634
N  N44  1  0.48359000  0.92375000  0.92330000  1.0 -0.462069634
N  N45  1  0.99878000  0.43880000  0.04500000  1.0 -0.3483618194
N  N46  1  0.50122000  0.56120000  0.54500000  1.0 -0.3582313114
N  N47  1  0.00122000  0.93880000  0.45500000  1.0 -0.3582313114
N  N48  1  0.49878000  0.06120000  0.95500000  1.0 -0.3582313114
N  N49  1  0.17723000  0.18470000  0.45800000  1.0 -0.4488309854
N  N50  1  0.32277000  0.81530000  0.95800000  1.0 -0.4488309854
N  N51  1  0.82277000  0.68470000  0.04200000  1.0 -0.4488309854
N  N52  1  0.67723000  0.31530000  0.54200000  1.0 -0.4488309854
N  N53  1  0.46581000  0.28496000  0.48826000  1.0 -0.4405155487
N  N54  1  0.03419000  0.71504000  0.98826000  1.0 -0.4488309854
N  N55  1  0.53419000  0.78496000  0.01174000  1.0 -0.4405155487
N  N56  1  0.96581000  0.21504000  0.51174000  1.0 -0.4488309854
N  N57  1  0.35395000  0.17986000  0.45737000  1.0 -0.3389041733
N  N58  1  0.14605000  0.82014000  0.95737000  1.0 -0.3273025745
N  N59  1  0.64605000  0.67986000  0.04263000  1.0 -0.3389041733
N  N60  1  0.85395000  0.32014000  0.54263000  1.0 -0.3389041733
N  N61  1  0.93903000  0.82270000  0.08589000  1.0 -0.462069634
N  N62  1  0.56097000  0.17730000  0.58589000  1.0 -0.462069634
N  N63  1  0.06097000  0.32270000  0.41411000  1.0 -0.462069634
N  N64  1  0.43903000  0.67730000  0.91411000  1.0 -0.462069634
N  N65  1  0.86448000  0.07615000  0.07064000  1.0 -0.4721295351
N  N66  1  0.63552000  0.92385000  0.57064000  1.0 -0.4721295351
N  N67  1  0.13552000  0.57615000  0.42936000  1.0 -0.4721295351
N  N68  1  0.36448000  0.42385000  0.92936000  1.0 -0.4721295351
N  N69  1  0.83578000  0.93805000  0.09684000  1.0 -0.3483618194
N  N70  1  0.66422000  0.06195000  0.59684000  1.0 -0.3483618194
N  N71  1  0.16422000  0.43805000  0.40316000  1.0 -0.3483618194
N  N72  1  0.33578000  0.56195000  0.90316000  1.0 -0.3483618194
