# DDEC6 charges by PACMAN v1.1 (https://github.com/mtap-research/PACMAN-charge/)
data_BEXREC_ASR_pacman
_symmetry_space_group_name_H-M   'P 1'
_cell_length_a   14.22280000
_cell_length_b   16.70500000
_cell_length_c   21.60200000
_cell_angle_alpha   90.00000000
_cell_angle_beta   90.00000000
_cell_angle_gamma   90.00000000
_symmetry_Int_Tables_number   1
_chemical_formula_structural   Co(C2N3)3
_chemical_formula_sum   'Co8 C48 N72'
_cell_volume   5132.45966215
_cell_formula_units_Z   8
loop_
 _symmetry_equiv_pos_site_id
 _symmetry_equiv_pos_as_xyz
  1  'x, y, z'
loop_
 _atom_site_type_symbol
 _atom_site_label
 _atom_site_symmetry_multiplicity
 _atom_site_fract_x
 _atom_site_fract_y
 _atom_site_fract_z
 _atom_site_occupancy
 _atom_site_charge
Co  Co1  1  0.87076000  0.26820000  0.92522000  1.0 1.0016818868
Co  Co2  1  0.62924000  0.73180000  0.42522000  1.0 1.007067991
Co  Co3  1  0.37076000  0.23180000  0.07478000  1.0 1.0016818868
Co  Co4  1  0.12924000  0.76820000  0.57478000  1.0 1.007067991
Co  Co5  1  0.03565000  0.26935000  0.59847000  1.0 1.0016818868
Co  Co6  1  0.46435000  0.73065000  0.09847000  1.0 1.0016818868
Co  Co7  1  0.53565000  0.23065000  0.40153000  1.0 1.0016818868
Co  Co8  1  0.96435000  0.76935000  0.90153000  1.0 1.0016818868
C  C1  1  0.81128000  0.24251000  0.78211000  1.0 0.42803847
C  C2  1  0.68872000  0.75749000  0.28211000  1.0 0.42803847
C  C3  1  0.31128000  0.25749000  0.21789000  1.0 0.42803847
C  C4  1  0.18872000  0.74251000  0.71789000  1.0 0.42803847
C  C5  1  0.85179000  0.25117000  0.68230000  1.0 0.42803847
C  C6  1  0.64821000  0.74883000  0.18230000  1.0 0.42803847
C  C7  1  0.35179000  0.24883000  0.31770000  1.0 0.42803847
C  C8  1  0.14821000  0.75117000  0.81770000  1.0 0.42803847
C  C9  1  0.05906000  0.29146000  0.84271000  1.0 0.42803847
C  C10  1  0.44094000  0.70854000  0.34271000  1.0 0.42803847
C  C11  1  0.55906000  0.20854000  0.15729000  1.0 0.42803847
C  C12  1  0.94094000  0.79146000  0.65729000  1.0 0.42803847
C  C13  1  0.10233000  0.29083000  0.74187000  1.0 0.42803847
C  C14  1  0.39767000  0.70917000  0.24187000  1.0 0.42803847
C  C15  1  0.60233000  0.20917000  0.25813000  1.0 0.42803847
C  C16  1  0.89767000  0.79083000  0.75813000  1.0 0.42803847
C  C17  1  0.99200000  0.27891000  0.04450000  1.0 0.4516335003
C  C18  1  0.50800000  0.72109000  0.54450000  1.0 0.4583729631
C  C19  1  0.49200000  0.22109000  0.95550000  1.0 0.4516335003
C  C20  1  0.00800000  0.77891000  0.45550000  1.0 0.4516335003
C  C21  1  0.14770000  0.25642000  0.06257000  1.0 0.4397685781
C  C22  1  0.35230000  0.74358000  0.56257000  1.0 0.4397685781
C  C23  1  0.64770000  0.24358000  0.93743000  1.0 0.4397685781
C  C24  1  0.85230000  0.75642000  0.43743000  1.0 0.4397685781
C  C25  1  0.84167000  0.45925000  0.90907000  1.0 0.4583729631
C  C26  1  0.65833000  0.54075000  0.40907000  1.0 0.4583729631
C  C27  1  0.34167000  0.04075000  0.09093000  1.0 0.4583729631
C  C28  1  0.15833000  0.95925000  0.59093000  1.0 0.4583729631
C  C29  1  0.88360000  0.59080000  0.89800000  1.0 0.4516335003
C  C30  1  0.61640000  0.40920000  0.39800000  1.0 0.4583729631
C  C31  1  0.38360000  0.90920000  0.10200000  1.0 0.4583729631
C  C32  1  0.11640000  0.09080000  0.60200000  1.0 0.4516335003
C  C33  1  0.25060000  0.29144000  0.55193000  1.0 0.4397685781
C  C34  1  0.24940000  0.70856000  0.05193000  1.0 0.4397685781
C  C35  1  0.75060000  0.20856000  0.44807000  1.0 0.4397685781
C  C36  1  0.74940000  0.79144000  0.94807000  1.0 0.4516335003
C  C37  1  0.39991000  0.27500000  0.51427000  1.0 0.4583729631
C  C38  1  0.10009000  0.72500000  0.01427000  1.0 0.4583729631
C  C39  1  0.89991000  0.22500000  0.48573000  1.0 0.4583729631
C  C40  1  0.60009000  0.77500000  0.98573000  1.0 0.4583729631
C  C41  1  0.95385000  0.95067000  0.94268000  1.0 0.4516335003
C  C42  1  0.54615000  0.04933000  0.44268000  1.0 0.4516335003
C  C43  1  0.45385000  0.54933000  0.05732000  1.0 0.4583729631
C  C44  1  0.04615000  0.45067000  0.55732000  1.0 0.4516335003
C  C45  1  0.90947000  0.08088000  0.95613000  1.0 0.4516335003
C  C46  1  0.59053000  0.91912000  0.45613000  1.0 0.4516335003
C  C47  1  0.40947000  0.41912000  0.04387000  1.0 0.4516335003
C  C48  1  0.09053000  0.58088000  0.54387000  1.0 0.4516335003
N  N1  1  0.82653000  0.24429000  0.83416000  1.0 -0.4207380013
N  N2  1  0.67347000  0.75571000  0.33416000  1.0 -0.4207380013
N  N3  1  0.32653000  0.25571000  0.16584000  1.0 -0.4207380013
N  N4  1  0.17347000  0.74429000  0.66584000  1.0 -0.4207380013
N  N5  1  0.90505000  0.25904000  0.64324000  1.0 -0.4207380013
N  N6  1  0.59495000  0.74096000  0.14324000  1.0 -0.4207380013
N  N7  1  0.40505000  0.24096000  0.35676000  1.0 -0.4207380013
N  N8  1  0.09495000  0.75904000  0.85676000  1.0 -0.4207380013
N  N9  1  0.78571000  0.24062000  0.72374000  1.0 -0.3479998657
N  N10  1  0.71429000  0.75938000  0.22374000  1.0 -0.3479998657
N  N11  1  0.28571000  0.25938000  0.27626000  1.0 -0.3479998657
N  N12  1  0.21429000  0.74062000  0.77626000  1.0 -0.3479998657
N  N13  1  0.00883000  0.28340000  0.88437000  1.0 -0.4305206276
N  N14  1  0.49117000  0.71660000  0.38437000  1.0 -0.4305206276
N  N15  1  0.50883000  0.21660000  0.11563000  1.0 -0.4207380013
N  N16  1  0.99117000  0.78340000  0.61563000  1.0 -0.4305206276
N  N17  1  0.09219000  0.28553000  0.68925000  1.0 -0.4207380013
N  N18  1  0.40781000  0.71447000  0.18925000  1.0 -0.4207380013
N  N19  1  0.59219000  0.21447000  0.31075000  1.0 -0.4207380013
N  N20  1  0.90781000  0.78553000  0.81075000  1.0 -0.4207380013
N  N21  1  0.12444000  0.30035000  0.80063000  1.0 -0.3379707434
N  N22  1  0.37556000  0.69965000  0.30063000  1.0 -0.3379707434
N  N23  1  0.62444000  0.19965000  0.19937000  1.0 -0.3379707434
N  N24  1  0.87556000  0.80035000  0.69937000  1.0 -0.3379707434
N  N25  1  0.92443000  0.28746000  0.01630000  1.0 -0.4305206276
N  N26  1  0.57557000  0.71254000  0.51630000  1.0 -0.4305206276
N  N27  1  0.42443000  0.21254000  0.98370000  1.0 -0.4305206276
N  N28  1  0.07557000  0.78746000  0.48370000  1.0 -0.4305206276
N  N29  1  0.22527000  0.24495000  0.05076000  1.0 -0.4064437721
N  N30  1  0.27473000  0.75505000  0.55076000  1.0 -0.4064437721
N  N31  1  0.72527000  0.25505000  0.94924000  1.0 -0.4039893323
N  N32  1  0.77473000  0.74495000  0.44924000  1.0 -0.4064437721
N  N33  1  0.06192000  0.26980000  0.08267000  1.0 -0.3597448071
N  N34  1  0.43808000  0.73020000  0.58267000  1.0 -0.3597448071
N  N35  1  0.56192000  0.23020000  0.91733000  1.0 -0.3597448071
N  N36  1  0.93808000  0.76980000  0.41733000  1.0 -0.3597448071
N  N37  1  0.84943000  0.39110000  0.91565000  1.0 -0.4506637825
N  N38  1  0.65057000  0.60890000  0.41565000  1.0 -0.4506637825
N  N39  1  0.34943000  0.10890000  0.08435000  1.0 -0.4506637825
N  N40  1  0.15057000  0.89110000  0.58435000  1.0 -0.4506637825
N  N41  1  0.93187000  0.64602000  0.89535000  1.0 -0.4506637825
N  N42  1  0.56813000  0.35398000  0.39535000  1.0 -0.4506637825
N  N43  1  0.43187000  0.85398000  0.10465000  1.0 -0.4425310324
N  N44  1  0.06813000  0.14602000  0.60465000  1.0 -0.4425310324
N  N45  1  0.82024000  0.53411000  0.89998000  1.0 -0.3808278689
N  N46  1  0.67976000  0.46589000  0.39998000  1.0 -0.3808278689
N  N47  1  0.32024000  0.96589000  0.10002000  1.0 -0.3808278689
N  N48  1  0.17976000  0.03411000  0.60002000  1.0 -0.3808278689
N  N49  1  0.17091000  0.28285000  0.55724000  1.0 -0.4305206276
N  N50  1  0.32909000  0.71715000  0.05724000  1.0 -0.4305206276
N  N51  1  0.67091000  0.21715000  0.44276000  1.0 -0.4305206276
N  N52  1  0.82909000  0.78285000  0.94276000  1.0 -0.4305206276
N  N53  1  0.46090000  0.25128000  0.48445000  1.0 -0.4425310324
N  N54  1  0.03910000  0.74872000  0.98445000  1.0 -0.4425310324
N  N55  1  0.96090000  0.24872000  0.51555000  1.0 -0.4425310324
N  N56  1  0.53910000  0.75128000  0.01555000  1.0 -0.4425310324
N  N57  1  0.34108000  0.30786000  0.55262000  1.0 -0.3597448071
N  N58  1  0.15892000  0.69214000  0.05262000  1.0 -0.3597448071
N  N59  1  0.84108000  0.19214000  0.44738000  1.0 -0.3597448071
N  N60  1  0.65892000  0.80786000  0.94738000  1.0 -0.3597448071
N  N61  1  0.98034000  0.89427000  0.91673000  1.0 -0.4425310324
N  N62  1  0.51966000  0.10573000  0.41673000  1.0 -0.4425310324
N  N63  1  0.48034000  0.60573000  0.08327000  1.0 -0.4425310324
N  N64  1  0.01966000  0.39427000  0.58327000  1.0 -0.4425310324
N  N65  1  0.89371000  0.14592000  0.94157000  1.0 -0.4425310324
N  N66  1  0.60629000  0.85408000  0.44157000  1.0 -0.4425310324
N  N67  1  0.39371000  0.35408000  0.05843000  1.0 -0.4425310324
N  N68  1  0.10629000  0.64592000  0.55843000  1.0 -0.4425310324
N  N69  1  0.92617000  0.00918000  0.97836000  1.0 -0.3597448071
N  N70  1  0.57383000  0.99082000  0.47836000  1.0 -0.3597448071
N  N71  1  0.42617000  0.49082000  0.02164000  1.0 -0.3704884225
N  N72  1  0.07383000  0.50918000  0.52164000  1.0 -0.3597448071
