# DDEC6 charges by PACMAN v1.1 (https://github.com/mtap-research/PACMAN-charge/)
data_BEXSEE_ASR_pacman
_symmetry_space_group_name_H-M   'P 1'
_cell_length_a   12.34350000
_cell_length_b   17.86000000
_cell_length_c   12.51750000
_cell_angle_alpha   90.00000000
_cell_angle_beta   112.60100000
_cell_angle_gamma   90.00000000
_symmetry_Int_Tables_number   1
_chemical_formula_structural   Co3H16C30(NO7)2
_chemical_formula_sum   'Co6 H32 C60 N4 O28'
_cell_volume   2547.62101625
_cell_formula_units_Z   2
loop_
 _symmetry_equiv_pos_site_id
 _symmetry_equiv_pos_as_xyz
  1  'x, y, z'
loop_
 _atom_site_type_symbol
 _atom_site_label
 _atom_site_symmetry_multiplicity
 _atom_site_fract_x
 _atom_site_fract_y
 _atom_site_fract_z
 _atom_site_occupancy
 _atom_site_charge
Co  Co1  1  0.50000000  0.00000000  0.00000000  1.0 0.842867924
Co  Co2  1  0.00000000  0.50000000  0.00000000  1.0 0.842867924
Co  Co3  1  0.84260000  0.70447000  0.43751000  1.0 1.0812585485
Co  Co4  1  0.65740000  0.20447000  0.56249000  1.0 1.0812585485
Co  Co5  1  0.15740000  0.29553000  0.56249000  1.0 1.0812585485
Co  Co6  1  0.34260000  0.79553000  0.43751000  1.0 1.0812585485
H  H1  1  0.75130000  0.82130000  0.12120000  1.0 0.1195160579
H  H2  1  0.74870000  0.32130000  0.87880000  1.0 0.1195160579
H  H3  1  0.24870000  0.17870000  0.87880000  1.0 0.1195160579
H  H4  1  0.25130000  0.67870000  0.12120000  1.0 0.1195160579
H  H5  1  0.02810000  0.71550000  0.08780000  1.0 0.1291021836
H  H6  1  0.47190000  0.21550000  0.91220000  1.0 0.1291021836
H  H7  1  0.97190000  0.28450000  0.91220000  1.0 0.1291021836
H  H8  1  0.52810000  0.78450000  0.08780000  1.0 0.1291021836
H  H9  1  0.84880000  0.87480000  0.85640000  1.0 0.1291021836
H  H10  1  0.65120000  0.37480000  0.14360000  1.0 0.1291021836
H  H11  1  0.15120000  0.12520000  0.14360000  1.0 0.1291021836
H  H12  1  0.34880000  0.62520000  0.85640000  1.0 0.1291021836
H  H13  1  0.06420000  0.73250000  0.91120000  1.0 0.0963706021
H  H14  1  0.43580000  0.23250000  0.08880000  1.0 0.0963706021
H  H15  1  0.93580000  0.26750000  0.08880000  1.0 0.0963706021
H  H16  1  0.56420000  0.76750000  0.91120000  1.0 0.0963706021
H  H17  1  0.98860000  0.79230000  0.81540000  1.0 0.0963706021
H  H18  1  0.51140000  0.29230000  0.18460000  1.0 0.0963706021
H  H19  1  0.01140000  0.20770000  0.18460000  1.0 0.0963706021
H  H20  1  0.48860000  0.70770000  0.81540000  1.0 0.0963706021
H  H21  1  0.28750000  0.92650000  0.01570000  1.0 0.1291021836
H  H22  1  0.21250000  0.42650000  0.98430000  1.0 0.1291021836
H  H23  1  0.71250000  0.07350000  0.98430000  1.0 0.1291021836
H  H24  1  0.78750000  0.57350000  0.01570000  1.0 0.1291021836
H  H25  1  0.42870000  0.89340000  0.78590000  1.0 0.1195160579
H  H26  1  0.07130000  0.39340000  0.21410000  1.0 0.1195160579
H  H27  1  0.57130000  0.10660000  0.21410000  1.0 0.1195160579
H  H28  1  0.92870000  0.60660000  0.78590000  1.0 0.1195160579
H  H29  1  0.14730000  0.76880000  0.76910000  1.0 0.1354396772
H  H30  1  0.35270000  0.26880000  0.23090000  1.0 0.1354396772
H  H31  1  0.85270000  0.23120000  0.23090000  1.0 0.1354396772
H  H32  1  0.64730000  0.73120000  0.76910000  1.0 0.1354396772
C  C1  1  0.69210000  0.91671000  0.94450000  1.0 0.5405745041
C  C2  1  0.80790000  0.41671000  0.05550000  1.0 0.5405745041
C  C3  1  0.30790000  0.08329000  0.05550000  1.0 0.5405745041
C  C4  1  0.19210000  0.58329000  0.94450000  1.0 0.5405745041
C  C5  1  0.78720000  0.85786000  0.98390000  1.0 -0.0262123502
C  C6  1  0.71280000  0.35786000  0.01610000  1.0 -0.0262123502
C  C7  1  0.21280000  0.14214000  0.01610000  1.0 -0.0262123502
C  C8  1  0.28720000  0.64214000  0.98390000  1.0 -0.0262123502
C  C9  1  0.80270000  0.81479000  0.08160000  1.0 -0.1131196189
C  C10  1  0.69730000  0.31479000  0.91840000  1.0 -0.1131196189
C  C11  1  0.19730000  0.18521000  0.91840000  1.0 -0.1131196189
C  C12  1  0.30270000  0.68521000  0.08160000  1.0 -0.1131196189
C  C13  1  0.89320000  0.76210000  0.12180000  1.0 -0.0189584474
C  C14  1  0.60680000  0.26210000  0.87820000  1.0 -0.0189584474
C  C15  1  0.10680000  0.23790000  0.87820000  1.0 -0.0189584474
C  C16  1  0.39320000  0.73790000  0.12180000  1.0 -0.0189584474
C  C17  1  0.96680000  0.75141000  0.06140000  1.0 -0.1500778589
C  C18  1  0.53320000  0.25141000  0.93860000  1.0 -0.1500778589
C  C19  1  0.03320000  0.24859000  0.93860000  1.0 -0.1500778589
C  C20  1  0.46680000  0.74859000  0.06140000  1.0 -0.1500778589
C  C21  1  0.94980000  0.79360000  0.96230000  1.0 0.0757789892
C  C22  1  0.55020000  0.29360000  0.03770000  1.0 0.0757789892
C  C23  1  0.05020000  0.20640000  0.03770000  1.0 0.0757789892
C  C24  1  0.44980000  0.70640000  0.96230000  1.0 0.0757789892
C  C25  1  0.86030000  0.84634000  0.92400000  1.0 -0.1500778589
C  C26  1  0.63970000  0.34634000  0.07600000  1.0 -0.1500778589
C  C27  1  0.13970000  0.15366000  0.07600000  1.0 -0.1500778589
C  C28  1  0.36030000  0.65366000  0.92400000  1.0 -0.1500778589
C  C29  1  0.90930000  0.71735000  0.22840000  1.0 0.5670573694
C  C30  1  0.59070000  0.21735000  0.77160000  1.0 0.5670573694
C  C31  1  0.09070000  0.28265000  0.77160000  1.0 0.5670573694
C  C32  1  0.40930000  0.78265000  0.22840000  1.0 0.5670573694
C  C33  1  0.03080000  0.78363000  0.89940000  1.0 -0.0859941057
C  C34  1  0.46920000  0.28363000  0.10060000  1.0 -0.0859941057
C  C35  1  0.96920000  0.21637000  0.10060000  1.0 -0.0859941057
C  C36  1  0.53080000  0.71637000  0.89940000  1.0 -0.0859941057
C  C37  1  0.20180000  0.84726000  0.89820000  1.0 0.2085500938
C  C38  1  0.29820000  0.34726000  0.10180000  1.0 0.2085500938
C  C39  1  0.79820000  0.15274000  0.10180000  1.0 0.2085500938
C  C40  1  0.70180000  0.65274000  0.89820000  1.0 0.2085500938
C  C41  1  0.28790000  0.90076000  0.94940000  1.0 -0.0355793186
C  C42  1  0.21210000  0.40076000  0.05060000  1.0 -0.0355793186
C  C43  1  0.71210000  0.09924000  0.05060000  1.0 -0.0355793186
C  C44  1  0.78790000  0.59924000  0.94940000  1.0 -0.0355793186
C  C45  1  0.37070000  0.88116000  0.81560000  1.0 0.0400999674
C  C46  1  0.12930000  0.38116000  0.18440000  1.0 0.0400999674
C  C47  1  0.62930000  0.11884000  0.18440000  1.0 0.0400999674
C  C48  1  0.87070000  0.61884000  0.81560000  1.0 0.0400999674
C  C49  1  0.28850000  0.82620000  0.76030000  1.0 -0.0262123502
C  C50  1  0.21150000  0.32620000  0.23970000  1.0 -0.0262123502
C  C51  1  0.71150000  0.17380000  0.23970000  1.0 -0.0262123502
C  C52  1  0.78850000  0.67380000  0.76030000  1.0 -0.0262123502
C  C53  1  0.20270000  0.80740000  0.80340000  1.0 -0.1730716693
C  C54  1  0.29730000  0.30740000  0.19660000  1.0 -0.1730716693
C  C55  1  0.79730000  0.19260000  0.19660000  1.0 -0.1730716693
C  C56  1  0.70270000  0.69260000  0.80340000  1.0 -0.1730716693
C  C57  1  0.28920000  0.78713000  0.65330000  1.0 0.5610380602
C  C58  1  0.21080000  0.28713000  0.34670000  1.0 0.5610380602
C  C59  1  0.71080000  0.21287000  0.34670000  1.0 0.5610380602
C  C60  1  0.78920000  0.71287000  0.65330000  1.0 0.5610380602
N  N1  1  0.37114000  0.91765000  0.90965000  1.0 -0.2157084811
N  N2  1  0.12886000  0.41765000  0.09035000  1.0 -0.2157084811
N  N3  1  0.62886000  0.08235000  0.09035000  1.0 -0.2157084811
N  N4  1  0.87114000  0.58235000  0.90965000  1.0 -0.2157084811
O  O1  1  0.62805000  0.92250000  0.00178000  1.0 -0.5740717518
O  O2  1  0.87195000  0.42250000  0.99822000  1.0 -0.5740717518
O  O3  1  0.37195000  0.07750000  0.99822000  1.0 -0.5740717518
O  O4  1  0.12805000  0.57750000  0.00178000  1.0 -0.5740717518
O  O5  1  0.68410000  0.95741000  0.85842000  1.0 -0.5383607614
O  O6  1  0.81590000  0.45741000  0.14158000  1.0 -0.5383607614
O  O7  1  0.31590000  0.04259000  0.14158000  1.0 -0.5383607614
O  O8  1  0.18410000  0.54259000  0.85842000  1.0 -0.5383607614
O  O9  1  0.99561000  0.67177000  0.26617000  1.0 -0.5040784446
O  O10  1  0.50439000  0.17177000  0.73383000  1.0 -0.5050707328
O  O11  1  0.00439000  0.32823000  0.73383000  1.0 -0.5050707328
O  O12  1  0.49561000  0.82823000  0.26617000  1.0 -0.5040784446
O  O13  1  0.83616000  0.72828000  0.27418000  1.0 -0.5889509785
O  O14  1  0.66384000  0.22828000  0.72582000  1.0 -0.5889509785
O  O15  1  0.16384000  0.27172000  0.72582000  1.0 -0.5889509785
O  O16  1  0.33616000  0.77172000  0.27418000  1.0 -0.5889509785
O  O17  1  0.12227000  0.83890000  0.94890000  1.0 -0.1375429909
O  O18  1  0.37773000  0.33890000  0.05110000  1.0 -0.1375429909
O  O19  1  0.87773000  0.16110000  0.05110000  1.0 -0.1375429909
O  O20  1  0.62227000  0.66110000  0.94890000  1.0 -0.1375429909
O  O21  1  0.34791000  0.81806000  0.60263000  1.0 -0.6077194679
O  O22  1  0.15209000  0.31806000  0.39737000  1.0 -0.6077194679
O  O23  1  0.65209000  0.18194000  0.39737000  1.0 -0.6077194679
O  O24  1  0.84791000  0.68194000  0.60263000  1.0 -0.6077194679
O  O25  1  0.23119000  0.72750000  0.62387000  1.0 -0.5040784446
O  O26  1  0.26881000  0.22750000  0.37613000  1.0 -0.5040784446
O  O27  1  0.76881000  0.27250000  0.37613000  1.0 -0.5040784446
O  O28  1  0.73119000  0.77250000  0.62387000  1.0 -0.5040784446
