# DDEC6 charges by PACMAN v1.1 (https://github.com/mtap-research/PACMAN-charge/)
data_BEXSAA_ASR_pacman
_symmetry_space_group_name_H-M   'P 1'
_cell_length_a   12.55280000
_cell_length_b   18.18900000
_cell_length_c   12.66300000
_cell_angle_alpha   90.00000000
_cell_angle_beta   113.38800000
_cell_angle_gamma   90.00000000
_symmetry_Int_Tables_number   1
_chemical_formula_structural   Mn3H16C30(NO7)2
_chemical_formula_sum   'Mn6 H32 C60 N4 O28'
_cell_volume   2653.70089713
_cell_formula_units_Z   2
loop_
 _symmetry_equiv_pos_site_id
 _symmetry_equiv_pos_as_xyz
  1  'x, y, z'
loop_
 _atom_site_type_symbol
 _atom_site_label
 _atom_site_symmetry_multiplicity
 _atom_site_fract_x
 _atom_site_fract_y
 _atom_site_fract_z
 _atom_site_occupancy
 _atom_site_charge
Mn  Mn1  1  0.67734000  0.20909000  0.07290000  1.0 1.0565638981
Mn  Mn2  1  0.82266000  0.70909000  0.92710000  1.0 1.0534686687
Mn  Mn3  1  0.32266000  0.79091000  0.92710000  1.0 1.0534686687
Mn  Mn4  1  0.17734000  0.29091000  0.07290000  1.0 1.0534686687
Mn  Mn5  1  0.50000000  0.00000000  0.50000000  1.0 0.846341028
Mn  Mn6  1  0.00000000  0.50000000  0.50000000  1.0 0.846341028
H  H1  1  0.25910000  0.18250000  0.39140000  1.0 0.1183246515
H  H2  1  0.24090000  0.68250000  0.60860000  1.0 0.1183246515
H  H3  1  0.74090000  0.81750000  0.60860000  1.0 0.1183246515
H  H4  1  0.75910000  0.31750000  0.39140000  1.0 0.1183246515
H  H5  1  0.16680000  0.12780000  0.65360000  1.0 0.1304350934
H  H6  1  0.33320000  0.62780000  0.34640000  1.0 0.1304350934
H  H7  1  0.83320000  0.87220000  0.34640000  1.0 0.1304350934
H  H8  1  0.66680000  0.37220000  0.65360000  1.0 0.1304350934
H  H9  1  0.98410000  0.28230000  0.42110000  1.0 0.1304350934
H  H10  1  0.51590000  0.78230000  0.57890000  1.0 0.1304350934
H  H11  1  0.01590000  0.71770000  0.57890000  1.0 0.1304350934
H  H12  1  0.48410000  0.21770000  0.42110000  1.0 0.1304350934
H  H13  1  0.02510000  0.20300000  0.69160000  1.0 0.0994997426
H  H14  1  0.47490000  0.70300000  0.30840000  1.0 0.0994997426
H  H15  1  0.97490000  0.79700000  0.30840000  1.0 0.0994997426
H  H16  1  0.52510000  0.29700000  0.69160000  1.0 0.0994997426
H  H17  1  0.94990000  0.26330000  0.59900000  1.0 0.0994997426
H  H18  1  0.55010000  0.76330000  0.40100000  1.0 0.0994997426
H  H19  1  0.05010000  0.73670000  0.40100000  1.0 0.0994997426
H  H20  1  0.44990000  0.23670000  0.59900000  1.0 0.0994997426
H  H21  1  0.87450000  0.22340000  0.74120000  1.0 0.1386722617
H  H22  1  0.62550000  0.72340000  0.25880000  1.0 0.1386722617
H  H23  1  0.12550000  0.77660000  0.25880000  1.0 0.1386722617
H  H24  1  0.37450000  0.27660000  0.74120000  1.0 0.1386722617
H  H25  1  0.59570000  0.10390000  0.72300000  1.0 0.1183246515
H  H26  1  0.90430000  0.60390000  0.27700000  1.0 0.1183246515
H  H27  1  0.40430000  0.89610000  0.27700000  1.0 0.1183246515
H  H28  1  0.09570000  0.39610000  0.72300000  1.0 0.1183246515
H  H29  1  0.72580000  0.07260000  0.48980000  1.0 0.1304350934
H  H30  1  0.77420000  0.57260000  0.51020000  1.0 0.1304350934
H  H31  1  0.27420000  0.92740000  0.51020000  1.0 0.1304350934
H  H32  1  0.22580000  0.42740000  0.48980000  1.0 0.1304350934
C  C1  1  0.10250000  0.28273000  0.28340000  1.0 0.5675176524
C  C2  1  0.39750000  0.78273000  0.71660000  1.0 0.5675176524
C  C3  1  0.89750000  0.71727000  0.71660000  1.0 0.5675176524
C  C4  1  0.60250000  0.21727000  0.28340000  1.0 0.5675176524
C  C5  1  0.11880000  0.23879000  0.39030000  1.0 -0.0177908541
C  C6  1  0.38120000  0.73879000  0.60970000  1.0 -0.0177908541
C  C7  1  0.88120000  0.76121000  0.60970000  1.0 -0.0177908541
C  C8  1  0.61880000  0.26121000  0.39030000  1.0 -0.0177908541
C  C9  1  0.20900000  0.18832000  0.43070000  1.0 -0.1180175886
C  C10  1  0.29100000  0.68832000  0.56930000  1.0 -0.1180175886
C  C11  1  0.79100000  0.81168000  0.56930000  1.0 -0.1180175886
C  C12  1  0.70900000  0.31168000  0.43070000  1.0 -0.1180175886
C  C13  1  0.22690000  0.14610000  0.52800000  1.0 -0.0285854705
C  C14  1  0.27310000  0.64610000  0.47200000  1.0 -0.0285854705
C  C15  1  0.77310000  0.85390000  0.47200000  1.0 -0.0285854705
C  C16  1  0.72690000  0.35390000  0.52800000  1.0 -0.0285854705
C  C17  1  0.32170000  0.08884000  0.56630000  1.0 0.5444186173
C  C18  1  0.17830000  0.58884000  0.43370000  1.0 0.5453097067
C  C19  1  0.67830000  0.91116000  0.43370000  1.0 0.5453097067
C  C20  1  0.82170000  0.41116000  0.56630000  1.0 0.5453097067
C  C21  1  0.15390000  0.15565000  0.58610000  1.0 -0.1568653815
C  C22  1  0.34610000  0.65565000  0.41390000  1.0 -0.1568653815
C  C23  1  0.84610000  0.84435000  0.41390000  1.0 -0.1568653815
C  C24  1  0.65390000  0.34435000  0.58610000  1.0 -0.1568653815
C  C25  1  0.06240000  0.20556000  0.54620000  1.0 0.0770391125
C  C26  1  0.43760000  0.70556000  0.45380000  1.0 0.0770391125
C  C27  1  0.93760000  0.79444000  0.45380000  1.0 0.0770391125
C  C28  1  0.56240000  0.29444000  0.54620000  1.0 0.0770391125
C  C29  1  0.04570000  0.24758000  0.44820000  1.0 -0.1530586489
C  C30  1  0.45430000  0.74758000  0.55180000  1.0 -0.1530586489
C  C31  1  0.95430000  0.75242000  0.55180000  1.0 -0.1530586489
C  C32  1  0.54570000  0.25242000  0.44820000  1.0 -0.1530586489
C  C33  1  0.98270000  0.21303000  0.60850000  1.0 -0.0872725628
C  C34  1  0.51730000  0.71303000  0.39150000  1.0 -0.0872725628
C  C35  1  0.01730000  0.78697000  0.39150000  1.0 -0.0872725628
C  C36  1  0.48270000  0.28697000  0.60850000  1.0 -0.0872725628
C  C37  1  0.81530000  0.14971000  0.60850000  1.0 0.2138537235
C  C38  1  0.68470000  0.64971000  0.39150000  1.0 0.2138537235
C  C39  1  0.18470000  0.85029000  0.39150000  1.0 0.2138537235
C  C40  1  0.31530000  0.35029000  0.60850000  1.0 0.2138537235
C  C41  1  0.81780000  0.18663000  0.70560000  1.0 -0.1794779681
C  C42  1  0.68220000  0.68663000  0.29440000  1.0 -0.1794779681
C  C43  1  0.18220000  0.81337000  0.29440000  1.0 -0.1794779681
C  C44  1  0.31780000  0.31337000  0.70560000  1.0 -0.1794779681
C  C45  1  0.73550000  0.16869000  0.74980000  1.0 -0.0285854705
C  C46  1  0.76450000  0.66869000  0.25020000  1.0 -0.0285854705
C  C47  1  0.26450000  0.83131000  0.25020000  1.0 -0.0285854705
C  C48  1  0.23550000  0.33131000  0.74980000  1.0 -0.0285854705
C  C49  1  0.73860000  0.20567000  0.85750000  1.0 0.5611880265
C  C50  1  0.76140000  0.70567000  0.14250000  1.0 0.5611880265
C  C51  1  0.26140000  0.79433000  0.14250000  1.0 0.5611880265
C  C52  1  0.23860000  0.29433000  0.85750000  1.0 0.5611880265
C  C53  1  0.65190000  0.11590000  0.69300000  1.0 0.0357449531
C  C54  1  0.84810000  0.61590000  0.30700000  1.0 0.0357449531
C  C55  1  0.34810000  0.88410000  0.30700000  1.0 0.0357449531
C  C56  1  0.15190000  0.38410000  0.69300000  1.0 0.0357449531
C  C57  1  0.72800000  0.09749000  0.55660000  1.0 -0.0285854705
C  C58  1  0.77200000  0.59749000  0.44340000  1.0 -0.0285854705
C  C59  1  0.27200000  0.90251000  0.44340000  1.0 -0.0285854705
C  C60  1  0.22800000  0.40251000  0.55660000  1.0 -0.0285854705
N  N1  1  0.64752000  0.08127000  0.59770000  1.0 -0.2118024126
N  N2  1  0.85248000  0.58127000  0.40230000  1.0 -0.2118024126
N  N3  1  0.35248000  0.91873000  0.40230000  1.0 -0.2118024126
N  N4  1  0.14752000  0.41873000  0.59770000  1.0 -0.2118024126
O  O1  1  0.17340000  0.27077000  0.23863000  1.0 -0.577712477
O  O2  1  0.32660000  0.77077000  0.76137000  1.0 -0.577712477
O  O3  1  0.82660000  0.72923000  0.76137000  1.0 -0.577712477
O  O4  1  0.67340000  0.22923000  0.23863000  1.0 -0.577712477
O  O5  1  0.01997000  0.32849000  0.24592000  1.0 -0.5109496214
O  O6  1  0.48003000  0.82849000  0.75408000  1.0 -0.5109496214
O  O7  1  0.98003000  0.67151000  0.75408000  1.0 -0.5109496214
O  O8  1  0.51997000  0.17151000  0.24592000  1.0 -0.5109496214
O  O9  1  0.33460000  0.05075000  0.65458000  1.0 -0.5369047977
O  O10  1  0.16540000  0.55075000  0.34542000  1.0 -0.5369047977
O  O11  1  0.66540000  0.94925000  0.34542000  1.0 -0.5369047977
O  O12  1  0.83460000  0.44925000  0.65458000  1.0 -0.5369047977
O  O13  1  0.37900000  0.08164000  0.50565000  1.0 -0.5655716218
O  O14  1  0.12100000  0.58164000  0.49435000  1.0 -0.5655716218
O  O15  1  0.62100000  0.91836000  0.49435000  1.0 -0.5655716218
O  O16  1  0.87900000  0.41836000  0.50565000  1.0 -0.5655716218
O  O17  1  0.89106000  0.15915000  0.55670000  1.0 -0.1396818578
O  O18  1  0.60894000  0.65915000  0.44330000  1.0 -0.1396818578
O  O19  1  0.10894000  0.84085000  0.44330000  1.0 -0.1396818578
O  O20  1  0.39106000  0.34085000  0.55670000  1.0 -0.1396818578
O  O21  1  0.67150000  0.18359000  0.90150000  1.0 -0.5871144392
O  O22  1  0.82850000  0.68359000  0.09850000  1.0 -0.5871144392
O  O23  1  0.32850000  0.81641000  0.09850000  1.0 -0.5871144392
O  O24  1  0.17150000  0.31641000  0.90150000  1.0 -0.5871144392
O  O25  1  0.80900000  0.25836000  0.89610000  1.0 -0.5170075653
O  O26  1  0.69100000  0.75836000  0.10390000  1.0 -0.5109496214
O  O27  1  0.19100000  0.74164000  0.10390000  1.0 -0.5170075653
O  O28  1  0.30900000  0.24164000  0.89610000  1.0 -0.5170075653
