# DDEC6 charges by PACMAN v1.1 (https://github.com/mtap-research/PACMAN-charge/)
data_BEXVAD01_ASR_pacman
_symmetry_space_group_name_H-M   'P 1'
_cell_length_a   10.96520000
_cell_length_b   10.96520000
_cell_length_c   12.22800000
_cell_angle_alpha   68.19640000
_cell_angle_beta   111.80400000
_cell_angle_gamma   99.92920000
_symmetry_Int_Tables_number   1
_chemical_formula_structural   Co2H12C18O11
_chemical_formula_sum   'Co4 H24 C36 O22'
_cell_volume   1266.39315024
_cell_formula_units_Z   2
loop_
 _symmetry_equiv_pos_site_id
 _symmetry_equiv_pos_as_xyz
  1  'x, y, z'
loop_
 _atom_site_type_symbol
 _atom_site_label
 _atom_site_symmetry_multiplicity
 _atom_site_fract_x
 _atom_site_fract_y
 _atom_site_fract_z
 _atom_site_occupancy
 _atom_site_charge
Co  Co1  1  0.26534000  0.07210000  0.89762000  1.0 0.9990396887
Co  Co2  1  0.07210000  0.26534000  0.60238000  1.0 0.9990396887
Co  Co3  1  0.73466000  0.92790000  0.10238000  1.0 0.9990396887
Co  Co4  1  0.92790000  0.73466000  0.39762000  1.0 0.9990396887
H  H1  1  0.16910000  0.62250000  0.75020000  1.0 0.1363973316
H  H2  1  0.62250000  0.16910000  0.74980000  1.0 0.1363973316
H  H3  1  0.38660000  0.68920000  0.07090000  1.0 0.1191126235
H  H4  1  0.68920000  0.38660000  0.42910000  1.0 0.1191126235
H  H5  1  0.36080000  0.32940000  0.05050000  1.0 0.1363973316
H  H6  1  0.32940000  0.36080000  0.44950000  1.0 0.1363973316
H  H7  1  0.07570000  0.00690000  0.73620000  1.0 0.3754651413
H  H8  1  0.00690000  0.07570000  0.76380000  1.0 0.3754651413
H  H9  1  0.54680000  0.39020000  0.22540000  1.0 0.1942982242
H  H10  1  0.39020000  0.54680000  0.27460000  1.0 0.1942982242
H  H11  1  0.56180000  0.53860000  0.21830000  1.0 0.1191126235
H  H12  1  0.53860000  0.56180000  0.28170000  1.0 0.1191126235
H  H13  1  0.83090000  0.37750000  0.24980000  1.0 0.1363973316
H  H14  1  0.37750000  0.83090000  0.25020000  1.0 0.1363973316
H  H15  1  0.61340000  0.31080000  0.92910000  1.0 0.1191126235
H  H16  1  0.31080000  0.61340000  0.57090000  1.0 0.1191126235
H  H17  1  0.63920000  0.67060000  0.94950000  1.0 0.1363973316
H  H18  1  0.67060000  0.63920000  0.55050000  1.0 0.1363973316
H  H19  1  0.92430000  0.99310000  0.26380000  1.0 0.3754651413
H  H20  1  0.99310000  0.92430000  0.23620000  1.0 0.3754651413
H  H21  1  0.45320000  0.60980000  0.77460000  1.0 0.1942982242
H  H22  1  0.60980000  0.45320000  0.72540000  1.0 0.1942982242
H  H23  1  0.43820000  0.46140000  0.78170000  1.0 0.1191126235
H  H24  1  0.46140000  0.43820000  0.71830000  1.0 0.1191126235
C  C1  1  0.20920000  0.36240000  0.82210000  1.0 0.5772443205
C  C2  1  0.36240000  0.20920000  0.67790000  1.0 0.5772443205
C  C3  1  0.25860000  0.46100000  0.88910000  1.0 -0.0259152449
C  C4  1  0.46100000  0.25860000  0.61090000  1.0 -0.0259152449
C  C5  1  0.22390000  0.59190000  0.83300000  1.0 -0.1672291666
C  C6  1  0.59190000  0.22390000  0.66700000  1.0 -0.1672291666
C  C7  1  0.27170000  0.67630000  0.90170000  1.0 0.0017350289
C  C8  1  0.67630000  0.27170000  0.59830000  1.0 0.0017350289
C  C9  1  0.35430000  0.63170000  0.02580000  1.0 -0.2967223808
C  C10  1  0.63170000  0.35430000  0.47420000  1.0 -0.2967223808
C  C11  1  0.38820000  0.50100000  0.08180000  1.0 0.1583061383
C  C12  1  0.50100000  0.38820000  0.41820000  1.0 0.1583061383
C  C13  1  0.33910000  0.41730000  0.01280000  1.0 -0.2779355704
C  C14  1  0.41730000  0.33910000  0.48720000  1.0 -0.2779355704
C  C15  1  0.22860000  0.81580000  0.84750000  1.0 0.5747305542
C  C16  1  0.81580000  0.22860000  0.65250000  1.0 0.5747305542
C  C17  1  0.49980000  0.46480000  0.21160000  1.0 0.0163012963
C  C18  1  0.46480000  0.49980000  0.28840000  1.0 0.0163012963
C  C19  1  0.79080000  0.63760000  0.17790000  1.0 0.5772443205
C  C20  1  0.63760000  0.79080000  0.32210000  1.0 0.5772443205
C  C21  1  0.74140000  0.53900000  0.11090000  1.0 -0.0248556867
C  C22  1  0.53900000  0.74140000  0.38910000  1.0 -0.0248556867
C  C23  1  0.77610000  0.40810000  0.16700000  1.0 -0.1672291666
C  C24  1  0.40810000  0.77610000  0.33300000  1.0 -0.1672291666
C  C25  1  0.72830000  0.32370000  0.09830000  1.0 0.0017350289
C  C26  1  0.32370000  0.72830000  0.40170000  1.0 0.0017350289
C  C27  1  0.64570000  0.36830000  0.97420000  1.0 -0.2967223808
C  C28  1  0.36830000  0.64570000  0.52580000  1.0 -0.2967223808
C  C29  1  0.61180000  0.49900000  0.91820000  1.0 0.1583061383
C  C30  1  0.49900000  0.61180000  0.58180000  1.0 0.1583061383
C  C31  1  0.66090000  0.58270000  0.98720000  1.0 -0.2779355704
C  C32  1  0.58270000  0.66090000  0.51280000  1.0 -0.2779355704
C  C33  1  0.77140000  0.18420000  0.15250000  1.0 0.5747305542
C  C34  1  0.18420000  0.77140000  0.34750000  1.0 0.5747305542
C  C35  1  0.50020000  0.53520000  0.78840000  1.0 0.0163012963
C  C36  1  0.53520000  0.50020000  0.71160000  1.0 0.0163012963
O  O1  1  0.22024000  0.24376000  0.89220000  1.0 -0.5839837402
O  O2  1  0.24376000  0.22024000  0.60780000  1.0 -0.5839837402
O  O3  1  0.15998000  0.39764000  0.70610000  1.0 -0.5586271047
O  O4  1  0.39764000  0.15998000  0.79390000  1.0 -0.5586271047
O  O5  1  0.12645000  0.84715000  0.75590000  1.0 -0.525575301
O  O6  1  0.84715000  0.12645000  0.74410000  1.0 -0.525575301
O  O7  1  0.30064000  0.89324000  0.90190000  1.0 -0.6003798008
O  O8  1  0.89324000  0.30064000  0.59810000  1.0 -0.6003798008
O  O9  1  0.43382000  0.43310000  0.20424000  1.0 -0.0043571412
O  O10  1  0.43310000  0.43382000  0.29576000  1.0 -0.0043571412
O  O11  1  0.07962000  0.07962000  0.75000000  1.0 -0.7344082802
O  O12  1  0.77976000  0.75624000  0.10780000  1.0 -0.5839837402
O  O13  1  0.75624000  0.77976000  0.39220000  1.0 -0.5839837402
O  O14  1  0.84002000  0.60236000  0.29390000  1.0 -0.5586271047
O  O15  1  0.60236000  0.84002000  0.20610000  1.0 -0.5586271047
O  O16  1  0.87355000  0.15285000  0.24410000  1.0 -0.525575301
O  O17  1  0.15285000  0.87355000  0.25590000  1.0 -0.525575301
O  O18  1  0.69936000  0.10676000  0.09810000  1.0 -0.6003798008
O  O19  1  0.10676000  0.69936000  0.40190000  1.0 -0.6003798008
O  O20  1  0.56618000  0.56690000  0.79576000  1.0 -0.005223182
O  O21  1  0.56690000  0.56618000  0.70424000  1.0 -0.005223182
O  O22  1  0.92038000  0.92038000  0.25000000  1.0 -0.7356381625
