# DDEC6 charges by PACMAN v1.1 (https://github.com/mtap-research/PACMAN-charge/)
data_BEXVEH_ASR_pacman
_symmetry_space_group_name_H-M   'P 1'
_cell_length_a   22.85950000
_cell_length_b   18.74200000
_cell_length_c   32.48050000
_cell_angle_alpha   90.00000000
_cell_angle_beta   118.00600000
_cell_angle_gamma   90.00000000
_symmetry_Int_Tables_number   1
_chemical_formula_structural   Cu6H26C52O27
_chemical_formula_sum   'Cu24 H104 C208 O108'
_cell_volume   12286.15835789
_cell_formula_units_Z   4
loop_
 _symmetry_equiv_pos_site_id
 _symmetry_equiv_pos_as_xyz
  1  'x, y, z'
loop_
 _atom_site_type_symbol
 _atom_site_label
 _atom_site_symmetry_multiplicity
 _atom_site_fract_x
 _atom_site_fract_y
 _atom_site_fract_z
 _atom_site_occupancy
 _atom_site_charge
Cu  Cu1  1  0.30867000  0.19754000  0.52979000  1.0 0.8752945035
Cu  Cu2  1  0.69133000  0.69754000  0.97021000  1.0 0.8752945035
Cu  Cu3  1  0.69133000  0.80246000  0.47021000  1.0 0.8717599985
Cu  Cu4  1  0.30867000  0.30246000  0.02979000  1.0 0.8717599985
Cu  Cu5  1  0.19701000  0.26667000  0.51514000  1.0 0.8717599985
Cu  Cu6  1  0.80299000  0.76667000  0.98486000  1.0 0.8717599985
Cu  Cu7  1  0.80299000  0.73333000  0.48486000  1.0 0.8717599985
Cu  Cu8  1  0.19701000  0.23333000  0.01514000  1.0 0.8717599985
Cu  Cu9  1  0.19906000  0.69251000  0.50116000  1.0 0.8717599985
Cu  Cu10  1  0.80094000  0.19251000  0.99884000  1.0 0.8752945035
Cu  Cu11  1  0.80094000  0.30749000  0.49884000  1.0 0.8717599985
Cu  Cu12  1  0.19906000  0.80749000  0.00116000  1.0 0.8717599985
Cu  Cu13  1  0.30901000  0.75983000  0.51496000  1.0 0.8586432009
Cu  Cu14  1  0.69099000  0.25983000  0.98504000  1.0 0.8586432009
Cu  Cu15  1  0.69099000  0.24017000  0.48504000  1.0 0.8586432009
Cu  Cu16  1  0.30901000  0.74017000  0.01496000  1.0 0.8586432009
Cu  Cu17  1  0.70214000  0.49737000  0.19473000  1.0 0.8717599985
Cu  Cu18  1  0.29786000  0.99737000  0.30527000  1.0 0.8717599985
Cu  Cu19  1  0.29786000  0.50263000  0.80527000  1.0 0.8717599985
Cu  Cu20  1  0.70214000  0.00263000  0.69473000  1.0 0.8717599985
Cu  Cu21  1  0.81205000  0.49967000  0.27595000  1.0 0.8586432009
Cu  Cu22  1  0.18795000  0.99967000  0.22405000  1.0 0.8586432009
Cu  Cu23  1  0.18795000  0.50033000  0.72405000  1.0 0.8586432009
Cu  Cu24  1  0.81205000  0.00033000  0.77595000  1.0 0.8586432009
H  H1  1  0.25230000  0.86750000  0.14280000  1.0 0.1407327085
H  H2  1  0.74770000  0.36750000  0.35720000  1.0 0.1407327085
H  H3  1  0.74770000  0.13250000  0.85720000  1.0 0.1407327085
H  H4  1  0.25230000  0.63250000  0.64280000  1.0 0.1407327085
H  H5  1  0.41500000  0.86320000  0.27060000  1.0 0.1483039167
H  H6  1  0.58500000  0.36320000  0.22940000  1.0 0.1483039167
H  H7  1  0.58500000  0.13680000  0.72940000  1.0 0.1483039167
H  H8  1  0.41500000  0.63680000  0.77060000  1.0 0.1483039167
H  H9  1  0.41770000  0.76440000  0.16110000  1.0 0.1211764782
H  H10  1  0.58230000  0.26440000  0.33890000  1.0 0.1211764782
H  H11  1  0.58230000  0.23560000  0.83890000  1.0 0.1211764782
H  H12  1  0.41770000  0.73560000  0.66110000  1.0 0.1211764782
H  H13  1  0.49680000  0.70740000  0.21890000  1.0 0.1085655948
H  H14  1  0.50320000  0.20740000  0.28110000  1.0 0.1085655948
H  H15  1  0.50320000  0.29260000  0.78110000  1.0 0.1085655948
H  H16  1  0.49680000  0.79260000  0.71890000  1.0 0.1085655948
H  H17  1  0.52800000  0.77800000  0.20970000  1.0 0.1085655948
H  H18  1  0.47200000  0.27800000  0.29030000  1.0 0.1085655948
H  H19  1  0.47200000  0.22200000  0.79030000  1.0 0.1085655948
H  H20  1  0.52800000  0.72200000  0.70970000  1.0 0.1085655948
H  H21  1  0.59440000  0.78030000  0.32220000  1.0 0.131741014
H  H22  1  0.40560000  0.28030000  0.17780000  1.0 0.131741014
H  H23  1  0.40560000  0.21970000  0.67780000  1.0 0.131741014
H  H24  1  0.59440000  0.71970000  0.82220000  1.0 0.131741014
H  H25  1  0.75380000  0.65630000  0.34820000  1.0 0.1407327085
H  H26  1  0.24620000  0.15630000  0.15180000  1.0 0.1407327085
H  H27  1  0.24620000  0.34370000  0.65180000  1.0 0.1407327085
H  H28  1  0.75380000  0.84370000  0.84820000  1.0 0.1407327085
H  H29  1  0.59840000  0.66570000  0.21750000  1.0 0.1211764782
H  H30  1  0.40160000  0.16570000  0.28250000  1.0 0.1211764782
H  H31  1  0.40160000  0.33430000  0.78250000  1.0 0.1211764782
H  H32  1  0.59840000  0.83430000  0.71750000  1.0 0.1211764782
H  H33  1  0.75490000  0.33630000  0.12440000  1.0 0.1407327085
H  H34  1  0.24510000  0.83630000  0.37560000  1.0 0.1407327085
H  H35  1  0.24510000  0.66370000  0.87560000  1.0 0.1407327085
H  H36  1  0.75490000  0.16370000  0.62440000  1.0 0.1407327085
H  H37  1  0.90480000  0.20160000  0.14770000  1.0 0.1483039167
H  H38  1  0.09520000  0.70160000  0.35230000  1.0 0.1483039167
H  H39  1  0.09520000  0.79840000  0.85230000  1.0 0.1483039167
H  H40  1  0.90480000  0.29840000  0.64770000  1.0 0.1483039167
H  H41  1  0.91140000  0.32080000  0.25370000  1.0 0.1211764782
H  H42  1  0.08860000  0.82080000  0.24630000  1.0 0.1211764782
H  H43  1  0.08860000  0.67920000  0.74630000  1.0 0.1211764782
H  H44  1  0.91140000  0.17920000  0.75370000  1.0 0.1211764782
H  H45  1  0.01720000  0.29310000  0.28220000  1.0 0.1085655948
H  H46  1  0.98280000  0.79310000  0.21780000  1.0 0.1085655948
H  H47  1  0.98280000  0.70690000  0.71780000  1.0 0.1085655948
H  H48  1  0.01720000  0.20690000  0.78220000  1.0 0.1085655948
H  H49  1  0.98110000  0.22930000  0.29370000  1.0 0.1085655948
H  H50  1  0.01890000  0.72930000  0.20630000  1.0 0.1085655948
H  H51  1  0.01890000  0.77070000  0.70630000  1.0 0.1085655948
H  H52  1  0.98110000  0.27070000  0.79370000  1.0 0.1085655948
H  H53  1  0.08030000  0.15400000  0.25830000  1.0 0.131741014
H  H54  1  0.91970000  0.65400000  0.24170000  1.0 0.131741014
H  H55  1  0.91970000  0.84600000  0.74170000  1.0 0.131741014
H  H56  1  0.08030000  0.34600000  0.75830000  1.0 0.131741014
H  H57  1  0.23850000  0.13090000  0.38640000  1.0 0.1407327085
H  H58  1  0.76150000  0.63090000  0.11360000  1.0 0.1407327085
H  H59  1  0.76150000  0.86910000  0.61360000  1.0 0.1407327085
H  H60  1  0.23850000  0.36910000  0.88640000  1.0 0.1407327085
H  H61  1  0.08500000  0.25710000  0.36860000  1.0 0.1211764782
H  H62  1  0.91500000  0.75710000  0.13140000  1.0 0.1211764782
H  H63  1  0.91500000  0.74290000  0.63140000  1.0 0.1211764782
H  H64  1  0.08500000  0.24290000  0.86860000  1.0 0.1211764782
H  H65  1  0.25610000  0.97760000  0.53150000  1.0 0.1407327085
H  H66  1  0.74390000  0.47760000  0.96850000  1.0 0.1407327085
H  H67  1  0.74390000  0.02240000  0.46850000  1.0 0.1407327085
H  H68  1  0.25610000  0.52240000  0.03150000  1.0 0.1407327085
H  H69  1  0.09090000  0.86710000  0.50830000  1.0 0.131741014
H  H70  1  0.90910000  0.36710000  0.99170000  1.0 0.131741014
H  H71  1  0.90910000  0.13290000  0.49170000  1.0 0.131741014
H  H72  1  0.09090000  0.63290000  0.00830000  1.0 0.131741014
H  H73  1  0.09180000  0.08180000  0.51600000  1.0 0.131741014
H  H74  1  0.90820000  0.58180000  0.98400000  1.0 0.131741014
H  H75  1  0.90820000  0.91820000  0.48400000  1.0 0.131741014
H  H76  1  0.09180000  0.41820000  0.01600000  1.0 0.131741014
H  H77  1  0.01930000  0.94260000  0.52870000  1.0 0.1211764782
H  H78  1  0.98070000  0.44260000  0.97130000  1.0 0.1211764782
H  H79  1  0.98070000  0.05740000  0.47130000  1.0 0.1211764782
H  H80  1  0.01930000  0.55740000  0.02870000  1.0 0.1211764782
H  H81  1  0.99330000  0.94130000  0.47370000  1.0 0.1211764782
H  H82  1  0.00670000  0.44130000  0.02630000  1.0 0.1211764782
H  H83  1  0.00670000  0.05870000  0.52630000  1.0 0.1211764782
H  H84  1  0.99330000  0.55870000  0.97370000  1.0 0.1211764782
H  H85  1  0.41830000  0.36780000  0.51110000  1.0 0.131741014
H  H86  1  0.58170000  0.86780000  0.98890000  1.0 0.131741014
H  H87  1  0.58170000  0.63220000  0.48890000  1.0 0.131741014
H  H88  1  0.41830000  0.13220000  0.01110000  1.0 0.131741014
H  H89  1  0.26440000  0.47790000  0.50630000  1.0 0.1483039167
H  H90  1  0.73560000  0.97790000  0.99370000  1.0 0.1483039167
H  H91  1  0.73560000  0.52210000  0.49370000  1.0 0.1483039167
H  H92  1  0.26440000  0.02210000  0.00630000  1.0 0.1483039167
H  H93  1  0.41400000  0.58220000  0.49900000  1.0 0.1211764782
H  H94  1  0.58600000  0.08220000  0.00100000  1.0 0.1085655948
H  H95  1  0.58600000  0.41780000  0.50100000  1.0 0.1085655948
H  H96  1  0.41400000  0.91780000  0.99900000  1.0 0.1211764782
H  H97  1  0.47700000  0.43950000  0.47510000  1.0 0.2218515544
H  H98  1  0.52300000  0.93950000  0.02490000  1.0 0.2218515544
H  H99  1  0.52300000  0.56050000  0.52490000  1.0 0.2218515544
H  H100  1  0.47700000  0.06050000  0.97510000  1.0 0.2218515544
H  H101  1  0.51550000  0.44670000  0.53040000  1.0 0.2218515544
H  H102  1  0.48450000  0.94670000  0.96960000  1.0 0.2218515544
H  H103  1  0.48450000  0.55330000  0.46960000  1.0 0.2218515544
H  H104  1  0.51550000  0.05330000  0.03040000  1.0 0.2218515544
C  C1  1  0.30049000  0.79880000  0.09398000  1.0 0.5814207494
C  C2  1  0.69951000  0.29880000  0.40602000  1.0 0.5814207494
C  C3  1  0.69951000  0.20120000  0.90602000  1.0 0.5814207494
C  C4  1  0.30049000  0.70120000  0.59398000  1.0 0.5814207494
C  C5  1  0.33074000  0.81530000  0.14438000  1.0 -0.0098992593
C  C6  1  0.66926000  0.31530000  0.35562000  1.0 -0.0098992593
C  C7  1  0.66926000  0.18470000  0.85562000  1.0 -0.0098992593
C  C8  1  0.33074000  0.68470000  0.64438000  1.0 -0.0098992593
C  C9  1  0.29671000  0.85318000  0.16245000  1.0 -0.1290931203
C  C10  1  0.70329000  0.35318000  0.33755000  1.0 -0.1290931203
C  C11  1  0.70329000  0.14682000  0.83755000  1.0 -0.1290931203
C  C12  1  0.29671000  0.64682000  0.66245000  1.0 -0.1290931203
C  C13  1  0.32733000  0.87066000  0.20969000  1.0 -0.0098992593
C  C14  1  0.67267000  0.37066000  0.29031000  1.0 -0.0098992593
C  C15  1  0.67267000  0.12934000  0.79031000  1.0 -0.0098992593
C  C16  1  0.32733000  0.62934000  0.70969000  1.0 -0.0098992593
C  C17  1  0.29405000  0.91630000  0.23018000  1.0 0.5814207494
C  C18  1  0.70595000  0.41630000  0.26982000  1.0 0.5814207494
C  C19  1  0.70595000  0.08370000  0.76982000  1.0 0.5814207494
C  C20  1  0.29405000  0.58370000  0.73018000  1.0 0.5814207494
C  C21  1  0.39288000  0.85000000  0.23858000  1.0 -0.1997896464
C  C22  1  0.60712000  0.35000000  0.26142000  1.0 -0.1997896464
C  C23  1  0.60712000  0.15000000  0.76142000  1.0 -0.1997896464
C  C24  1  0.39288000  0.65000000  0.73858000  1.0 -0.1997896464
C  C25  1  0.42465000  0.80970000  0.21920000  1.0 0.230034172
C  C26  1  0.57535000  0.30970000  0.28080000  1.0 0.230034172
C  C27  1  0.57535000  0.19030000  0.78080000  1.0 0.230034172
C  C28  1  0.42465000  0.69030000  0.71920000  1.0 0.230034172
C  C29  1  0.39479000  0.79230000  0.17333000  1.0 -0.2279123277
C  C30  1  0.60521000  0.29230000  0.32667000  1.0 -0.2279123277
C  C31  1  0.60521000  0.20770000  0.82667000  1.0 -0.2279123277
C  C32  1  0.39479000  0.70770000  0.67333000  1.0 -0.2279123277
C  C33  1  0.52401000  0.75000000  0.23415000  1.0 -0.0525649333
C  C34  1  0.47599000  0.25000000  0.26585000  1.0 -0.0525649333
C  C35  1  0.47599000  0.25000000  0.76585000  1.0 -0.0525649333
C  C36  1  0.52401000  0.75000000  0.73415000  1.0 -0.0525649333
C  C37  1  0.58695000  0.72730000  0.26656000  1.0 0.0455412676
C  C38  1  0.41305000  0.22730000  0.23344000  1.0 0.0455412676
C  C39  1  0.41305000  0.27270000  0.73344000  1.0 0.0455412676
C  C40  1  0.58695000  0.77270000  0.76656000  1.0 0.0455412676
C  C41  1  0.61612000  0.74770000  0.31151000  1.0 -0.1290931203
C  C42  1  0.38388000  0.24770000  0.18849000  1.0 -0.1290931203
C  C43  1  0.38388000  0.25230000  0.68849000  1.0 -0.1290931203
C  C44  1  0.61612000  0.75230000  0.81151000  1.0 -0.1290931203
C  C45  1  0.67858000  0.72070000  0.34236000  1.0 -0.0208237765
C  C46  1  0.32142000  0.22070000  0.15764000  1.0 -0.0208237765
C  C47  1  0.32142000  0.27930000  0.65764000  1.0 -0.0098992593
C  C48  1  0.67858000  0.77930000  0.84236000  1.0 -0.0098992593
C  C49  1  0.70660000  0.73997000  0.39306000  1.0 0.5814207494
C  C50  1  0.29340000  0.23997000  0.10694000  1.0 0.5888913713
C  C51  1  0.29340000  0.26003000  0.60694000  1.0 0.5814207494
C  C52  1  0.70660000  0.76003000  0.89306000  1.0 0.5814207494
C  C53  1  0.71113000  0.67380000  0.32689000  1.0 -0.1025833742
C  C54  1  0.28887000  0.17380000  0.17311000  1.0 -0.1067284824
C  C55  1  0.28887000  0.32620000  0.67311000  1.0 -0.1067284824
C  C56  1  0.71113000  0.82620000  0.82689000  1.0 -0.1067284824
C  C57  1  0.68169000  0.65225000  0.28045000  1.0 -0.0380617588
C  C58  1  0.31831000  0.15225000  0.21955000  1.0 -0.0380617588
C  C59  1  0.31831000  0.34775000  0.71955000  1.0 -0.0380617588
C  C60  1  0.68169000  0.84775000  0.78045000  1.0 -0.0380617588
C  C61  1  0.61913000  0.67920000  0.24943000  1.0 -0.1685200414
C  C62  1  0.38087000  0.17920000  0.25057000  1.0 -0.1685200414
C  C63  1  0.38087000  0.32080000  0.75057000  1.0 -0.1685200414
C  C64  1  0.61913000  0.82080000  0.74943000  1.0 -0.1685200414
C  C65  1  0.71154000  0.59765000  0.26381000  1.0 0.5814207494
C  C66  1  0.28846000  0.09765000  0.23619000  1.0 0.5814207494
C  C67  1  0.28846000  0.40235000  0.73619000  1.0 0.5814207494
C  C68  1  0.71154000  0.90235000  0.76381000  1.0 0.5814207494
C  C69  1  0.80167000  0.39667000  0.20785000  1.0 0.5888913713
C  C70  1  0.19833000  0.89667000  0.29215000  1.0 0.5888913713
C  C71  1  0.19833000  0.60333000  0.79215000  1.0 0.5888913713
C  C72  1  0.80167000  0.10333000  0.70785000  1.0 0.5888913713
C  C73  1  0.82975000  0.33883000  0.19088000  1.0 -0.0098992593
C  C74  1  0.17025000  0.83883000  0.30912000  1.0 -0.0098992593
C  C75  1  0.17025000  0.66117000  0.80912000  1.0 -0.0098992593
C  C76  1  0.82975000  0.16117000  0.69088000  1.0 -0.0098992593
C  C77  1  0.79744000  0.31749000  0.14478000  1.0 -0.1290931203
C  C78  1  0.20256000  0.81749000  0.35522000  1.0 -0.1290931203
C  C79  1  0.20256000  0.68251000  0.85522000  1.0 -0.1290931203
C  C80  1  0.79744000  0.18251000  0.64478000  1.0 -0.1290931203
C  C81  1  0.82674000  0.26904000  0.12826000  1.0 -0.0208237765
C  C82  1  0.17326000  0.76904000  0.37174000  1.0 -0.0208237765
C  C83  1  0.17326000  0.73096000  0.87174000  1.0 -0.0208237765
C  C84  1  0.82674000  0.23096000  0.62826000  1.0 -0.0208237765
C  C85  1  0.79407000  0.25026000  0.07772000  1.0 0.5814207494
C  C86  1  0.20593000  0.75026000  0.42228000  1.0 0.5814207494
C  C87  1  0.20593000  0.74974000  0.92228000  1.0 0.5814207494
C  C88  1  0.79407000  0.24974000  0.57772000  1.0 0.5814207494
C  C89  1  0.88570000  0.23680000  0.15873000  1.0 -0.1997896464
C  C90  1  0.11430000  0.73680000  0.34127000  1.0 -0.1997896464
C  C91  1  0.11430000  0.76320000  0.84127000  1.0 -0.1997896464
C  C92  1  0.88570000  0.26320000  0.65873000  1.0 -0.1997896464
C  C93  1  0.91708000  0.25600000  0.20562000  1.0 0.2362719445
C  C94  1  0.08292000  0.75600000  0.29438000  1.0 0.230034172
C  C95  1  0.08292000  0.74400000  0.79438000  1.0 0.230034172
C  C96  1  0.91708000  0.24400000  0.70562000  1.0 0.2362719445
C  C97  1  0.88968000  0.30717000  0.22182000  1.0 -0.2386280925
C  C98  1  0.11032000  0.80717000  0.27818000  1.0 -0.2386280925
C  C99  1  0.11032000  0.69283000  0.77818000  1.0 -0.2386280925
C  C100  1  0.88968000  0.19283000  0.72182000  1.0 -0.2386280925
C  C101  1  0.01078000  0.24070000  0.28016000  1.0 -0.0572265567
C  C102  1  0.98922000  0.74070000  0.21984000  1.0 -0.0525649333
C  C103  1  0.98922000  0.75930000  0.71984000  1.0 -0.0525649333
C  C104  1  0.01078000  0.25930000  0.78016000  1.0 -0.0572265567
C  C105  1  0.07276000  0.20890000  0.30854000  1.0 0.0410334456
C  C106  1  0.92724000  0.70890000  0.19146000  1.0 0.0410334456
C  C107  1  0.92724000  0.79110000  0.69146000  1.0 0.0410334456
C  C108  1  0.07276000  0.29110000  0.80854000  1.0 0.0410334456
C  C109  1  0.10188000  0.16490000  0.29067000  1.0 -0.1290931203
C  C110  1  0.89812000  0.66490000  0.20933000  1.0 -0.1290931203
C  C111  1  0.89812000  0.83510000  0.70933000  1.0 -0.1290931203
C  C112  1  0.10188000  0.33510000  0.79067000  1.0 -0.1290931203
C  C113  1  0.16354000  0.13564000  0.31981000  1.0 -0.0098992593
C  C114  1  0.83646000  0.63564000  0.18019000  1.0 -0.0098992593
C  C115  1  0.83646000  0.86436000  0.68019000  1.0 -0.0098992593
C  C116  1  0.16354000  0.36436000  0.81981000  1.0 -0.0098992593
C  C117  1  0.19429000  0.08400000  0.29936000  1.0 0.5814207494
C  C118  1  0.80571000  0.58400000  0.20064000  1.0 0.5814207494
C  C119  1  0.80571000  0.91600000  0.70064000  1.0 0.5814207494
C  C120  1  0.19429000  0.41600000  0.79936000  1.0 0.5814207494
C  C121  1  0.19638000  0.15125000  0.36683000  1.0 -0.1195656528
C  C122  1  0.80362000  0.65125000  0.13317000  1.0 -0.1195656528
C  C123  1  0.80362000  0.84875000  0.63317000  1.0 -0.1195656528
C  C124  1  0.19638000  0.34875000  0.86683000  1.0 -0.1195656528
C  C125  1  0.16701000  0.19669000  0.38463000  1.0 -0.0208237765
C  C126  1  0.83299000  0.69669000  0.11537000  1.0 -0.0208237765
C  C127  1  0.83299000  0.80331000  0.61537000  1.0 -0.0208237765
C  C128  1  0.16701000  0.30331000  0.88463000  1.0 -0.0208237765
C  C129  1  0.10516000  0.22580000  0.35597000  1.0 -0.1685200414
C  C130  1  0.89484000  0.72580000  0.14403000  1.0 -0.1685200414
C  C131  1  0.89484000  0.77420000  0.64403000  1.0 -0.1685200414
C  C132  1  0.10516000  0.27420000  0.85597000  1.0 -0.1685200414
C  C133  1  0.19888000  0.21278000  0.43577000  1.0 0.5888913713
C  C134  1  0.80112000  0.71278000  0.06423000  1.0 0.5888913713
C  C135  1  0.80112000  0.78722000  0.56423000  1.0 0.5888913713
C  C136  1  0.19888000  0.28722000  0.93577000  1.0 0.5888913713
C  C137  1  0.20998000  0.11095000  0.52773000  1.0 0.5814207494
C  C138  1  0.79002000  0.61095000  0.97227000  1.0 0.5814207494
C  C139  1  0.79002000  0.88905000  0.47227000  1.0 0.5888913713
C  C140  1  0.20998000  0.38905000  0.02773000  1.0 0.5888913713
C  C141  1  0.17795000  0.04085000  0.52439000  1.0 -0.0343247692
C  C142  1  0.82205000  0.54085000  0.97561000  1.0 -0.0343247692
C  C143  1  0.82205000  0.95915000  0.47561000  1.0 -0.0343247692
C  C144  1  0.17795000  0.45915000  0.02439000  1.0 -0.0343247692
C  C145  1  0.21132000  0.97680000  0.52566000  1.0 -0.1025833742
C  C146  1  0.78868000  0.47680000  0.97434000  1.0 -0.1025833742
C  C147  1  0.78868000  0.02320000  0.47434000  1.0 -0.1025833742
C  C148  1  0.21132000  0.52320000  0.02566000  1.0 -0.1025833742
C  C149  1  0.17733000  0.91218000  0.51821000  1.0 -0.0208237765
C  C150  1  0.82267000  0.41218000  0.98179000  1.0 -0.0208237765
C  C151  1  0.82267000  0.08782000  0.48179000  1.0 -0.0208237765
C  C152  1  0.17733000  0.58782000  0.01821000  1.0 -0.0208237765
C  C153  1  0.20875000  0.84409000  0.51633000  1.0 0.5814207494
C  C154  1  0.79125000  0.34409000  0.98367000  1.0 0.5814207494
C  C155  1  0.79125000  0.15591000  0.48367000  1.0 0.5814207494
C  C156  1  0.20875000  0.65591000  0.01633000  1.0 0.5814207494
C  C157  1  0.11366000  0.91090000  0.51162000  1.0 -0.1554305435
C  C158  1  0.88634000  0.41090000  0.98838000  1.0 -0.1554305435
C  C159  1  0.88634000  0.08910000  0.48838000  1.0 -0.1554305435
C  C160  1  0.11366000  0.58910000  0.01162000  1.0 -0.1520478943
C  C161  1  0.08304000  0.97680000  0.51000000  1.0 0.0689893539
C  C162  1  0.91696000  0.47680000  0.99000000  1.0 0.0689893539
C  C163  1  0.91696000  0.02320000  0.49000000  1.0 0.0689893539
C  C164  1  0.08304000  0.52320000  0.01000000  1.0 0.0689893539
C  C165  1  0.11417000  0.03870000  0.51664000  1.0 -0.1195656528
C  C166  1  0.88583000  0.53870000  0.98336000  1.0 -0.1195656528
C  C167  1  0.88583000  0.96130000  0.48336000  1.0 -0.1195656528
C  C168  1  0.11417000  0.46130000  0.01664000  1.0 -0.1195656528
C  C169  1  0.01795000  0.97020000  0.50225000  1.0 -0.2082061463
C  C170  1  0.98205000  0.47020000  0.99775000  1.0 -0.2082061463
C  C171  1  0.98205000  0.02980000  0.49775000  1.0 -0.2082061463
C  C172  1  0.01795000  0.52980000  0.00225000  1.0 -0.2082061463
C  C173  1  0.30593000  0.34297000  0.51457000  1.0 0.5888913713
C  C174  1  0.69407000  0.84297000  0.98543000  1.0 0.5888913713
C  C175  1  0.69407000  0.65703000  0.48543000  1.0 0.5888913713
C  C176  1  0.30593000  0.15703000  0.01457000  1.0 0.5888913713
C  C177  1  0.39635000  0.41200000  0.50818000  1.0 -0.2232535513
C  C178  1  0.60365000  0.91200000  0.99182000  1.0 -0.2232535513
C  C179  1  0.60365000  0.58800000  0.49182000  1.0 -0.2232535513
C  C180  1  0.39635000  0.08800000  0.00818000  1.0 -0.2279123277
C  C181  1  0.33647000  0.41281000  0.50889000  1.0 -0.0035988055
C  C182  1  0.66353000  0.91281000  0.99111000  1.0 -0.0035988055
C  C183  1  0.66353000  0.58719000  0.49111000  1.0 -0.0035988055
C  C184  1  0.33647000  0.08719000  0.00889000  1.0 -0.0035988055
C  C185  1  0.30569000  0.47662000  0.50592000  1.0 -0.1195656528
C  C186  1  0.69431000  0.97662000  0.99408000  1.0 -0.1195656528
C  C187  1  0.69431000  0.52338000  0.49408000  1.0 -0.1195656528
C  C188  1  0.30569000  0.02338000  0.00592000  1.0 -0.1195656528
C  C189  1  0.33491000  0.53932000  0.50240000  1.0 -0.0098992593
C  C190  1  0.66509000  0.03932000  0.99760000  1.0 -0.0098992593
C  C191  1  0.66509000  0.46068000  0.49760000  1.0 -0.0098992593
C  C192  1  0.33491000  0.96068000  0.00240000  1.0 -0.0098992593
C  C193  1  0.30296000  0.60996000  0.50212000  1.0 0.5888913713
C  C194  1  0.69704000  0.10996000  0.99788000  1.0 0.5888913713
C  C195  1  0.69704000  0.39004000  0.49788000  1.0 0.5888913713
C  C196  1  0.30296000  0.89004000  0.00212000  1.0 0.5888913713
C  C197  1  0.39402000  0.53890000  0.50125000  1.0 -0.2386280925
C  C198  1  0.60598000  0.03890000  0.99875000  1.0 -0.2386280925
C  C199  1  0.60598000  0.46110000  0.49875000  1.0 -0.2386280925
C  C200  1  0.39402000  0.96110000  0.00125000  1.0 -0.2386280925
C  C201  1  0.42427000  0.47263000  0.50344000  1.0 0.1841262101
C  C202  1  0.57573000  0.97263000  0.99656000  1.0 0.1850964396
C  C203  1  0.57573000  0.52737000  0.49656000  1.0 0.1841262101
C  C204  1  0.42427000  0.02737000  0.00344000  1.0 0.1841262101
C  C205  1  0.48355000  0.47100000  0.50138000  1.0 -0.1520478943
C  C206  1  0.51645000  0.97100000  0.99862000  1.0 -0.1554305435
C  C207  1  0.51645000  0.52900000  0.49862000  1.0 -0.1520478943
C  C208  1  0.48355000  0.02900000  0.00138000  1.0 -0.1520478943
O  O1  1  0.33684000  0.76754000  0.07979000  1.0 -0.5288782002
O  O2  1  0.66316000  0.26754000  0.42021000  1.0 -0.5288782002
O  O3  1  0.66316000  0.23246000  0.92021000  1.0 -0.5288782002
O  O4  1  0.33684000  0.73246000  0.57979000  1.0 -0.5288782002
O  O5  1  0.23989000  0.81695000  0.06852000  1.0 -0.5288782002
O  O6  1  0.76011000  0.31695000  0.43148000  1.0 -0.5288782002
O  O7  1  0.76011000  0.18305000  0.93148000  1.0 -0.5288782002
O  O8  1  0.23989000  0.68305000  0.56852000  1.0 -0.5288782002
O  O9  1  0.23454000  0.93343000  0.20300000  1.0 -0.519595913
O  O10  1  0.76546000  0.43343000  0.29700000  1.0 -0.519595913
O  O11  1  0.76546000  0.06657000  0.79700000  1.0 -0.519595913
O  O12  1  0.23454000  0.56657000  0.70300000  1.0 -0.519595913
O  O13  1  0.32742000  0.93327000  0.27195000  1.0 -0.519595913
O  O14  1  0.67258000  0.43327000  0.22805000  1.0 -0.519595913
O  O15  1  0.67258000  0.06673000  0.72805000  1.0 -0.519595913
O  O16  1  0.32742000  0.56673000  0.77195000  1.0 -0.519595913
O  O17  1  0.49116000  0.79030000  0.25152000  1.0 -0.1789183983
O  O18  1  0.50884000  0.29030000  0.24848000  1.0 -0.1789183983
O  O19  1  0.50884000  0.20970000  0.74848000  1.0 -0.1789183983
O  O20  1  0.49116000  0.70970000  0.75152000  1.0 -0.1789183983
O  O21  1  0.76654000  0.71949000  0.41906000  1.0 -0.5288782002
O  O22  1  0.23346000  0.21949000  0.08094000  1.0 -0.5288782002
O  O23  1  0.23346000  0.28051000  0.58094000  1.0 -0.5288782002
O  O24  1  0.76654000  0.78051000  0.91906000  1.0 -0.5288782002
O  O25  1  0.67095000  0.77319000  0.40558000  1.0 -0.519595913
O  O26  1  0.32905000  0.27319000  0.09442000  1.0 -0.519595913
O  O27  1  0.32905000  0.22681000  0.59442000  1.0 -0.519595913
O  O28  1  0.67095000  0.72681000  0.90558000  1.0 -0.519595913
O  O29  1  0.76989000  0.57751000  0.29220000  1.0 -0.519595913
O  O30  1  0.23011000  0.07751000  0.20780000  1.0 -0.519595913
O  O31  1  0.23011000  0.42249000  0.70780000  1.0 -0.519595913
O  O32  1  0.76989000  0.92249000  0.79220000  1.0 -0.519595913
O  O33  1  0.67852000  0.57625000  0.22288000  1.0 -0.519595913
O  O34  1  0.32148000  0.07625000  0.27712000  1.0 -0.519595913
O  O35  1  0.32148000  0.42375000  0.77712000  1.0 -0.519595913
O  O36  1  0.67852000  0.92375000  0.72288000  1.0 -0.519595913
O  O37  1  0.83662000  0.41935000  0.24826000  1.0 -0.519595913
O  O38  1  0.16338000  0.91935000  0.25174000  1.0 -0.519595913
O  O39  1  0.16338000  0.58065000  0.75174000  1.0 -0.519595913
O  O40  1  0.83662000  0.08065000  0.74826000  1.0 -0.519595913
O  O41  1  0.74395000  0.41790000  0.17984000  1.0 -0.519595913
O  O42  1  0.25605000  0.91790000  0.32016000  1.0 -0.519595913
O  O43  1  0.25605000  0.58210000  0.82016000  1.0 -0.519595913
O  O44  1  0.74395000  0.08210000  0.67984000  1.0 -0.519595913
O  O45  1  0.73859000  0.27641000  0.05266000  1.0 -0.5100872318
O  O46  1  0.26141000  0.77641000  0.44734000  1.0 -0.5040916831
O  O47  1  0.26141000  0.72359000  0.94734000  1.0 -0.5040916831
O  O48  1  0.73859000  0.22359000  0.55266000  1.0 -0.5040916831
O  O49  1  0.82695000  0.20964000  0.06475000  1.0 -0.5288782002
O  O50  1  0.17305000  0.70964000  0.43525000  1.0 -0.5288782002
O  O51  1  0.17305000  0.79036000  0.93525000  1.0 -0.5288782002
O  O52  1  0.82695000  0.29036000  0.56475000  1.0 -0.5288782002
O  O53  1  0.97877000  0.22260000  0.23428000  1.0 -0.1685200414
O  O54  1  0.02123000  0.72260000  0.26572000  1.0 -0.1685200414
O  O55  1  0.02123000  0.77740000  0.76572000  1.0 -0.1685200414
O  O56  1  0.97877000  0.27740000  0.73428000  1.0 -0.1685200414
O  O57  1  0.16035000  0.06760000  0.25752000  1.0 -0.519595913
O  O58  1  0.83965000  0.56760000  0.24248000  1.0 -0.519595913
O  O59  1  0.83965000  0.93240000  0.74248000  1.0 -0.519595913
O  O60  1  0.16035000  0.43240000  0.75752000  1.0 -0.519595913
O  O61  1  0.25206000  0.06321000  0.32646000  1.0 -0.519595913
O  O62  1  0.74794000  0.56321000  0.17354000  1.0 -0.519595913
O  O63  1  0.74794000  0.93679000  0.67354000  1.0 -0.519595913
O  O64  1  0.25206000  0.43679000  0.82646000  1.0 -0.519595913
O  O65  1  0.16740000  0.25037000  0.45004000  1.0 -0.519595913
O  O66  1  0.83260000  0.75037000  0.04996000  1.0 -0.519595913
O  O67  1  0.83260000  0.74963000  0.54996000  1.0 -0.519595913
O  O68  1  0.16740000  0.24963000  0.95004000  1.0 -0.519595913
O  O69  1  0.25615000  0.18599000  0.46043000  1.0 -0.5288782002
O  O70  1  0.74385000  0.68599000  0.03957000  1.0 -0.5288782002
O  O71  1  0.74385000  0.81401000  0.53957000  1.0 -0.5288782002
O  O72  1  0.25615000  0.31401000  0.96043000  1.0 -0.5288782002
O  O73  1  0.17471000  0.16441000  0.52142000  1.0 -0.5288782002
O  O74  1  0.82529000  0.66441000  0.97858000  1.0 -0.5288782002
O  O75  1  0.82529000  0.83559000  0.47858000  1.0 -0.5288782002
O  O76  1  0.17471000  0.33559000  0.02142000  1.0 -0.5288782002
O  O77  1  0.27066000  0.11033000  0.53647000  1.0 -0.519595913
O  O78  1  0.72934000  0.61033000  0.96353000  1.0 -0.519595913
O  O79  1  0.72934000  0.88967000  0.46353000  1.0 -0.519595913
O  O80  1  0.27066000  0.38967000  0.03647000  1.0 -0.519595913
O  O81  1  0.26803000  0.84623000  0.52350000  1.0 -0.5100872318
O  O82  1  0.73197000  0.34623000  0.97650000  1.0 -0.5100872318
O  O83  1  0.73197000  0.15377000  0.47650000  1.0 -0.5100872318
O  O84  1  0.26803000  0.65377000  0.02350000  1.0 -0.5100872318
O  O85  1  0.17219000  0.78972000  0.50536000  1.0 -0.5288782002
O  O86  1  0.82781000  0.28972000  0.99464000  1.0 -0.5288782002
O  O87  1  0.82781000  0.21028000  0.49464000  1.0 -0.5288782002
O  O88  1  0.17219000  0.71028000  0.00536000  1.0 -0.5288782002
O  O89  1  0.33911000  0.28844000  0.51997000  1.0 -0.5100872318
O  O90  1  0.66089000  0.78844000  0.98003000  1.0 -0.5100872318
O  O91  1  0.66089000  0.71156000  0.48003000  1.0 -0.5100872318
O  O92  1  0.33911000  0.21156000  0.01997000  1.0 -0.5100872318
O  O93  1  0.24985000  0.34928000  0.51266000  1.0 -0.5288782002
O  O94  1  0.75015000  0.84928000  0.98734000  1.0 -0.5288782002
O  O95  1  0.75015000  0.65072000  0.48734000  1.0 -0.5288782002
O  O96  1  0.24985000  0.15072000  0.01266000  1.0 -0.5288782002
O  O97  1  0.24632000  0.60716000  0.49978000  1.0 -0.5100872318
O  O98  1  0.75368000  0.10716000  0.00022000  1.0 -0.5100872318
O  O99  1  0.75368000  0.39284000  0.50022000  1.0 -0.5100872318
O  O100  1  0.24632000  0.89284000  0.99978000  1.0 -0.5100872318
O  O101  1  0.33515000  0.66497000  0.50414000  1.0 -0.519595913
O  O102  1  0.66485000  0.16497000  0.99586000  1.0 -0.519595913
O  O103  1  0.66485000  0.33503000  0.49586000  1.0 -0.519595913
O  O104  1  0.33515000  0.83503000  0.00414000  1.0 -0.519595913
O  O105  1  0.48820000  0.46580000  0.50413000  1.0 -0.1290931203
O  O106  1  0.51180000  0.96580000  0.99587000  1.0 -0.1290931203
O  O107  1  0.51180000  0.53420000  0.49587000  1.0 -0.1195656528
O  O108  1  0.48820000  0.03420000  0.00413000  1.0 -0.1195656528
