# DDEC6 charges by PACMAN v1.1 (https://github.com/mtap-research/PACMAN-charge/)
data_BEXVAD_ASR_pacman
_symmetry_space_group_name_H-M   'P 1'
_cell_length_a   11.02560000
_cell_length_b   11.02560000
_cell_length_c   12.00700000
_cell_angle_alpha   68.68290000
_cell_angle_beta   111.31700000
_cell_angle_gamma   99.39210000
_symmetry_Int_Tables_number   1
_chemical_formula_structural   Co2H14C18O11
_chemical_formula_sum   'Co4 H28 C36 O22'
_cell_volume   1265.91416412
_cell_formula_units_Z   2
loop_
 _symmetry_equiv_pos_site_id
 _symmetry_equiv_pos_as_xyz
  1  'x, y, z'
loop_
 _atom_site_type_symbol
 _atom_site_label
 _atom_site_symmetry_multiplicity
 _atom_site_fract_x
 _atom_site_fract_y
 _atom_site_fract_z
 _atom_site_occupancy
 _atom_site_charge
Co  Co1  1  0.23021000  0.42377000  0.59902000  1.0 0.8844096251
Co  Co2  1  0.42377000  0.23021000  0.90098000  1.0 0.8844096251
Co  Co3  1  0.76979000  0.57623000  0.40098000  1.0 0.8855063505
Co  Co4  1  0.57623000  0.76979000  0.09902000  1.0 0.8855063505
H  H1  1  0.33550000  0.87050000  0.75350000  1.0 0.1423383765
H  H2  1  0.87050000  0.33550000  0.74650000  1.0 0.1423383765
H  H3  1  0.13400000  0.16400000  0.45130000  1.0 0.1423383765
H  H4  1  0.16400000  0.13400000  0.04870000  1.0 0.1423383765
H  H5  1  0.11240000  0.80540000  0.42640000  1.0 0.1244993098
H  H6  1  0.80540000  0.11240000  0.07360000  1.0 0.1244993098
H  H7  1  0.95110000  0.93770000  0.21310000  1.0 0.1121249943
H  H8  1  0.93770000  0.95110000  0.28690000  1.0 0.1121249943
H  H9  1  0.09780000  0.94820000  0.21730000  1.0 0.2042452841
H  H10  1  0.94820000  0.09780000  0.28270000  1.0 0.2042452841
H  H11  1  0.49760000  0.42580000  0.75280000  1.0 0.1423383765
H  H12  1  0.42580000  0.49760000  0.74720000  1.0 0.1423383765
H  H13  1  0.41390000  0.45230000  0.80460000  1.0 0.2179498412
H  H14  1  0.45230000  0.41390000  0.69540000  1.0 0.2179498412
H  H15  1  0.66450000  0.12950000  0.24650000  1.0 0.1423383765
H  H16  1  0.12950000  0.66450000  0.25350000  1.0 0.1423383765
H  H17  1  0.86600000  0.83600000  0.54870000  1.0 0.1423383765
H  H18  1  0.83600000  0.86600000  0.95130000  1.0 0.1423383765
H  H19  1  0.88760000  0.19460000  0.57360000  1.0 0.1244993098
H  H20  1  0.19460000  0.88760000  0.92640000  1.0 0.1244993098
H  H21  1  0.04890000  0.06230000  0.78690000  1.0 0.1121249943
H  H22  1  0.06230000  0.04890000  0.71310000  1.0 0.1121249943
H  H23  1  0.90220000  0.05180000  0.78270000  1.0 0.2042452841
H  H24  1  0.05180000  0.90220000  0.71730000  1.0 0.2042452841
H  H25  1  0.50240000  0.57420000  0.24720000  1.0 0.1423383765
H  H26  1  0.57420000  0.50240000  0.25280000  1.0 0.1423383765
H  H27  1  0.58610000  0.54770000  0.19540000  1.0 0.2179498412
H  H28  1  0.54770000  0.58610000  0.30460000  1.0 0.2179498412
C  C1  1  0.27010000  0.67870000  0.65030000  1.0 0.5660014189
C  C2  1  0.67870000  0.27010000  0.84970000  1.0 0.5660014189
C  C3  1  0.22960000  0.81840000  0.59840000  1.0 0.0016437881
C  C4  1  0.81840000  0.22960000  0.90160000  1.0 0.0016437881
C  C5  1  0.27810000  0.90150000  0.66880000  1.0 -0.1651805602
C  C6  1  0.90150000  0.27810000  0.83120000  1.0 -0.1651805602
C  C7  1  0.24160000  0.03220000  0.61420000  1.0 -0.0207277909
C  C8  1  0.03220000  0.24160000  0.88580000  1.0 -0.0207277909
C  C9  1  0.28950000  0.13110000  0.68240000  1.0 0.5610702521
C  C10  1  0.13110000  0.28950000  0.81760000  1.0 0.5610702521
C  C11  1  0.15800000  0.07560000  0.48940000  1.0 -0.2745312863
C  C12  1  0.07560000  0.15800000  0.01060000  1.0 -0.2745312863
C  C13  1  0.11000000  0.99180000  0.42070000  1.0 0.1340229846
C  C14  1  0.99180000  0.11000000  0.07930000  1.0 0.1340229846
C  C15  1  0.14540000  0.86300000  0.47420000  1.0 -0.2822133936
C  C16  1  0.86300000  0.14540000  0.02580000  1.0 -0.2822133936
C  C17  1  0.02560000  0.99660000  0.20560000  1.0 0.0142962255
C  C18  1  0.99660000  0.02560000  0.29440000  1.0 0.0157876313
C  C19  1  0.72990000  0.32130000  0.34970000  1.0 0.5660014189
C  C20  1  0.32130000  0.72990000  0.15030000  1.0 0.5660014189
C  C21  1  0.77040000  0.18160000  0.40160000  1.0 0.0016437881
C  C22  1  0.18160000  0.77040000  0.09840000  1.0 0.0016437881
C  C23  1  0.72190000  0.09850000  0.33120000  1.0 -0.1643555425
C  C24  1  0.09850000  0.72190000  0.16880000  1.0 -0.1651805602
C  C25  1  0.75840000  0.96780000  0.38580000  1.0 -0.0207277909
C  C26  1  0.96780000  0.75840000  0.11420000  1.0 -0.0207277909
C  C27  1  0.71050000  0.86890000  0.31760000  1.0 0.5610702521
C  C28  1  0.86890000  0.71050000  0.18240000  1.0 0.5610702521
C  C29  1  0.84200000  0.92440000  0.51060000  1.0 -0.2745312863
C  C30  1  0.92440000  0.84200000  0.98940000  1.0 -0.2745312863
C  C31  1  0.89000000  0.00820000  0.57930000  1.0 0.1340229846
C  C32  1  0.00820000  0.89000000  0.92070000  1.0 0.1340229846
C  C33  1  0.85460000  0.13700000  0.52580000  1.0 -0.2822133936
C  C34  1  0.13700000  0.85460000  0.97420000  1.0 -0.2822133936
C  C35  1  0.97440000  0.00340000  0.79440000  1.0 0.0142962255
C  C36  1  0.00340000  0.97440000  0.70560000  1.0 0.0142962255
O  O1  1  0.20446000  0.60760000  0.58580000  1.0 -0.584429007
O  O2  1  0.60760000  0.20446000  0.91420000  1.0 -0.584429007
O  O3  1  0.36522000  0.64288000  0.75010000  1.0 -0.5427019708
O  O4  1  0.64288000  0.36522000  0.74990000  1.0 -0.5427019708
O  O5  1  0.35664000  0.09686000  0.79700000  1.0 -0.5455949716
O  O6  1  0.09686000  0.35664000  0.70300000  1.0 -0.5455949716
O  O7  1  0.25346000  0.24194000  0.61470000  1.0 -0.5706149303
O  O8  1  0.24194000  0.25346000  0.88530000  1.0 -0.5706149303
O  O9  1  0.06080000  0.06920000  0.28930000  1.0 0.0016437881
O  O10  1  0.06920000  0.06080000  0.21070000  1.0 0.0016437881
O  O11  1  0.41400000  0.41400000  0.75000000  1.0 -0.5261007957
O  O12  1  0.79554000  0.39240000  0.41420000  1.0 -0.584429007
O  O13  1  0.39240000  0.79554000  0.08580000  1.0 -0.584429007
O  O14  1  0.63478000  0.35712000  0.24990000  1.0 -0.5427019708
O  O15  1  0.35712000  0.63478000  0.25010000  1.0 -0.5427019708
O  O16  1  0.64336000  0.90314000  0.20300000  1.0 -0.5455949716
O  O17  1  0.90314000  0.64336000  0.29700000  1.0 -0.5455949716
O  O18  1  0.74654000  0.75806000  0.38530000  1.0 -0.5706149303
O  O19  1  0.75806000  0.74654000  0.11470000  1.0 -0.5706149303
O  O20  1  0.93920000  0.93080000  0.71070000  1.0 -0.0003678147
O  O21  1  0.93080000  0.93920000  0.78930000  1.0 -0.0003678147
O  O22  1  0.58600000  0.58600000  0.25000000  1.0 -0.5261007957
