# DDEC6 charges by PACMAN v1.1 (https://github.com/mtap-research/PACMAN-charge/)
data_BEXVIL_ASR_pacman
_symmetry_space_group_name_H-M   'P 1'
_cell_length_a   14.31750000
_cell_length_b   14.40200000
_cell_length_c   22.61620000
_cell_angle_alpha   90.00000000
_cell_angle_beta   100.49800000
_cell_angle_gamma   90.00000000
_symmetry_Int_Tables_number   1
_chemical_formula_structural   CdH5C9O5
_chemical_formula_sum   'Cd8 H40 C72 O40'
_cell_volume   4585.41414726
_cell_formula_units_Z   8
loop_
 _symmetry_equiv_pos_site_id
 _symmetry_equiv_pos_as_xyz
  1  'x, y, z'
loop_
 _atom_site_type_symbol
 _atom_site_label
 _atom_site_symmetry_multiplicity
 _atom_site_fract_x
 _atom_site_fract_y
 _atom_site_fract_z
 _atom_site_occupancy
 _atom_site_charge
Cd  Cd1  1  0.24472000  0.25293000  0.75888000  1.0 0.9726821105
Cd  Cd2  1  0.75528000  0.75293000  0.74112000  1.0 0.9726821105
Cd  Cd3  1  0.75528000  0.74707000  0.24112000  1.0 0.9726821105
Cd  Cd4  1  0.24472000  0.24707000  0.25888000  1.0 0.9726821105
Cd  Cd5  1  0.68526000  0.87468000  0.86067000  1.0 1.0359778624
Cd  Cd6  1  0.31474000  0.37468000  0.63933000  1.0 1.0348684411
Cd  Cd7  1  0.31474000  0.12532000  0.13933000  1.0 1.0359778624
Cd  Cd8  1  0.68526000  0.62532000  0.36067000  1.0 1.0348684411
H  H1  1  0.99830000  0.01220000  0.75630000  1.0 0.1298788529
H  H2  1  0.00170000  0.51220000  0.74370000  1.0 0.1298788529
H  H3  1  0.00170000  0.98780000  0.24370000  1.0 0.1298788529
H  H4  1  0.99830000  0.48780000  0.25630000  1.0 0.1298788529
H  H5  1  0.91140000  0.92720000  0.90780000  1.0 0.0681520771
H  H6  1  0.08860000  0.42720000  0.59220000  1.0 0.0681520771
H  H7  1  0.08860000  0.07280000  0.09220000  1.0 0.0681520771
H  H8  1  0.91140000  0.57280000  0.40780000  1.0 0.0681520771
H  H9  1  0.12370000  0.11300000  0.91840000  1.0 0.1103244923
H  H10  1  0.87630000  0.61300000  0.58160000  1.0 0.1103244923
H  H11  1  0.87630000  0.88700000  0.08160000  1.0 0.1103244923
H  H12  1  0.12370000  0.38700000  0.41840000  1.0 0.1103244923
H  H13  1  0.07970000  0.06930000  0.00920000  1.0 0.1701117079
H  H14  1  0.92030000  0.56930000  0.49080000  1.0 0.1701117079
H  H15  1  0.92030000  0.93070000  0.99080000  1.0 0.1701117079
H  H16  1  0.07970000  0.43070000  0.50920000  1.0 0.1701117079
H  H17  1  0.96930000  0.09940000  0.99050000  1.0 0.0521276514
H  H18  1  0.03070000  0.59940000  0.50950000  1.0 0.0521276514
H  H19  1  0.03070000  0.90060000  0.00950000  1.0 0.0588225077
H  H20  1  0.96930000  0.40060000  0.49050000  1.0 0.0521276514
H  H21  1  0.57230000  0.92440000  0.59450000  1.0 0.0947735827
H  H22  1  0.42770000  0.42440000  0.90550000  1.0 0.0955762263
H  H23  1  0.42770000  0.07560000  0.40550000  1.0 0.0947735827
H  H24  1  0.57230000  0.57560000  0.09450000  1.0 0.0955762263
H  H25  1  0.38370000  0.13320000  0.57470000  1.0 0.1103244923
H  H26  1  0.61630000  0.63320000  0.92530000  1.0 0.1103244923
H  H27  1  0.61630000  0.86680000  0.42530000  1.0 0.1103244923
H  H28  1  0.38370000  0.36680000  0.07470000  1.0 0.1103244923
H  H29  1  0.48360000  0.02800000  0.74060000  1.0 0.1223932745
H  H30  1  0.51640000  0.52800000  0.75940000  1.0 0.1223932745
H  H31  1  0.51640000  0.97200000  0.25940000  1.0 0.1223932745
H  H32  1  0.48360000  0.47200000  0.24060000  1.0 0.1223932745
H  H33  1  0.43730000  0.06960000  0.49040000  1.0 0.1853752207
H  H34  1  0.56270000  0.56960000  0.00960000  1.0 0.1806693467
H  H35  1  0.56270000  0.93040000  0.50960000  1.0 0.1806693467
H  H36  1  0.43730000  0.43040000  0.99040000  1.0 0.1806693467
H  H37  1  0.41450000  0.96310000  0.50050000  1.0 0.1223932745
H  H38  1  0.58550000  0.46310000  0.99950000  1.0 0.1223932745
H  H39  1  0.58550000  0.03690000  0.49950000  1.0 0.1223932745
H  H40  1  0.41450000  0.53690000  0.00050000  1.0 0.1298788529
C  C1  1  0.13220000  0.13370000  0.80360000  1.0 0.5455114018
C  C2  1  0.86780000  0.63370000  0.69640000  1.0 0.5455114018
C  C3  1  0.86780000  0.86630000  0.19640000  1.0 0.5455114018
C  C4  1  0.13220000  0.36630000  0.30360000  1.0 0.5455114018
C  C5  1  0.06910000  0.07210000  0.83272000  1.0 -0.0190113161
C  C6  1  0.93090000  0.57210000  0.66728000  1.0 -0.0190113161
C  C7  1  0.93090000  0.92790000  0.16728000  1.0 -0.0190113161
C  C8  1  0.06910000  0.42790000  0.33272000  1.0 -0.0190113161
C  C9  1  0.00340000  0.01460000  0.79870000  1.0 -0.1205870998
C  C10  1  0.99660000  0.51460000  0.70130000  1.0 -0.1205870998
C  C11  1  0.99660000  0.98540000  0.20130000  1.0 -0.1205870998
C  C12  1  0.00340000  0.48540000  0.29870000  1.0 -0.1205870998
C  C13  1  0.94530000  0.96040000  0.82690000  1.0 -0.0190113161
C  C14  1  0.05470000  0.46040000  0.67310000  1.0 -0.0190113161
C  C15  1  0.05470000  0.03960000  0.17310000  1.0 -0.0190113161
C  C16  1  0.94530000  0.53960000  0.32690000  1.0 -0.0190113161
C  C17  1  0.95210000  0.96450000  0.88880000  1.0 -0.2629213859
C  C18  1  0.04790000  0.46450000  0.61120000  1.0 -0.2659682511
C  C19  1  0.04790000  0.03550000  0.11120000  1.0 -0.2659682511
C  C20  1  0.95210000  0.53550000  0.38880000  1.0 -0.2659682511
C  C21  1  0.01740000  0.02220000  0.92290000  1.0 0.1806693467
C  C22  1  0.98260000  0.52220000  0.57710000  1.0 0.1806693467
C  C23  1  0.98260000  0.97780000  0.07710000  1.0 0.1806693467
C  C24  1  0.01740000  0.47780000  0.42290000  1.0 0.1806693467
C  C25  1  0.07690000  0.07470000  0.89500000  1.0 -0.2363155354
C  C26  1  0.92310000  0.57470000  0.60500000  1.0 -0.2363155354
C  C27  1  0.92310000  0.92530000  0.10500000  1.0 -0.2363155354
C  C28  1  0.07690000  0.42530000  0.39500000  1.0 -0.2363155354
C  C29  1  0.01620000  0.04970000  0.98780000  1.0 0.0588225077
C  C30  1  0.98380000  0.54970000  0.51220000  1.0 0.0588225077
C  C31  1  0.98380000  0.95030000  0.01220000  1.0 0.0588225077
C  C32  1  0.01620000  0.45030000  0.48780000  1.0 0.0588225077
C  C33  1  0.87620000  0.89250000  0.79110000  1.0 0.5729849558
C  C34  1  0.12380000  0.39250000  0.70890000  1.0 0.5729849558
C  C35  1  0.12380000  0.10750000  0.20890000  1.0 0.5729849558
C  C36  1  0.87620000  0.60750000  0.29110000  1.0 0.5729849558
C  C37  1  0.60360000  0.89990000  0.71310000  1.0 0.602569304
C  C38  1  0.39640000  0.39990000  0.78690000  1.0 0.602569304
C  C39  1  0.39640000  0.10010000  0.28690000  1.0 0.602569304
C  C40  1  0.60360000  0.60010000  0.21310000  1.0 0.602569304
C  C41  1  0.53710000  0.96600000  0.67311000  1.0 -0.0315583196
C  C42  1  0.46290000  0.46600000  0.82689000  1.0 -0.0315583196
C  C43  1  0.46290000  0.03400000  0.32689000  1.0 -0.0315583196
C  C44  1  0.53710000  0.53400000  0.17311000  1.0 -0.0315583196
C  C45  1  0.53390000  0.96670000  0.61170000  1.0 -0.2334415097
C  C46  1  0.46610000  0.46670000  0.88830000  1.0 -0.2363155354
C  C47  1  0.46610000  0.03330000  0.38830000  1.0 -0.2334415097
C  C48  1  0.53390000  0.53330000  0.11170000  1.0 -0.2334415097
C  C49  1  0.47610000  0.02780000  0.57500000  1.0 0.1399323812
C  C50  1  0.52390000  0.52780000  0.92500000  1.0 0.1399323812
C  C51  1  0.52390000  0.97220000  0.42500000  1.0 0.1450843881
C  C52  1  0.47610000  0.47220000  0.07500000  1.0 0.1399323812
C  C53  1  0.42200000  0.08970000  0.59990000  1.0 -0.2227301192
C  C54  1  0.57800000  0.58970000  0.90010000  1.0 -0.2227301192
C  C55  1  0.57800000  0.91030000  0.40010000  1.0 -0.2227301192
C  C56  1  0.42200000  0.41030000  0.09990000  1.0 -0.2227301192
C  C57  1  0.42210000  0.09020000  0.66140000  1.0 -0.0190113161
C  C58  1  0.57790000  0.59020000  0.83860000  1.0 -0.0190113161
C  C59  1  0.57790000  0.90980000  0.33860000  1.0 -0.0190113161
C  C60  1  0.42210000  0.40980000  0.16140000  1.0 -0.0190113161
C  C61  1  0.48150000  0.02780000  0.69840000  1.0 -0.1127246734
C  C62  1  0.51850000  0.52780000  0.80160000  1.0 -0.1127246734
C  C63  1  0.51850000  0.97220000  0.30160000  1.0 -0.1127246734
C  C64  1  0.48150000  0.47220000  0.19840000  1.0 -0.1127246734
C  C65  1  0.46330000  0.01200000  0.51100000  1.0 -0.0529240048
C  C66  1  0.53670000  0.51200000  0.98900000  1.0 -0.0529240048
C  C67  1  0.53670000  0.98800000  0.48900000  1.0 -0.0529240048
C  C68  1  0.46330000  0.48800000  0.01100000  1.0 -0.0529240048
C  C69  1  0.36280000  0.15820000  0.68850000  1.0 0.5761248986
C  C70  1  0.63720000  0.65820000  0.81150000  1.0 0.5761248986
C  C71  1  0.63720000  0.84180000  0.31150000  1.0 0.5761248986
C  C72  1  0.36280000  0.34180000  0.18850000  1.0 0.5761248986
O  O1  1  0.19550000  0.18030000  0.83738000  1.0 -0.5507108722
O  O2  1  0.80450000  0.68030000  0.66262000  1.0 -0.5507108722
O  O3  1  0.80450000  0.81970000  0.16262000  1.0 -0.5507108722
O  O4  1  0.19550000  0.31970000  0.33738000  1.0 -0.5507108722
O  O5  1  0.12060000  0.13770000  0.74670000  1.0 -0.5507108722
O  O6  1  0.87940000  0.63770000  0.75330000  1.0 -0.5507108722
O  O7  1  0.87940000  0.86230000  0.25330000  1.0 -0.5507108722
O  O8  1  0.12060000  0.36230000  0.24670000  1.0 -0.5507108722
O  O9  1  0.87670000  0.87860000  0.73723000  1.0 -0.4984785472
O  O10  1  0.12330000  0.37860000  0.76277000  1.0 -0.4984785472
O  O11  1  0.12330000  0.12140000  0.26277000  1.0 -0.4984785472
O  O12  1  0.87670000  0.62140000  0.23723000  1.0 -0.4984785472
O  O13  1  0.81950000  0.84900000  0.81907000  1.0 -0.6221539159
O  O14  1  0.18050000  0.34900000  0.68093000  1.0 -0.6221539159
O  O15  1  0.18050000  0.15100000  0.18093000  1.0 -0.6221539159
O  O16  1  0.81950000  0.65100000  0.31907000  1.0 -0.6221539159
O  O17  1  0.60540000  0.90600000  0.76850000  1.0 -0.6017878135
O  O18  1  0.39460000  0.40600000  0.73150000  1.0 -0.6017878135
O  O19  1  0.39460000  0.09400000  0.23150000  1.0 -0.6017878135
O  O20  1  0.60540000  0.59400000  0.26850000  1.0 -0.6017878135
O  O21  1  0.64830000  0.84400000  0.68688000  1.0 -0.5215641786
O  O22  1  0.35170000  0.34400000  0.81312000  1.0 -0.5215641786
O  O23  1  0.35170000  0.15600000  0.31312000  1.0 -0.5215641786
O  O24  1  0.64830000  0.65600000  0.18688000  1.0 -0.5215641786
O  O25  1  0.35580000  0.14810000  0.74220000  1.0 -0.5282705803
O  O26  1  0.64420000  0.64810000  0.75780000  1.0 -0.5282705803
O  O27  1  0.64420000  0.85190000  0.25780000  1.0 -0.5282705803
O  O28  1  0.35580000  0.35190000  0.24220000  1.0 -0.5282705803
O  O29  1  0.31970000  0.21870000  0.65440000  1.0 -0.6086779465
O  O30  1  0.68030000  0.71870000  0.84560000  1.0 -0.6086779465
O  O31  1  0.68030000  0.78130000  0.34560000  1.0 -0.6086779465
O  O32  1  0.31970000  0.28130000  0.15440000  1.0 -0.6086779465
O  O33  1  0.03610000  0.01710000  0.98520000  1.0 -0.0429229672
O  O34  1  0.96390000  0.51710000  0.51480000  1.0 -0.0429229672
O  O35  1  0.96390000  0.98290000  0.01480000  1.0 -0.0429229672
O  O36  1  0.03610000  0.48290000  0.48520000  1.0 -0.0315583196
O  O37  1  0.47670000  0.04210000  0.51190000  1.0 0.0028137008
O  O38  1  0.52330000  0.54210000  0.98810000  1.0 0.0028137008
O  O39  1  0.52330000  0.95790000  0.48810000  1.0 0.0028137008
O  O40  1  0.47670000  0.45790000  0.01190000  1.0 0.0051471848
