# DDEC6 charges by PACMAN v1.1 (https://github.com/mtap-research/PACMAN-charge/)
data_BIBXOB_ASR_pacman
_symmetry_space_group_name_H-M   'P 1'
_cell_length_a   22.95390000
_cell_length_b   22.95390000
_cell_length_c   22.95390000
_cell_angle_alpha   60.00000000
_cell_angle_beta   60.00000000
_cell_angle_gamma   60.00000000
_symmetry_Int_Tables_number   1
_chemical_formula_structural   Ni4H27C48(N4O)3
_chemical_formula_sum   'Ni8 H54 C96 N24 O6'
_cell_volume   8551.73940011
_cell_formula_units_Z   2
loop_
 _symmetry_equiv_pos_site_id
 _symmetry_equiv_pos_as_xyz
  1  'x, y, z'
loop_
 _atom_site_type_symbol
 _atom_site_label
 _atom_site_symmetry_multiplicity
 _atom_site_fract_x
 _atom_site_fract_y
 _atom_site_fract_z
 _atom_site_occupancy
 _atom_site_charge
Ni  Ni1  1  0.04240000  0.04240000  0.04240000  1.0 0.6542922659
Ni  Ni2  1  0.04240000  0.04240000  0.87280000  1.0 0.6542922659
Ni  Ni3  1  0.95760000  0.95760000  0.95760000  1.0 0.6542922659
Ni  Ni4  1  0.12720000  0.95760000  0.95760000  1.0 0.6542922659
Ni  Ni5  1  0.04240000  0.87280000  0.04240000  1.0 0.6542922659
Ni  Ni6  1  0.87280000  0.04240000  0.04240000  1.0 0.6542922659
Ni  Ni7  1  0.95760000  0.12720000  0.95760000  1.0 0.6542922659
Ni  Ni8  1  0.95760000  0.95760000  0.12720000  1.0 0.6561519223
H  H1  1  0.90658000  0.09342000  0.09342000  1.0 0.3894325512
H  H2  1  0.09342000  0.90658000  0.90658000  1.0 0.3894325512
H  H3  1  0.90658000  0.09342000  0.90658000  1.0 0.3894325512
H  H4  1  0.09342000  0.09342000  0.90658000  1.0 0.3894325512
H  H5  1  0.90658000  0.90658000  0.09342000  1.0 0.3894325512
H  H6  1  0.09342000  0.90658000  0.09342000  1.0 0.3894325512
H  H7  1  0.93757000  0.93757000  0.61341000  1.0 0.122006595
H  H8  1  0.93757000  0.93757000  0.51145000  1.0 0.122006595
H  H9  1  0.06243000  0.38659000  0.06243000  1.0 0.122006595
H  H10  1  0.48855000  0.06243000  0.38659000  1.0 0.122006595
H  H11  1  0.61341000  0.51145000  0.93757000  1.0 0.122006595
H  H12  1  0.06243000  0.06243000  0.38659000  1.0 0.122006595
H  H13  1  0.61341000  0.93757000  0.51145000  1.0 0.122006595
H  H14  1  0.93757000  0.51145000  0.93757000  1.0 0.122006595
H  H15  1  0.48855000  0.38659000  0.06243000  1.0 0.122006595
H  H16  1  0.93757000  0.61341000  0.51145000  1.0 0.122006595
H  H17  1  0.38659000  0.06243000  0.06243000  1.0 0.122006595
H  H18  1  0.48855000  0.06243000  0.06243000  1.0 0.122006595
H  H19  1  0.93757000  0.51145000  0.61341000  1.0 0.122006595
H  H20  1  0.51145000  0.93757000  0.93757000  1.0 0.122006595
H  H21  1  0.06243000  0.48855000  0.38659000  1.0 0.122006595
H  H22  1  0.06243000  0.38659000  0.48855000  1.0 0.122006595
H  H23  1  0.61341000  0.93757000  0.93757000  1.0 0.122006595
H  H24  1  0.38659000  0.48855000  0.06243000  1.0 0.122006595
H  H25  1  0.51145000  0.93757000  0.61341000  1.0 0.122006595
H  H26  1  0.93757000  0.61341000  0.93757000  1.0 0.122006595
H  H27  1  0.06243000  0.06243000  0.48855000  1.0 0.122006595
H  H28  1  0.51145000  0.61341000  0.93757000  1.0 0.122006595
H  H29  1  0.06243000  0.48855000  0.06243000  1.0 0.122006595
H  H30  1  0.38659000  0.06243000  0.48855000  1.0 0.122006595
H  H31  1  0.93827000  0.93827000  0.82905000  1.0 0.1256929505
H  H32  1  0.93827000  0.93827000  0.29441000  1.0 0.1256929505
H  H33  1  0.06173000  0.17095000  0.06173000  1.0 0.1256929505
H  H34  1  0.70559000  0.06173000  0.17095000  1.0 0.1256929505
H  H35  1  0.82905000  0.29441000  0.93827000  1.0 0.1256929505
H  H36  1  0.06173000  0.06173000  0.17095000  1.0 0.1256929505
H  H37  1  0.82905000  0.93827000  0.29441000  1.0 0.1256929505
H  H38  1  0.93827000  0.29441000  0.93827000  1.0 0.1256929505
H  H39  1  0.70559000  0.17095000  0.06173000  1.0 0.1256929505
H  H40  1  0.93827000  0.82905000  0.29441000  1.0 0.1256929505
H  H41  1  0.17095000  0.06173000  0.06173000  1.0 0.1256929505
H  H42  1  0.70559000  0.06173000  0.06173000  1.0 0.1256929505
H  H43  1  0.93827000  0.29441000  0.82905000  1.0 0.1256929505
H  H44  1  0.29441000  0.93827000  0.93827000  1.0 0.1256929505
H  H45  1  0.06173000  0.70559000  0.17095000  1.0 0.1256929505
H  H46  1  0.06173000  0.17095000  0.70559000  1.0 0.1256929505
H  H47  1  0.82905000  0.93827000  0.93827000  1.0 0.1256929505
H  H48  1  0.17095000  0.70559000  0.06173000  1.0 0.1256929505
H  H49  1  0.29441000  0.93827000  0.82905000  1.0 0.1256929505
H  H50  1  0.93827000  0.82905000  0.93827000  1.0 0.1256929505
H  H51  1  0.06173000  0.06173000  0.70559000  1.0 0.1256929505
H  H52  1  0.29441000  0.82905000  0.93827000  1.0 0.1256929505
H  H53  1  0.06173000  0.70559000  0.06173000  1.0 0.1256929505
H  H54  1  0.17095000  0.06173000  0.70559000  1.0 0.1256929505
C  C1  1  0.00000000  0.00000000  0.56056000  1.0 0.1425415605
C  C2  1  0.00000000  0.00000000  0.43944000  1.0 0.1425415605
C  C3  1  0.00000000  0.43944000  0.00000000  1.0 0.1425415605
C  C4  1  0.56056000  0.00000000  0.43944000  1.0 0.1425415605
C  C5  1  0.56056000  0.43944000  0.00000000  1.0 0.1425415605
C  C6  1  0.00000000  0.56056000  0.43944000  1.0 0.1425415605
C  C7  1  0.43944000  0.00000000  0.00000000  1.0 0.1425415605
C  C8  1  0.56056000  0.00000000  0.00000000  1.0 0.1425415605
C  C9  1  0.00000000  0.43944000  0.56056000  1.0 0.1425415605
C  C10  1  0.43944000  0.56056000  0.00000000  1.0 0.1425415605
C  C11  1  0.43944000  0.00000000  0.56056000  1.0 0.1425415605
C  C12  1  0.00000000  0.56056000  0.00000000  1.0 0.1425415605
C  C13  1  0.96292000  0.96292000  0.56736000  1.0 -0.1290541512
C  C14  1  0.96292000  0.96292000  0.50680000  1.0 -0.1290541512
C  C15  1  0.03708000  0.43264000  0.03708000  1.0 -0.1290541512
C  C16  1  0.49320000  0.03708000  0.43264000  1.0 -0.1382008688
C  C17  1  0.56736000  0.50680000  0.96292000  1.0 -0.1382008688
C  C18  1  0.03708000  0.03708000  0.43264000  1.0 -0.1382008688
C  C19  1  0.56736000  0.96292000  0.50680000  1.0 -0.1290541512
C  C20  1  0.96292000  0.50680000  0.96292000  1.0 -0.1382008688
C  C21  1  0.49320000  0.43264000  0.03708000  1.0 -0.1290541512
C  C22  1  0.96292000  0.56736000  0.50680000  1.0 -0.1382008688
C  C23  1  0.43264000  0.03708000  0.03708000  1.0 -0.1290541512
C  C24  1  0.49320000  0.03708000  0.03708000  1.0 -0.1290541512
C  C25  1  0.96292000  0.50680000  0.56736000  1.0 -0.1382008688
C  C26  1  0.50680000  0.96292000  0.96292000  1.0 -0.1382008688
C  C27  1  0.03708000  0.49320000  0.43264000  1.0 -0.1382008688
C  C28  1  0.03708000  0.43264000  0.49320000  1.0 -0.1382008688
C  C29  1  0.56736000  0.96292000  0.96292000  1.0 -0.1382008688
C  C30  1  0.43264000  0.49320000  0.03708000  1.0 -0.1290541512
C  C31  1  0.50680000  0.96292000  0.56736000  1.0 -0.1382008688
C  C32  1  0.96292000  0.56736000  0.96292000  1.0 -0.1290541512
C  C33  1  0.03708000  0.03708000  0.49320000  1.0 -0.1382008688
C  C34  1  0.50680000  0.56736000  0.96292000  1.0 -0.1290541512
C  C35  1  0.03708000  0.49320000  0.03708000  1.0 -0.1382008688
C  C36  1  0.43264000  0.03708000  0.49320000  1.0 -0.1382008688
C  C37  1  0.00000000  0.00000000  0.62590000  1.0 -0.1068404382
C  C38  1  0.00000000  0.00000000  0.37410000  1.0 -0.1068404382
C  C39  1  0.00000000  0.37410000  0.00000000  1.0 -0.1068404382
C  C40  1  0.62590000  0.00000000  0.37410000  1.0 -0.1068404382
C  C41  1  0.62590000  0.37410000  0.00000000  1.0 -0.1068404382
C  C42  1  0.00000000  0.62590000  0.37410000  1.0 -0.1035919396
C  C43  1  0.37410000  0.00000000  0.00000000  1.0 -0.1068404382
C  C44  1  0.62590000  0.00000000  0.00000000  1.0 -0.1068404382
C  C45  1  0.00000000  0.37410000  0.62590000  1.0 -0.1035919396
C  C46  1  0.37410000  0.62590000  0.00000000  1.0 -0.1068404382
C  C47  1  0.37410000  0.00000000  0.62590000  1.0 -0.1068404382
C  C48  1  0.00000000  0.62590000  0.00000000  1.0 -0.1068404382
C  C49  1  0.00000000  0.00000000  0.67992000  1.0 -0.1238409934
C  C50  1  0.00000000  0.00000000  0.32008000  1.0 -0.1238409934
C  C51  1  0.00000000  0.32008000  0.00000000  1.0 -0.1238409934
C  C52  1  0.67992000  0.00000000  0.32008000  1.0 -0.1238409934
C  C53  1  0.67992000  0.32008000  0.00000000  1.0 -0.1238409934
C  C54  1  0.00000000  0.67992000  0.32008000  1.0 -0.1238409934
C  C55  1  0.32008000  0.00000000  0.00000000  1.0 -0.1238409934
C  C56  1  0.67992000  0.00000000  0.00000000  1.0 -0.1238409934
C  C57  1  0.00000000  0.32008000  0.67992000  1.0 -0.1238409934
C  C58  1  0.32008000  0.67992000  0.00000000  1.0 -0.1238409934
C  C59  1  0.32008000  0.00000000  0.67992000  1.0 -0.1238409934
C  C60  1  0.00000000  0.67992000  0.00000000  1.0 -0.1238409934
C  C61  1  0.00000000  0.00000000  0.74528000  1.0 0.041589481
C  C62  1  0.00000000  0.00000000  0.25472000  1.0 0.041589481
C  C63  1  0.00000000  0.25472000  0.00000000  1.0 0.041589481
C  C64  1  0.74528000  0.00000000  0.25472000  1.0 0.041589481
C  C65  1  0.74528000  0.25472000  0.00000000  1.0 0.041589481
C  C66  1  0.00000000  0.74528000  0.25472000  1.0 0.041589481
C  C67  1  0.25472000  0.00000000  0.00000000  1.0 0.041589481
C  C68  1  0.74528000  0.00000000  0.00000000  1.0 0.041589481
C  C69  1  0.00000000  0.25472000  0.74528000  1.0 0.041589481
C  C70  1  0.25472000  0.74528000  0.00000000  1.0 0.041589481
C  C71  1  0.25472000  0.00000000  0.74528000  1.0 0.041589481
C  C72  1  0.00000000  0.74528000  0.00000000  1.0 0.041589481
C  C73  1  0.96611000  0.96611000  0.81399000  1.0 -0.0834641719
C  C74  1  0.96611000  0.96611000  0.25379000  1.0 -0.0834641719
C  C75  1  0.03389000  0.18601000  0.03389000  1.0 -0.0834641719
C  C76  1  0.74621000  0.03389000  0.18601000  1.0 -0.0834641719
C  C77  1  0.81399000  0.25379000  0.96611000  1.0 -0.0834641719
C  C78  1  0.03389000  0.03389000  0.18601000  1.0 -0.0834641719
C  C79  1  0.81399000  0.96611000  0.25379000  1.0 -0.0834641719
C  C80  1  0.96611000  0.25379000  0.96611000  1.0 -0.0834641719
C  C81  1  0.74621000  0.18601000  0.03389000  1.0 -0.0834641719
C  C82  1  0.96611000  0.81399000  0.25379000  1.0 -0.0834641719
C  C83  1  0.18601000  0.03389000  0.03389000  1.0 -0.0834641719
C  C84  1  0.74621000  0.03389000  0.03389000  1.0 -0.0834641719
C  C85  1  0.96611000  0.25379000  0.81399000  1.0 -0.0834641719
C  C86  1  0.25379000  0.96611000  0.96611000  1.0 -0.0834641719
C  C87  1  0.03389000  0.74621000  0.18601000  1.0 -0.0834641719
C  C88  1  0.03389000  0.18601000  0.74621000  1.0 -0.0834641719
C  C89  1  0.81399000  0.96611000  0.96611000  1.0 -0.0834641719
C  C90  1  0.18601000  0.74621000  0.03389000  1.0 -0.0834641719
C  C91  1  0.25379000  0.96611000  0.81399000  1.0 -0.0834641719
C  C92  1  0.96611000  0.81399000  0.96611000  1.0 -0.0834641719
C  C93  1  0.03389000  0.03389000  0.74621000  1.0 -0.0834641719
C  C94  1  0.25379000  0.81399000  0.96611000  1.0 -0.0834641719
C  C95  1  0.03389000  0.74621000  0.03389000  1.0 -0.0834641719
C  C96  1  0.18601000  0.03389000  0.74621000  1.0 -0.0834641719
N  N1  1  0.97905000  0.97905000  0.85741000  1.0 -0.1501392164
N  N2  1  0.97905000  0.97905000  0.18449000  1.0 -0.1501392164
N  N3  1  0.02095000  0.14259000  0.02095000  1.0 -0.1501392164
N  N4  1  0.81551000  0.02095000  0.14259000  1.0 -0.1501392164
N  N5  1  0.85741000  0.18449000  0.97905000  1.0 -0.1501392164
N  N6  1  0.02095000  0.02095000  0.14259000  1.0 -0.1501392164
N  N7  1  0.85741000  0.97905000  0.18449000  1.0 -0.1501392164
N  N8  1  0.97905000  0.18449000  0.97905000  1.0 -0.1501392164
N  N9  1  0.81551000  0.14259000  0.02095000  1.0 -0.1501392164
N  N10  1  0.97905000  0.85741000  0.18449000  1.0 -0.1501392164
N  N11  1  0.14259000  0.02095000  0.02095000  1.0 -0.1501392164
N  N12  1  0.81551000  0.02095000  0.02095000  1.0 -0.1501392164
N  N13  1  0.97905000  0.18449000  0.85741000  1.0 -0.1501392164
N  N14  1  0.18449000  0.97905000  0.97905000  1.0 -0.1501392164
N  N15  1  0.02095000  0.81551000  0.14259000  1.0 -0.1501392164
N  N16  1  0.02095000  0.14259000  0.81551000  1.0 -0.1501392164
N  N17  1  0.85741000  0.97905000  0.97905000  1.0 -0.1501392164
N  N18  1  0.14259000  0.81551000  0.02095000  1.0 -0.1501392164
N  N19  1  0.18449000  0.97905000  0.85741000  1.0 -0.1501392164
N  N20  1  0.97905000  0.85741000  0.97905000  1.0 -0.1501392164
N  N21  1  0.02095000  0.02095000  0.81551000  1.0 -0.1501392164
N  N22  1  0.18449000  0.85741000  0.97905000  1.0 -0.1501392164
N  N23  1  0.02095000  0.81551000  0.02095000  1.0 -0.1501392164
N  N24  1  0.14259000  0.02095000  0.81551000  1.0 -0.1501392164
O  O1  1  0.93584000  0.06416000  0.06416000  1.0 -0.6889399173
O  O2  1  0.06416000  0.93584000  0.93584000  1.0 -0.6889399173
O  O3  1  0.93584000  0.06416000  0.93584000  1.0 -0.6889399173
O  O4  1  0.06416000  0.06416000  0.93584000  1.0 -0.6889399173
O  O5  1  0.93584000  0.93584000  0.06416000  1.0 -0.6889399173
O  O6  1  0.06416000  0.93584000  0.06416000  1.0 -0.6889399173
