# DDEC6 charges by PACMAN v1.1 (https://github.com/mtap-research/PACMAN-charge/)
data_BIGZUO_FSR_pacman
_symmetry_space_group_name_H-M   'P 1'
_cell_length_a   44.39100000
_cell_length_b   44.39100000
_cell_length_c   23.25800000
_cell_angle_alpha   90.00000000
_cell_angle_beta   90.00000000
_cell_angle_gamma   120.00000000
_symmetry_Int_Tables_number   1
_chemical_formula_structural   Cr3Ag3H24C36(N3O8)2
_chemical_formula_sum   'Cr18 Ag18 H144 C216 N36 O96'
_cell_volume   39691.07439287
_cell_formula_units_Z   6
loop_
 _symmetry_equiv_pos_site_id
 _symmetry_equiv_pos_as_xyz
  1  'x, y, z'
loop_
 _atom_site_type_symbol
 _atom_site_label
 _atom_site_symmetry_multiplicity
 _atom_site_fract_x
 _atom_site_fract_y
 _atom_site_fract_z
 _atom_site_occupancy
 _atom_site_charge
Cr  Cr1  1  0.83156000  0.16844000  0.25000000  1.0 1.5414282727
Cr  Cr2  1  0.16844000  0.83156000  0.75000000  1.0 1.5414282727
Cr  Cr3  1  0.83156000  0.66312000  0.25000000  1.0 1.5414282727
Cr  Cr4  1  0.33688000  0.16844000  0.25000000  1.0 1.5414282727
Cr  Cr5  1  0.66312000  0.83156000  0.75000000  1.0 1.5414282727
Cr  Cr6  1  0.16844000  0.33688000  0.75000000  1.0 1.5414282727
Cr  Cr7  1  0.79487000  0.20513000  0.17980000  1.0 1.4374672023
Cr  Cr8  1  0.20513000  0.79487000  0.67980000  1.0 1.4374672023
Cr  Cr9  1  0.79487000  0.58974000  0.17980000  1.0 1.4374672023
Cr  Cr10  1  0.41026000  0.20513000  0.17980000  1.0 1.4374672023
Cr  Cr11  1  0.58974000  0.79487000  0.67980000  1.0 1.4374672023
Cr  Cr12  1  0.20513000  0.41026000  0.67980000  1.0 1.4374672023
Cr  Cr13  1  0.58974000  0.79487000  0.82020000  1.0 1.4374672023
Cr  Cr14  1  0.20513000  0.41026000  0.82020000  1.0 1.4374672023
Cr  Cr15  1  0.20513000  0.79487000  0.82020000  1.0 1.4374672023
Cr  Cr16  1  0.79487000  0.20513000  0.32020000  1.0 1.4374672023
Cr  Cr17  1  0.79487000  0.58974000  0.32020000  1.0 1.4374672023
Cr  Cr18  1  0.41026000  0.20513000  0.32020000  1.0 1.4374672023
Ag  Ag1  1  0.85253000  0.42627000  0.25000000  1.0 0.1788664862
Ag  Ag2  1  0.14747000  0.57373000  0.75000000  1.0 0.1725201803
Ag  Ag3  1  0.57373000  0.42627000  0.25000000  1.0 0.1788664862
Ag  Ag4  1  0.57373000  0.14747000  0.25000000  1.0 0.1788664862
Ag  Ag5  1  0.42627000  0.85253000  0.75000000  1.0 0.1725201803
Ag  Ag6  1  0.42627000  0.57373000  0.75000000  1.0 0.1725201803
Ag  Ag7  1  0.70264000  0.00000000  0.00000000  1.0 0.1895134577
Ag  Ag8  1  0.29736000  0.00000000  0.50000000  1.0 0.1895134577
Ag  Ag9  1  0.00000000  0.70264000  0.00000000  1.0 0.1788664862
Ag  Ag10  1  0.29736000  0.29736000  0.00000000  1.0 0.1895134577
Ag  Ag11  1  0.70264000  0.70264000  0.50000000  1.0 0.1788664862
Ag  Ag12  1  0.00000000  0.29736000  0.50000000  1.0 0.1895134577
Ag  Ag13  1  0.29736000  0.00000000  0.00000000  1.0 0.1895134577
Ag  Ag14  1  0.70264000  0.00000000  0.50000000  1.0 0.1895134577
Ag  Ag15  1  0.00000000  0.29736000  0.00000000  1.0 0.1895134577
Ag  Ag16  1  0.70264000  0.70264000  0.00000000  1.0 0.1788664862
Ag  Ag17  1  0.29736000  0.29736000  0.50000000  1.0 0.1895134577
Ag  Ag18  1  0.00000000  0.70264000  0.50000000  1.0 0.1788664862
H  H1  1  0.82620000  0.30900000  0.33640000  1.0 0.1409138235
H  H2  1  0.17380000  0.69100000  0.83640000  1.0 0.1409138235
H  H3  1  0.69100000  0.51720000  0.33640000  1.0 0.1409138235
H  H4  1  0.48280000  0.17380000  0.33640000  1.0 0.1409138235
H  H5  1  0.51720000  0.82620000  0.83640000  1.0 0.1409138235
H  H6  1  0.30900000  0.48280000  0.83640000  1.0 0.1409138235
H  H7  1  0.51720000  0.69100000  0.66360000  1.0 0.1409138235
H  H8  1  0.17380000  0.48280000  0.66360000  1.0 0.1409138235
H  H9  1  0.30900000  0.82620000  0.66360000  1.0 0.1409138235
H  H10  1  0.69100000  0.17380000  0.16360000  1.0 0.1409138235
H  H11  1  0.82620000  0.51720000  0.16360000  1.0 0.1409138235
H  H12  1  0.48280000  0.30900000  0.16360000  1.0 0.1409138235
H  H13  1  0.17380000  0.69100000  0.66360000  1.0 0.1409138235
H  H14  1  0.82620000  0.30900000  0.16360000  1.0 0.1409138235
H  H15  1  0.30900000  0.48280000  0.66360000  1.0 0.1409138235
H  H16  1  0.51720000  0.82620000  0.66360000  1.0 0.1409138235
H  H17  1  0.48280000  0.17380000  0.16360000  1.0 0.1409138235
H  H18  1  0.69100000  0.51720000  0.16360000  1.0 0.1409138235
H  H19  1  0.48280000  0.30900000  0.33640000  1.0 0.1409138235
H  H20  1  0.82620000  0.51720000  0.33640000  1.0 0.1409138235
H  H21  1  0.69100000  0.17380000  0.33640000  1.0 0.1409138235
H  H22  1  0.30900000  0.82620000  0.83640000  1.0 0.1409138235
H  H23  1  0.17380000  0.48280000  0.83640000  1.0 0.1409138235
H  H24  1  0.51720000  0.69100000  0.83640000  1.0 0.1409138235
H  H25  1  0.84040000  0.36750000  0.33590000  1.0 0.0798721562
H  H26  1  0.15960000  0.63250000  0.83590000  1.0 0.0798721562
H  H27  1  0.63250000  0.47290000  0.33590000  1.0 0.0798721562
H  H28  1  0.52710000  0.15960000  0.33590000  1.0 0.0798721562
H  H29  1  0.47290000  0.84040000  0.83590000  1.0 0.0798721562
H  H30  1  0.36750000  0.52710000  0.83590000  1.0 0.0798721562
H  H31  1  0.47290000  0.63250000  0.66410000  1.0 0.0798721562
H  H32  1  0.15960000  0.52710000  0.66410000  1.0 0.0798721562
H  H33  1  0.36750000  0.84040000  0.66410000  1.0 0.0798721562
H  H34  1  0.63250000  0.15960000  0.16410000  1.0 0.0798721562
H  H35  1  0.84040000  0.47290000  0.16410000  1.0 0.0798721562
H  H36  1  0.52710000  0.36750000  0.16410000  1.0 0.0798721562
H  H37  1  0.15960000  0.63250000  0.66410000  1.0 0.0798721562
H  H38  1  0.84040000  0.36750000  0.16410000  1.0 0.0798721562
H  H39  1  0.36750000  0.52710000  0.66410000  1.0 0.0798721562
H  H40  1  0.47290000  0.84040000  0.66410000  1.0 0.0798721562
H  H41  1  0.52710000  0.15960000  0.16410000  1.0 0.0798721562
H  H42  1  0.63250000  0.47290000  0.16410000  1.0 0.0798721562
H  H43  1  0.52710000  0.36750000  0.33590000  1.0 0.0798721562
H  H44  1  0.84040000  0.47290000  0.33590000  1.0 0.0798721562
H  H45  1  0.63250000  0.15960000  0.33590000  1.0 0.0798721562
H  H46  1  0.36750000  0.84040000  0.83590000  1.0 0.0798721562
H  H47  1  0.15960000  0.52710000  0.83590000  1.0 0.0798721562
H  H48  1  0.47290000  0.63250000  0.83590000  1.0 0.0798721562
H  H49  1  0.73570000  0.12160000  0.07550000  1.0 0.1409138235
H  H50  1  0.26430000  0.87840000  0.57550000  1.0 0.1409138235
H  H51  1  0.87840000  0.61410000  0.07550000  1.0 0.1409138235
H  H52  1  0.38590000  0.26430000  0.07550000  1.0 0.1409138235
H  H53  1  0.61410000  0.73570000  0.57550000  1.0 0.1409138235
H  H54  1  0.12160000  0.38590000  0.57550000  1.0 0.1409138235
H  H55  1  0.61410000  0.87840000  0.92450000  1.0 0.1409138235
H  H56  1  0.26430000  0.38590000  0.92450000  1.0 0.1409138235
H  H57  1  0.12160000  0.73570000  0.92450000  1.0 0.1409138235
H  H58  1  0.87840000  0.26430000  0.42450000  1.0 0.1409138235
H  H59  1  0.73570000  0.61410000  0.42450000  1.0 0.1409138235
H  H60  1  0.38590000  0.12160000  0.42450000  1.0 0.1409138235
H  H61  1  0.26430000  0.87840000  0.92450000  1.0 0.1409138235
H  H62  1  0.73570000  0.12160000  0.42450000  1.0 0.1409138235
H  H63  1  0.12160000  0.38590000  0.92450000  1.0 0.1409138235
H  H64  1  0.61410000  0.73570000  0.92450000  1.0 0.1409138235
H  H65  1  0.38590000  0.26430000  0.42450000  1.0 0.1409138235
H  H66  1  0.87840000  0.61410000  0.42450000  1.0 0.1409138235
H  H67  1  0.38590000  0.12160000  0.07550000  1.0 0.1409138235
H  H68  1  0.73570000  0.61410000  0.07550000  1.0 0.1409138235
H  H69  1  0.87840000  0.26430000  0.07550000  1.0 0.1409138235
H  H70  1  0.12160000  0.73570000  0.57550000  1.0 0.1409138235
H  H71  1  0.26430000  0.38590000  0.57550000  1.0 0.1409138235
H  H72  1  0.61410000  0.87840000  0.57550000  1.0 0.1409138235
H  H73  1  0.70540000  0.07210000  0.01780000  1.0 0.0920112928
H  H74  1  0.29460000  0.92790000  0.51780000  1.0 0.0920112928
H  H75  1  0.92790000  0.63330000  0.01780000  1.0 0.0920112928
H  H76  1  0.36670000  0.29460000  0.01780000  1.0 0.0920112928
H  H77  1  0.63330000  0.70540000  0.51780000  1.0 0.0920112928
H  H78  1  0.07210000  0.36670000  0.51780000  1.0 0.0920112928
H  H79  1  0.63330000  0.92790000  0.98220000  1.0 0.0920112928
H  H80  1  0.29460000  0.36670000  0.98220000  1.0 0.0920112928
H  H81  1  0.07210000  0.70540000  0.98220000  1.0 0.0920112928
H  H82  1  0.92790000  0.29460000  0.48220000  1.0 0.0920112928
H  H83  1  0.70540000  0.63330000  0.48220000  1.0 0.0920112928
H  H84  1  0.36670000  0.07210000  0.48220000  1.0 0.0920112928
H  H85  1  0.29460000  0.92790000  0.98220000  1.0 0.0920112928
H  H86  1  0.70540000  0.07210000  0.48220000  1.0 0.0920112928
H  H87  1  0.07210000  0.36670000  0.98220000  1.0 0.0920112928
H  H88  1  0.63330000  0.70540000  0.98220000  1.0 0.0920112928
H  H89  1  0.36670000  0.29460000  0.48220000  1.0 0.0920112928
H  H90  1  0.92790000  0.63330000  0.48220000  1.0 0.0920112928
H  H91  1  0.36670000  0.07210000  0.01780000  1.0 0.0920112928
H  H92  1  0.70540000  0.63330000  0.01780000  1.0 0.0920112928
H  H93  1  0.92790000  0.29460000  0.01780000  1.0 0.0920112928
H  H94  1  0.07210000  0.70540000  0.51780000  1.0 0.0920112928
H  H95  1  0.29460000  0.36670000  0.51780000  1.0 0.0920112928
H  H96  1  0.63330000  0.92790000  0.51780000  1.0 0.0920112928
H  H97  1  0.75470000  0.02890000  0.09690000  1.0 0.0920112928
H  H98  1  0.24530000  0.97110000  0.59690000  1.0 0.0920112928
H  H99  1  0.97110000  0.72580000  0.09690000  1.0 0.0920112928
H  H100  1  0.27420000  0.24530000  0.09690000  1.0 0.0920112928
H  H101  1  0.72580000  0.75470000  0.59690000  1.0 0.0920112928
H  H102  1  0.02890000  0.27420000  0.59690000  1.0 0.0920112928
H  H103  1  0.72580000  0.97110000  0.90310000  1.0 0.0920112928
H  H104  1  0.24530000  0.27420000  0.90310000  1.0 0.0920112928
H  H105  1  0.02890000  0.75470000  0.90310000  1.0 0.0920112928
H  H106  1  0.97110000  0.24530000  0.40310000  1.0 0.0920112928
H  H107  1  0.75470000  0.72580000  0.40310000  1.0 0.0920112928
H  H108  1  0.27420000  0.02890000  0.40310000  1.0 0.0920112928
H  H109  1  0.24530000  0.97110000  0.90310000  1.0 0.0920112928
H  H110  1  0.75470000  0.02890000  0.40310000  1.0 0.0920112928
H  H111  1  0.02890000  0.27420000  0.90310000  1.0 0.0920112928
H  H112  1  0.72580000  0.75470000  0.90310000  1.0 0.0920112928
H  H113  1  0.27420000  0.24530000  0.40310000  1.0 0.0920112928
H  H114  1  0.97110000  0.72580000  0.40310000  1.0 0.0920112928
H  H115  1  0.27420000  0.02890000  0.09690000  1.0 0.0920112928
H  H116  1  0.75470000  0.72580000  0.09690000  1.0 0.0920112928
H  H117  1  0.97110000  0.24530000  0.09690000  1.0 0.0920112928
H  H118  1  0.02890000  0.75470000  0.59690000  1.0 0.0920112928
H  H119  1  0.24530000  0.27420000  0.59690000  1.0 0.0920112928
H  H120  1  0.72580000  0.97110000  0.59690000  1.0 0.0920112928
H  H121  1  0.78630000  0.07900000  0.15440000  1.0 0.1409138235
H  H122  1  0.21370000  0.92100000  0.65440000  1.0 0.1409138235
H  H123  1  0.92100000  0.70730000  0.15440000  1.0 0.1409138235
H  H124  1  0.29270000  0.21370000  0.15440000  1.0 0.1409138235
H  H125  1  0.70730000  0.78630000  0.65440000  1.0 0.1409138235
H  H126  1  0.07900000  0.29270000  0.65440000  1.0 0.1409138235
H  H127  1  0.70730000  0.92100000  0.84560000  1.0 0.1409138235
H  H128  1  0.21370000  0.29270000  0.84560000  1.0 0.1409138235
H  H129  1  0.07900000  0.78630000  0.84560000  1.0 0.1409138235
H  H130  1  0.92100000  0.21370000  0.34560000  1.0 0.1409138235
H  H131  1  0.78630000  0.70730000  0.34560000  1.0 0.1409138235
H  H132  1  0.29270000  0.07900000  0.34560000  1.0 0.1409138235
H  H133  1  0.21370000  0.92100000  0.84560000  1.0 0.1409138235
H  H134  1  0.78630000  0.07900000  0.34560000  1.0 0.1409138235
H  H135  1  0.07900000  0.29270000  0.84560000  1.0 0.1409138235
H  H136  1  0.70730000  0.78630000  0.84560000  1.0 0.1409138235
H  H137  1  0.29270000  0.21370000  0.34560000  1.0 0.1409138235
H  H138  1  0.92100000  0.70730000  0.34560000  1.0 0.1409138235
H  H139  1  0.29270000  0.07900000  0.15440000  1.0 0.1409138235
H  H140  1  0.78630000  0.70730000  0.15440000  1.0 0.1409138235
H  H141  1  0.92100000  0.21370000  0.15440000  1.0 0.1409138235
H  H142  1  0.07900000  0.78630000  0.65440000  1.0 0.1409138235
H  H143  1  0.21370000  0.29270000  0.65440000  1.0 0.1409138235
H  H144  1  0.70730000  0.92100000  0.65440000  1.0 0.1409138235
C  C1  1  0.81340000  0.26600000  0.25000000  1.0 0.5797537314
C  C2  1  0.18660000  0.73400000  0.75000000  1.0 0.5797537314
C  C3  1  0.73400000  0.54740000  0.25000000  1.0 0.5797537314
C  C4  1  0.45260000  0.18660000  0.25000000  1.0 0.5797537314
C  C5  1  0.54740000  0.81340000  0.75000000  1.0 0.5797537314
C  C6  1  0.26600000  0.45260000  0.75000000  1.0 0.5797537314
C  C7  1  0.54740000  0.73400000  0.75000000  1.0 0.5797537314
C  C8  1  0.18660000  0.45260000  0.75000000  1.0 0.5797537314
C  C9  1  0.26600000  0.81340000  0.75000000  1.0 0.5797537314
C  C10  1  0.73400000  0.18660000  0.25000000  1.0 0.5797537314
C  C11  1  0.81340000  0.54740000  0.25000000  1.0 0.5797537314
C  C12  1  0.45260000  0.26600000  0.25000000  1.0 0.5797537314
C  C13  1  0.82540000  0.30450000  0.25000000  1.0 -0.0018414891
C  C14  1  0.17460000  0.69550000  0.75000000  1.0 -0.0018414891
C  C15  1  0.69550000  0.52090000  0.25000000  1.0 -0.0018414891
C  C16  1  0.47910000  0.17460000  0.25000000  1.0 -0.0018414891
C  C17  1  0.52090000  0.82540000  0.75000000  1.0 -0.0018414891
C  C18  1  0.30450000  0.47910000  0.75000000  1.0 -0.0018414891
C  C19  1  0.52090000  0.69550000  0.75000000  1.0 -0.0018414891
C  C20  1  0.17460000  0.47910000  0.75000000  1.0 -0.0018414891
C  C21  1  0.30450000  0.82540000  0.75000000  1.0 -0.0018414891
C  C22  1  0.69550000  0.17460000  0.25000000  1.0 -0.0018414891
C  C23  1  0.82540000  0.52090000  0.25000000  1.0 -0.0018414891
C  C24  1  0.47910000  0.30450000  0.25000000  1.0 -0.0018414891
C  C25  1  0.82930000  0.32100000  0.30120000  1.0 -0.1637760279
C  C26  1  0.17070000  0.67900000  0.80120000  1.0 -0.1637760279
C  C27  1  0.67900000  0.50830000  0.30120000  1.0 -0.1637760279
C  C28  1  0.49170000  0.17070000  0.30120000  1.0 -0.1637760279
C  C29  1  0.50830000  0.82930000  0.80120000  1.0 -0.1637760279
C  C30  1  0.32100000  0.49170000  0.80120000  1.0 -0.1637760279
C  C31  1  0.50830000  0.67900000  0.69880000  1.0 -0.1637760279
C  C32  1  0.17070000  0.49170000  0.69880000  1.0 -0.1637760279
C  C33  1  0.32100000  0.82930000  0.69880000  1.0 -0.1637760279
C  C34  1  0.67900000  0.17070000  0.19880000  1.0 -0.1637760279
C  C35  1  0.82930000  0.50830000  0.19880000  1.0 -0.1637760279
C  C36  1  0.49170000  0.32100000  0.19880000  1.0 -0.1637760279
C  C37  1  0.17070000  0.67900000  0.69880000  1.0 -0.1637760279
C  C38  1  0.82930000  0.32100000  0.19880000  1.0 -0.1637760279
C  C39  1  0.32100000  0.49170000  0.69880000  1.0 -0.1637760279
C  C40  1  0.50830000  0.82930000  0.69880000  1.0 -0.1637760279
C  C41  1  0.49170000  0.17070000  0.19880000  1.0 -0.1637760279
C  C42  1  0.67900000  0.50830000  0.19880000  1.0 -0.1637760279
C  C43  1  0.49170000  0.32100000  0.30120000  1.0 -0.1637760279
C  C44  1  0.82930000  0.50830000  0.30120000  1.0 -0.1637760279
C  C45  1  0.67900000  0.17070000  0.30120000  1.0 -0.1637760279
C  C46  1  0.32100000  0.82930000  0.80120000  1.0 -0.1637760279
C  C47  1  0.17070000  0.49170000  0.80120000  1.0 -0.1637760279
C  C48  1  0.50830000  0.67900000  0.80120000  1.0 -0.1637760279
C  C49  1  0.83800000  0.35550000  0.30090000  1.0 0.0798721562
C  C50  1  0.16200000  0.64450000  0.80090000  1.0 0.0798721562
C  C51  1  0.64450000  0.48250000  0.30090000  1.0 0.0798721562
C  C52  1  0.51750000  0.16200000  0.30090000  1.0 0.0798721562
C  C53  1  0.48250000  0.83800000  0.80090000  1.0 0.0798721562
C  C54  1  0.35550000  0.51750000  0.80090000  1.0 0.0798721562
C  C55  1  0.48250000  0.64450000  0.69910000  1.0 0.0798721562
C  C56  1  0.16200000  0.51750000  0.69910000  1.0 0.0798721562
C  C57  1  0.35550000  0.83800000  0.69910000  1.0 0.0798721562
C  C58  1  0.64450000  0.16200000  0.19910000  1.0 0.0798721562
C  C59  1  0.83800000  0.48250000  0.19910000  1.0 0.0798721562
C  C60  1  0.51750000  0.35550000  0.19910000  1.0 0.0798721562
C  C61  1  0.16200000  0.64450000  0.69910000  1.0 0.0798721562
C  C62  1  0.83800000  0.35550000  0.19910000  1.0 0.0798721562
C  C63  1  0.35550000  0.51750000  0.69910000  1.0 0.0798721562
C  C64  1  0.48250000  0.83800000  0.69910000  1.0 0.0798721562
C  C65  1  0.51750000  0.16200000  0.19910000  1.0 0.0798721562
C  C66  1  0.64450000  0.48250000  0.19910000  1.0 0.0798721562
C  C67  1  0.51750000  0.35550000  0.30090000  1.0 0.0798721562
C  C68  1  0.83800000  0.48250000  0.30090000  1.0 0.0798721562
C  C69  1  0.64450000  0.16200000  0.30090000  1.0 0.0798721562
C  C70  1  0.35550000  0.83800000  0.80090000  1.0 0.0798721562
C  C71  1  0.16200000  0.51750000  0.80090000  1.0 0.0798721562
C  C72  1  0.48250000  0.64450000  0.80090000  1.0 0.0798721562
C  C73  1  0.78200000  0.13490000  0.15140000  1.0 0.5971416331
C  C74  1  0.21800000  0.86510000  0.65140000  1.0 0.5971416331
C  C75  1  0.86510000  0.64710000  0.15140000  1.0 0.5971416331
C  C76  1  0.35290000  0.21800000  0.15140000  1.0 0.5971416331
C  C77  1  0.64710000  0.78200000  0.65140000  1.0 0.5971416331
C  C78  1  0.13490000  0.35290000  0.65140000  1.0 0.5971416331
C  C79  1  0.64710000  0.86510000  0.84860000  1.0 0.5971416331
C  C80  1  0.21800000  0.35290000  0.84860000  1.0 0.5971416331
C  C81  1  0.13490000  0.78200000  0.84860000  1.0 0.5971416331
C  C82  1  0.86510000  0.21800000  0.34860000  1.0 0.5971416331
C  C83  1  0.78200000  0.64710000  0.34860000  1.0 0.5971416331
C  C84  1  0.35290000  0.13490000  0.34860000  1.0 0.5971416331
C  C85  1  0.21800000  0.86510000  0.84860000  1.0 0.5971416331
C  C86  1  0.78200000  0.13490000  0.34860000  1.0 0.5971416331
C  C87  1  0.13490000  0.35290000  0.84860000  1.0 0.5971416331
C  C88  1  0.64710000  0.78200000  0.84860000  1.0 0.5971416331
C  C89  1  0.35290000  0.21800000  0.34860000  1.0 0.5971416331
C  C90  1  0.86510000  0.64710000  0.34860000  1.0 0.5971416331
C  C91  1  0.35290000  0.13490000  0.15140000  1.0 0.5971416331
C  C92  1  0.78200000  0.64710000  0.15140000  1.0 0.5971416331
C  C93  1  0.86510000  0.21800000  0.15140000  1.0 0.5971416331
C  C94  1  0.13490000  0.78200000  0.65140000  1.0 0.5971416331
C  C95  1  0.21800000  0.35290000  0.65140000  1.0 0.5971416331
C  C96  1  0.64710000  0.86510000  0.65140000  1.0 0.5971416331
C  C97  1  0.76150000  0.10200000  0.11780000  1.0 -0.026056702
C  C98  1  0.23850000  0.89800000  0.61780000  1.0 -0.026056702
C  C99  1  0.89800000  0.65950000  0.11780000  1.0 -0.026056702
C  C100  1  0.34050000  0.23850000  0.11780000  1.0 -0.026056702
C  C101  1  0.65950000  0.76150000  0.61780000  1.0 -0.026056702
C  C102  1  0.10200000  0.34050000  0.61780000  1.0 -0.026056702
C  C103  1  0.65950000  0.89800000  0.88220000  1.0 -0.026056702
C  C104  1  0.23850000  0.34050000  0.88220000  1.0 -0.026056702
C  C105  1  0.10200000  0.76150000  0.88220000  1.0 -0.026056702
C  C106  1  0.89800000  0.23850000  0.38220000  1.0 -0.026056702
C  C107  1  0.76150000  0.65950000  0.38220000  1.0 -0.026056702
C  C108  1  0.34050000  0.10200000  0.38220000  1.0 -0.026056702
C  C109  1  0.23850000  0.89800000  0.88220000  1.0 -0.026056702
C  C110  1  0.76150000  0.10200000  0.38220000  1.0 -0.026056702
C  C111  1  0.10200000  0.34050000  0.88220000  1.0 -0.026056702
C  C112  1  0.65950000  0.76150000  0.88220000  1.0 -0.026056702
C  C113  1  0.34050000  0.23850000  0.38220000  1.0 -0.026056702
C  C114  1  0.89800000  0.65950000  0.38220000  1.0 -0.026056702
C  C115  1  0.34050000  0.10200000  0.11780000  1.0 -0.026056702
C  C116  1  0.76150000  0.65950000  0.11780000  1.0 -0.026056702
C  C117  1  0.89800000  0.23850000  0.11780000  1.0 -0.026056702
C  C118  1  0.10200000  0.76150000  0.61780000  1.0 -0.026056702
C  C119  1  0.23850000  0.34050000  0.61780000  1.0 -0.026056702
C  C120  1  0.65950000  0.89800000  0.61780000  1.0 -0.026056702
C  C121  1  0.73910000  0.10220000  0.07940000  1.0 -0.1484047788
C  C122  1  0.26090000  0.89780000  0.57940000  1.0 -0.1484047788
C  C123  1  0.89780000  0.63690000  0.07940000  1.0 -0.1484047788
C  C124  1  0.36310000  0.26090000  0.07940000  1.0 -0.1484047788
C  C125  1  0.63690000  0.73910000  0.57940000  1.0 -0.144903973
C  C126  1  0.10220000  0.36310000  0.57940000  1.0 -0.144903973
C  C127  1  0.63690000  0.89780000  0.92060000  1.0 -0.144903973
C  C128  1  0.26090000  0.36310000  0.92060000  1.0 -0.1484047788
C  C129  1  0.10220000  0.73910000  0.92060000  1.0 -0.144903973
C  C130  1  0.89780000  0.26090000  0.42060000  1.0 -0.1484047788
C  C131  1  0.73910000  0.63690000  0.42060000  1.0 -0.1484047788
C  C132  1  0.36310000  0.10220000  0.42060000  1.0 -0.1484047788
C  C133  1  0.26090000  0.89780000  0.92060000  1.0 -0.1484047788
C  C134  1  0.73910000  0.10220000  0.42060000  1.0 -0.1484047788
C  C135  1  0.10220000  0.36310000  0.92060000  1.0 -0.144903973
C  C136  1  0.63690000  0.73910000  0.92060000  1.0 -0.144903973
C  C137  1  0.36310000  0.26090000  0.42060000  1.0 -0.1484047788
C  C138  1  0.89780000  0.63690000  0.42060000  1.0 -0.1484047788
C  C139  1  0.36310000  0.10220000  0.07940000  1.0 -0.1484047788
C  C140  1  0.73910000  0.63690000  0.07940000  1.0 -0.1484047788
C  C141  1  0.89780000  0.26090000  0.07940000  1.0 -0.1484047788
C  C142  1  0.10220000  0.73910000  0.57940000  1.0 -0.144903973
C  C143  1  0.26090000  0.36310000  0.57940000  1.0 -0.1484047788
C  C144  1  0.63690000  0.89780000  0.57940000  1.0 -0.1484047788
C  C145  1  0.72140000  0.07320000  0.04600000  1.0 0.0523369764
C  C146  1  0.27860000  0.92680000  0.54600000  1.0 0.0523369764
C  C147  1  0.92680000  0.64820000  0.04600000  1.0 0.0523369764
C  C148  1  0.35180000  0.27860000  0.04600000  1.0 0.0523369764
C  C149  1  0.64820000  0.72140000  0.54600000  1.0 0.0523369764
C  C150  1  0.07320000  0.35180000  0.54600000  1.0 0.0523369764
C  C151  1  0.64820000  0.92680000  0.95400000  1.0 0.0523369764
C  C152  1  0.27860000  0.35180000  0.95400000  1.0 0.0523369764
C  C153  1  0.07320000  0.72140000  0.95400000  1.0 0.0523369764
C  C154  1  0.92680000  0.27860000  0.45400000  1.0 0.0523369764
C  C155  1  0.72140000  0.64820000  0.45400000  1.0 0.0523369764
C  C156  1  0.35180000  0.07320000  0.45400000  1.0 0.0523369764
C  C157  1  0.27860000  0.92680000  0.95400000  1.0 0.0523369764
C  C158  1  0.72140000  0.07320000  0.45400000  1.0 0.0523369764
C  C159  1  0.07320000  0.35180000  0.95400000  1.0 0.0523369764
C  C160  1  0.64820000  0.72140000  0.95400000  1.0 0.0523369764
C  C161  1  0.35180000  0.27860000  0.45400000  1.0 0.0523369764
C  C162  1  0.92680000  0.64820000  0.45400000  1.0 0.0523369764
C  C163  1  0.35180000  0.07320000  0.04600000  1.0 0.0523369764
C  C164  1  0.72140000  0.64820000  0.04600000  1.0 0.0523369764
C  C165  1  0.92680000  0.27860000  0.04600000  1.0 0.0523369764
C  C166  1  0.07320000  0.72140000  0.54600000  1.0 0.0523369764
C  C167  1  0.27860000  0.35180000  0.54600000  1.0 0.0523369764
C  C168  1  0.64820000  0.92680000  0.54600000  1.0 0.0523369764
C  C169  1  0.75070000  0.04790000  0.09280000  1.0 0.063372138
C  C170  1  0.24930000  0.95210000  0.59280000  1.0 0.063372138
C  C171  1  0.95210000  0.70280000  0.09280000  1.0 0.063372138
C  C172  1  0.29720000  0.24930000  0.09280000  1.0 0.063372138
C  C173  1  0.70280000  0.75070000  0.59280000  1.0 0.063372138
C  C174  1  0.04790000  0.29720000  0.59280000  1.0 0.063372138
C  C175  1  0.70280000  0.95210000  0.90720000  1.0 0.063372138
C  C176  1  0.24930000  0.29720000  0.90720000  1.0 0.063372138
C  C177  1  0.04790000  0.75070000  0.90720000  1.0 0.063372138
C  C178  1  0.95210000  0.24930000  0.40720000  1.0 0.063372138
C  C179  1  0.75070000  0.70280000  0.40720000  1.0 0.063372138
C  C180  1  0.29720000  0.04790000  0.40720000  1.0 0.063372138
C  C181  1  0.24930000  0.95210000  0.90720000  1.0 0.063372138
C  C182  1  0.75070000  0.04790000  0.40720000  1.0 0.063372138
C  C183  1  0.04790000  0.29720000  0.90720000  1.0 0.063372138
C  C184  1  0.70280000  0.75070000  0.90720000  1.0 0.063372138
C  C185  1  0.29720000  0.24930000  0.40720000  1.0 0.063372138
C  C186  1  0.95210000  0.70280000  0.40720000  1.0 0.063372138
C  C187  1  0.29720000  0.04790000  0.09280000  1.0 0.063372138
C  C188  1  0.75070000  0.70280000  0.09280000  1.0 0.063372138
C  C189  1  0.95210000  0.24930000  0.09280000  1.0 0.063372138
C  C190  1  0.04790000  0.75070000  0.59280000  1.0 0.063372138
C  C191  1  0.24930000  0.29720000  0.59280000  1.0 0.063372138
C  C192  1  0.70280000  0.95210000  0.59280000  1.0 0.063372138
C  C193  1  0.76950000  0.07700000  0.12710000  1.0 -0.1484047788
C  C194  1  0.23050000  0.92300000  0.62710000  1.0 -0.1484047788
C  C195  1  0.92300000  0.69250000  0.12710000  1.0 -0.1484047788
C  C196  1  0.30750000  0.23050000  0.12710000  1.0 -0.1484047788
C  C197  1  0.69250000  0.76950000  0.62710000  1.0 -0.1484047788
C  C198  1  0.07700000  0.30750000  0.62710000  1.0 -0.1484047788
C  C199  1  0.69250000  0.92300000  0.87290000  1.0 -0.1484047788
C  C200  1  0.23050000  0.30750000  0.87290000  1.0 -0.1484047788
C  C201  1  0.07700000  0.76950000  0.87290000  1.0 -0.1484047788
C  C202  1  0.92300000  0.23050000  0.37290000  1.0 -0.1484047788
C  C203  1  0.76950000  0.69250000  0.37290000  1.0 -0.1484047788
C  C204  1  0.30750000  0.07700000  0.37290000  1.0 -0.1484047788
C  C205  1  0.23050000  0.92300000  0.87290000  1.0 -0.1484047788
C  C206  1  0.76950000  0.07700000  0.37290000  1.0 -0.1484047788
C  C207  1  0.07700000  0.30750000  0.87290000  1.0 -0.1484047788
C  C208  1  0.69250000  0.76950000  0.87290000  1.0 -0.1484047788
C  C209  1  0.30750000  0.23050000  0.37290000  1.0 -0.1484047788
C  C210  1  0.92300000  0.69250000  0.37290000  1.0 -0.1484047788
C  C211  1  0.30750000  0.07700000  0.12710000  1.0 -0.1484047788
C  C212  1  0.76950000  0.69250000  0.12710000  1.0 -0.1484047788
C  C213  1  0.92300000  0.23050000  0.12710000  1.0 -0.1484047788
C  C214  1  0.07700000  0.76950000  0.62710000  1.0 -0.1484047788
C  C215  1  0.23050000  0.30750000  0.62710000  1.0 -0.1484047788
C  C216  1  0.69250000  0.92300000  0.62710000  1.0 -0.1484047788
N  N1  1  0.84300000  0.37180000  0.25000000  1.0 -0.2290794821
N  N2  1  0.15700000  0.62820000  0.75000000  1.0 -0.2290794821
N  N3  1  0.62820000  0.47120000  0.25000000  1.0 -0.2290794821
N  N4  1  0.52880000  0.15700000  0.25000000  1.0 -0.2290794821
N  N5  1  0.47120000  0.84300000  0.75000000  1.0 -0.2290794821
N  N6  1  0.37180000  0.52880000  0.75000000  1.0 -0.2290794821
N  N7  1  0.47120000  0.62820000  0.75000000  1.0 -0.2290794821
N  N8  1  0.15700000  0.52880000  0.75000000  1.0 -0.2290794821
N  N9  1  0.37180000  0.84300000  0.75000000  1.0 -0.2290794821
N  N10  1  0.62820000  0.15700000  0.25000000  1.0 -0.2362689975
N  N11  1  0.84300000  0.47120000  0.25000000  1.0 -0.2290794821
N  N12  1  0.52880000  0.37180000  0.25000000  1.0 -0.2290794821
N  N13  1  0.72680000  0.04540000  0.05340000  1.0 -0.2290794821
N  N14  1  0.27320000  0.95460000  0.55340000  1.0 -0.2290794821
N  N15  1  0.95460000  0.68140000  0.05340000  1.0 -0.2290794821
N  N16  1  0.31860000  0.27320000  0.05340000  1.0 -0.2290794821
N  N17  1  0.68140000  0.72680000  0.55340000  1.0 -0.2290794821
N  N18  1  0.04540000  0.31860000  0.55340000  1.0 -0.2290794821
N  N19  1  0.68140000  0.95460000  0.94660000  1.0 -0.22378211
N  N20  1  0.27320000  0.31860000  0.94660000  1.0 -0.22378211
N  N21  1  0.04540000  0.72680000  0.94660000  1.0 -0.22378211
N  N22  1  0.95460000  0.27320000  0.44660000  1.0 -0.2290794821
N  N23  1  0.72680000  0.68140000  0.44660000  1.0 -0.2290794821
N  N24  1  0.31860000  0.04540000  0.44660000  1.0 -0.2290794821
N  N25  1  0.27320000  0.95460000  0.94660000  1.0 -0.2290794821
N  N26  1  0.72680000  0.04540000  0.44660000  1.0 -0.2290794821
N  N27  1  0.04540000  0.31860000  0.94660000  1.0 -0.22378211
N  N28  1  0.68140000  0.72680000  0.94660000  1.0 -0.22378211
N  N29  1  0.31860000  0.27320000  0.44660000  1.0 -0.2290794821
N  N30  1  0.95460000  0.68140000  0.44660000  1.0 -0.2290794821
N  N31  1  0.31860000  0.04540000  0.05340000  1.0 -0.2290794821
N  N32  1  0.72680000  0.68140000  0.05340000  1.0 -0.2290794821
N  N33  1  0.95460000  0.27320000  0.05340000  1.0 -0.2290794821
N  N34  1  0.04540000  0.72680000  0.55340000  1.0 -0.2290794821
N  N35  1  0.27320000  0.31860000  0.55340000  1.0 -0.22378211
N  N36  1  0.68140000  0.95460000  0.55340000  1.0 -0.2290794821
O  O1  1  0.80790000  0.19210000  0.25000000  1.0 -1.0540240678
O  O2  1  0.19210000  0.80790000  0.75000000  1.0 -1.0540240678
O  O3  1  0.80790000  0.61580000  0.25000000  1.0 -1.0540240678
O  O4  1  0.38420000  0.19210000  0.25000000  1.0 -1.0540240678
O  O5  1  0.61580000  0.80790000  0.75000000  1.0 -1.0540240678
O  O6  1  0.19210000  0.38420000  0.75000000  1.0 -1.0561725053
O  O7  1  0.78145000  0.21855000  0.09960000  1.0 -0.4209303829
O  O8  1  0.21855000  0.78145000  0.59960000  1.0 -0.4300066895
O  O9  1  0.78145000  0.56290000  0.09960000  1.0 -0.4209303829
O  O10  1  0.43710000  0.21855000  0.09960000  1.0 -0.4209303829
O  O11  1  0.56290000  0.78145000  0.59960000  1.0 -0.4300066895
O  O12  1  0.21855000  0.43710000  0.59960000  1.0 -0.4300066895
O  O13  1  0.56290000  0.78145000  0.90040000  1.0 -0.4300066895
O  O14  1  0.21855000  0.43710000  0.90040000  1.0 -0.4300066895
O  O15  1  0.21855000  0.78145000  0.90040000  1.0 -0.4300066895
O  O16  1  0.78145000  0.21855000  0.40040000  1.0 -0.4300066895
O  O17  1  0.78145000  0.56290000  0.40040000  1.0 -0.4209303829
O  O18  1  0.43710000  0.21855000  0.40040000  1.0 -0.4209303829
O  O19  1  0.85900000  0.14100000  0.25000000  1.0 -0.5614556822
O  O20  1  0.14100000  0.85900000  0.75000000  1.0 -0.5614556822
O  O21  1  0.85900000  0.71800000  0.25000000  1.0 -0.5663549157
O  O22  1  0.28200000  0.14100000  0.25000000  1.0 -0.5663549157
O  O23  1  0.71800000  0.85900000  0.75000000  1.0 -0.5614556822
O  O24  1  0.14100000  0.28200000  0.75000000  1.0 -0.5614556822
O  O25  1  0.80870000  0.25370000  0.20100000  1.0 -0.521762796
O  O26  1  0.19130000  0.74630000  0.70100000  1.0 -0.521762796
O  O27  1  0.74630000  0.55500000  0.20100000  1.0 -0.521762796
O  O28  1  0.44500000  0.19130000  0.20100000  1.0 -0.521762796
O  O29  1  0.55500000  0.80870000  0.70100000  1.0 -0.521762796
O  O30  1  0.25370000  0.44500000  0.70100000  1.0 -0.521762796
O  O31  1  0.55500000  0.74630000  0.79900000  1.0 -0.521762796
O  O32  1  0.19130000  0.44500000  0.79900000  1.0 -0.521762796
O  O33  1  0.25370000  0.80870000  0.79900000  1.0 -0.521762796
O  O34  1  0.74630000  0.19130000  0.29900000  1.0 -0.521762796
O  O35  1  0.80870000  0.55500000  0.29900000  1.0 -0.521762796
O  O36  1  0.44500000  0.25370000  0.29900000  1.0 -0.521762796
O  O37  1  0.19130000  0.74630000  0.79900000  1.0 -0.521762796
O  O38  1  0.80870000  0.25370000  0.29900000  1.0 -0.521762796
O  O39  1  0.25370000  0.44500000  0.79900000  1.0 -0.521762796
O  O40  1  0.55500000  0.80870000  0.79900000  1.0 -0.521762796
O  O41  1  0.44500000  0.19130000  0.29900000  1.0 -0.521762796
O  O42  1  0.74630000  0.55500000  0.29900000  1.0 -0.521762796
O  O43  1  0.44500000  0.25370000  0.20100000  1.0 -0.521762796
O  O44  1  0.80870000  0.55500000  0.20100000  1.0 -0.521762796
O  O45  1  0.74630000  0.19130000  0.20100000  1.0 -0.521762796
O  O46  1  0.25370000  0.80870000  0.70100000  1.0 -0.521762796
O  O47  1  0.19130000  0.44500000  0.70100000  1.0 -0.521762796
O  O48  1  0.55500000  0.74630000  0.70100000  1.0 -0.521762796
O  O49  1  0.80130000  0.13470000  0.19080000  1.0 -0.5280453615
O  O50  1  0.19870000  0.86530000  0.69080000  1.0 -0.5280453615
O  O51  1  0.86530000  0.66666667  0.19080000  1.0 -0.5280453615
O  O52  1  0.33340000  0.19870000  0.19080000  1.0 -0.5280453615
O  O53  1  0.66666667  0.80130000  0.69080000  1.0 -0.5280453615
O  O54  1  0.13470000  0.33340000  0.69080000  1.0 -0.5280453615
O  O55  1  0.66666667  0.86530000  0.80920000  1.0 -0.5280453615
O  O56  1  0.19870000  0.33340000  0.80920000  1.0 -0.5280453615
O  O57  1  0.13470000  0.80130000  0.80920000  1.0 -0.5280453615
O  O58  1  0.86530000  0.19870000  0.30920000  1.0 -0.5280453615
O  O59  1  0.80130000  0.66666667  0.30920000  1.0 -0.5280453615
O  O60  1  0.33340000  0.13470000  0.30920000  1.0 -0.5280453615
O  O61  1  0.19870000  0.86530000  0.80920000  1.0 -0.5280453615
O  O62  1  0.80130000  0.13470000  0.30920000  1.0 -0.5280453615
O  O63  1  0.13470000  0.33340000  0.80920000  1.0 -0.5280453615
O  O64  1  0.66666667  0.80130000  0.80920000  1.0 -0.5280453615
O  O65  1  0.33340000  0.19870000  0.30920000  1.0 -0.5280453615
O  O66  1  0.86530000  0.66666667  0.30920000  1.0 -0.5280453615
O  O67  1  0.33340000  0.13470000  0.19080000  1.0 -0.5280453615
O  O68  1  0.80130000  0.66666667  0.19080000  1.0 -0.5280453615
O  O69  1  0.86530000  0.19870000  0.19080000  1.0 -0.5280453615
O  O70  1  0.13470000  0.80130000  0.69080000  1.0 -0.5280453615
O  O71  1  0.19870000  0.33340000  0.69080000  1.0 -0.5280453615
O  O72  1  0.66666667  0.86530000  0.69080000  1.0 -0.5280453615
O  O73  1  0.77640000  0.15910000  0.14280000  1.0 -0.5138074808
O  O74  1  0.22360000  0.84090000  0.64280000  1.0 -0.5138074808
O  O75  1  0.84090000  0.61730000  0.14280000  1.0 -0.5138074808
O  O76  1  0.38270000  0.22360000  0.14280000  1.0 -0.5138074808
O  O77  1  0.61730000  0.77640000  0.64280000  1.0 -0.5138074808
O  O78  1  0.15910000  0.38270000  0.64280000  1.0 -0.5138074808
O  O79  1  0.61730000  0.84090000  0.85720000  1.0 -0.5138074808
O  O80  1  0.22360000  0.38270000  0.85720000  1.0 -0.5138074808
O  O81  1  0.15910000  0.77640000  0.85720000  1.0 -0.5138074808
O  O82  1  0.84090000  0.22360000  0.35720000  1.0 -0.5138074808
O  O83  1  0.77640000  0.61730000  0.35720000  1.0 -0.5138074808
O  O84  1  0.38270000  0.15910000  0.35720000  1.0 -0.5138074808
O  O85  1  0.22360000  0.84090000  0.85720000  1.0 -0.5138074808
O  O86  1  0.77640000  0.15910000  0.35720000  1.0 -0.5138074808
O  O87  1  0.15910000  0.38270000  0.85720000  1.0 -0.5138074808
O  O88  1  0.61730000  0.77640000  0.85720000  1.0 -0.5138074808
O  O89  1  0.38270000  0.22360000  0.35720000  1.0 -0.5138074808
O  O90  1  0.84090000  0.61730000  0.35720000  1.0 -0.5138074808
O  O91  1  0.38270000  0.15910000  0.14280000  1.0 -0.5138074808
O  O92  1  0.77640000  0.61730000  0.14280000  1.0 -0.5138074808
O  O93  1  0.84090000  0.22360000  0.14280000  1.0 -0.5138074808
O  O94  1  0.15910000  0.77640000  0.64280000  1.0 -0.5138074808
O  O95  1  0.22360000  0.38270000  0.64280000  1.0 -0.5138074808
O  O96  1  0.61730000  0.84090000  0.64280000  1.0 -0.5138074808
