# DDEC6 charges by PACMAN v1.1 (https://github.com/mtap-research/PACMAN-charge/)
data_BIHBAX_ASR_pacman
_symmetry_space_group_name_H-M   'P 1'
_cell_length_a   24.62000000
_cell_length_b   24.62000000
_cell_length_c   83.68000000
_cell_angle_alpha   90.00000000
_cell_angle_beta   90.00000000
_cell_angle_gamma   90.00000000
_symmetry_Int_Tables_number   1
_chemical_formula_structural   Cr3Ag3H24C36N6O13
_chemical_formula_sum   'Cr24 Ag24 H192 C288 N48 O104'
_cell_volume   50722.16339200
_cell_formula_units_Z   8
loop_
 _symmetry_equiv_pos_site_id
 _symmetry_equiv_pos_as_xyz
  1  'x, y, z'
loop_
 _atom_site_type_symbol
 _atom_site_label
 _atom_site_symmetry_multiplicity
 _atom_site_fract_x
 _atom_site_fract_y
 _atom_site_fract_z
 _atom_site_occupancy
 _atom_site_charge
Cr  Cr1  1  0.78735000  0.29120000  0.01820000  1.0 1.5326527879
Cr  Cr2  1  0.21265000  0.70880000  0.51820000  1.0 1.5372123446
Cr  Cr3  1  0.20880000  0.28735000  0.26820000  1.0 1.5372123446
Cr  Cr4  1  0.79120000  0.71265000  0.76820000  1.0 1.5326527879
Cr  Cr5  1  0.71265000  0.79120000  0.23180000  1.0 1.5326527879
Cr  Cr6  1  0.28735000  0.20880000  0.73180000  1.0 1.5326527879
Cr  Cr7  1  0.29120000  0.78735000  0.98180000  1.0 1.5326527879
Cr  Cr8  1  0.70880000  0.21265000  0.48180000  1.0 1.5326527879
Cr  Cr9  1  0.84410000  0.27463000  0.05395000  1.0 1.1383082594
Cr  Cr10  1  0.15590000  0.72537000  0.55395000  1.0 1.1383082594
Cr  Cr11  1  0.22537000  0.34410000  0.30395000  1.0 1.1298312868
Cr  Cr12  1  0.77463000  0.65590000  0.80395000  1.0 1.1383082594
Cr  Cr13  1  0.65590000  0.77463000  0.19605000  1.0 1.1383082594
Cr  Cr14  1  0.34410000  0.22537000  0.69605000  1.0 1.1298312868
Cr  Cr15  1  0.27463000  0.84410000  0.94605000  1.0 1.1298312868
Cr  Cr16  1  0.72537000  0.15590000  0.44605000  1.0 1.1383082594
Cr  Cr17  1  0.71380000  0.29650000  0.05030000  1.0 1.4963653054
Cr  Cr18  1  0.28620000  0.70350000  0.55030000  1.0 1.4963653054
Cr  Cr19  1  0.20350000  0.21380000  0.30030000  1.0 1.4842486109
Cr  Cr20  1  0.79650000  0.78620000  0.80030000  1.0 1.4963653054
Cr  Cr21  1  0.78620000  0.79650000  0.19970000  1.0 1.4963653054
Cr  Cr22  1  0.21380000  0.20350000  0.69970000  1.0 1.4842486109
Cr  Cr23  1  0.29650000  0.71380000  0.94970000  1.0 1.4942713703
Cr  Cr24  1  0.70350000  0.28620000  0.44970000  1.0 1.4963653054
Ag  Ag1  1  0.00456000  0.00456000  0.00000000  1.0 0.0992103915
Ag  Ag2  1  0.99544000  0.99544000  0.50000000  1.0 0.0992103915
Ag  Ag3  1  0.49544000  0.50456000  0.25000000  1.0 0.0898783133
Ag  Ag4  1  0.50456000  0.49544000  0.75000000  1.0 0.0898783133
Ag  Ag5  1  0.59376000  0.59376000  0.00000000  1.0 0.1087484162
Ag  Ag6  1  0.40624000  0.40624000  0.50000000  1.0 0.0898783133
Ag  Ag7  1  0.90624000  0.09376000  0.25000000  1.0 0.0898783133
Ag  Ag8  1  0.09376000  0.90624000  0.75000000  1.0 0.0992103915
Ag  Ag9  1  0.79051000  0.51751000  0.13078000  1.0 0.1087484162
Ag  Ag10  1  0.20949000  0.48249000  0.63078000  1.0 0.0992103915
Ag  Ag11  1  0.98249000  0.29051000  0.38078000  1.0 0.0898783133
Ag  Ag12  1  0.01751000  0.70949000  0.88078000  1.0 0.0774319316
Ag  Ag13  1  0.70949000  0.01751000  0.11922000  1.0 0.0992103915
Ag  Ag14  1  0.29051000  0.98249000  0.61922000  1.0 0.0774319316
Ag  Ag15  1  0.51751000  0.79051000  0.86922000  1.0 0.0774319316
Ag  Ag16  1  0.48249000  0.20949000  0.36922000  1.0 0.0898783133
Ag  Ag17  1  0.06967000  0.51908000  0.01079000  1.0 0.0774319316
Ag  Ag18  1  0.93033000  0.48092000  0.51079000  1.0 0.061520058
Ag  Ag19  1  0.98092000  0.56967000  0.26079000  1.0 0.061520058
Ag  Ag20  1  0.01908000  0.43033000  0.76079000  1.0 0.061520058
Ag  Ag21  1  0.43033000  0.01908000  0.23921000  1.0 0.0774319316
Ag  Ag22  1  0.56967000  0.98092000  0.73921000  1.0 0.0706087739
Ag  Ag23  1  0.51908000  0.06967000  0.98921000  1.0 0.0774319316
Ag  Ag24  1  0.48092000  0.93033000  0.48921000  1.0 0.0774319316
H  H1  1  0.62940000  0.44240000  0.03910000  1.0 0.12296756
H  H2  1  0.37060000  0.55760000  0.53910000  1.0 0.12296756
H  H3  1  0.05760000  0.12940000  0.28910000  1.0 0.12296756
H  H4  1  0.94240000  0.87060000  0.78910000  1.0 0.12296756
H  H5  1  0.87060000  0.94240000  0.21090000  1.0 0.12296756
H  H6  1  0.12940000  0.05760000  0.71090000  1.0 0.12296756
H  H7  1  0.44240000  0.62940000  0.96090000  1.0 0.12296756
H  H8  1  0.55760000  0.37060000  0.46090000  1.0 0.12296756
H  H9  1  0.59010000  0.52210000  0.02960000  1.0 0.0706087739
H  H10  1  0.40990000  0.47790000  0.52960000  1.0 0.0706087739
H  H11  1  0.97790000  0.09010000  0.27960000  1.0 0.0706087739
H  H12  1  0.02210000  0.90990000  0.77960000  1.0 0.0706087739
H  H13  1  0.90990000  0.02210000  0.22040000  1.0 0.0706087739
H  H14  1  0.09010000  0.97790000  0.72040000  1.0 0.0774319316
H  H15  1  0.52210000  0.59010000  0.97040000  1.0 0.0706087739
H  H16  1  0.47790000  0.40990000  0.47040000  1.0 0.0706087739
H  H17  1  0.68260000  0.51930000  0.99130000  1.0 0.0706087739
H  H18  1  0.31740000  0.48070000  0.49130000  1.0 0.0706087739
H  H19  1  0.98070000  0.18260000  0.24130000  1.0 0.0706087739
H  H20  1  0.01930000  0.81740000  0.74130000  1.0 0.0706087739
H  H21  1  0.81740000  0.01930000  0.25870000  1.0 0.0706087739
H  H22  1  0.18260000  0.98070000  0.75870000  1.0 0.0706087739
H  H23  1  0.51930000  0.68260000  0.00870000  1.0 0.0706087739
H  H24  1  0.48070000  0.31740000  0.50870000  1.0 0.0706087739
H  H25  1  0.72130000  0.43750000  0.99910000  1.0 0.126666366
H  H26  1  0.27870000  0.56250000  0.49910000  1.0 0.126666366
H  H27  1  0.06250000  0.22130000  0.24910000  1.0 0.126666366
H  H28  1  0.93750000  0.77870000  0.74910000  1.0 0.126666366
H  H29  1  0.77870000  0.93750000  0.25090000  1.0 0.126666366
H  H30  1  0.22130000  0.06250000  0.75090000  1.0 0.126666366
H  H31  1  0.43750000  0.72130000  0.00090000  1.0 0.126666366
H  H32  1  0.56250000  0.27870000  0.50090000  1.0 0.126666366
H  H33  1  0.70620000  0.42340000  0.08190000  1.0 0.126666366
H  H34  1  0.29380000  0.57660000  0.58190000  1.0 0.126666366
H  H35  1  0.07660000  0.20620000  0.33190000  1.0 0.126666366
H  H36  1  0.92340000  0.79380000  0.83190000  1.0 0.126666366
H  H37  1  0.79380000  0.92340000  0.16810000  1.0 0.126666366
H  H38  1  0.20620000  0.07660000  0.66810000  1.0 0.126666366
H  H39  1  0.42340000  0.70620000  0.91810000  1.0 0.126666366
H  H40  1  0.57660000  0.29380000  0.41810000  1.0 0.126666366
H  H41  1  0.70940000  0.48680000  0.10250000  1.0 0.0774319316
H  H42  1  0.29060000  0.51320000  0.60250000  1.0 0.0774319316
H  H43  1  0.01320000  0.20940000  0.35250000  1.0 0.0774319316
H  H44  1  0.98680000  0.79060000  0.85250000  1.0 0.0774319316
H  H45  1  0.79060000  0.98680000  0.14750000  1.0 0.0706087739
H  H46  1  0.20940000  0.01320000  0.64750000  1.0 0.0774319316
H  H47  1  0.48680000  0.70940000  0.89750000  1.0 0.0774319316
H  H48  1  0.51320000  0.29060000  0.39750000  1.0 0.0774319316
H  H49  1  0.85770000  0.44160000  0.11380000  1.0 0.0706087739
H  H50  1  0.14230000  0.55840000  0.61380000  1.0 0.0706087739
H  H51  1  0.05840000  0.35770000  0.36380000  1.0 0.0706087739
H  H52  1  0.94160000  0.64230000  0.86380000  1.0 0.0706087739
H  H53  1  0.64230000  0.94160000  0.13620000  1.0 0.0706087739
H  H54  1  0.35770000  0.05840000  0.63620000  1.0 0.0706087739
H  H55  1  0.44160000  0.85770000  0.88620000  1.0 0.0706087739
H  H56  1  0.55840000  0.14230000  0.38620000  1.0 0.0706087739
H  H57  1  0.86010000  0.38010000  0.09280000  1.0 0.12296756
H  H58  1  0.13990000  0.61990000  0.59280000  1.0 0.126666366
H  H59  1  0.11990000  0.36010000  0.34280000  1.0 0.12296756
H  H60  1  0.88010000  0.63990000  0.84280000  1.0 0.126666366
H  H61  1  0.63990000  0.88010000  0.15720000  1.0 0.126666366
H  H62  1  0.36010000  0.11990000  0.65720000  1.0 0.12296756
H  H63  1  0.38010000  0.86010000  0.90720000  1.0 0.126666366
H  H64  1  0.61990000  0.13990000  0.40720000  1.0 0.12296756
H  H65  1  0.97510000  0.38320000  0.04480000  1.0 0.12296756
H  H66  1  0.02490000  0.61680000  0.54480000  1.0 0.12296756
H  H67  1  0.11680000  0.47510000  0.29480000  1.0 0.12296756
H  H68  1  0.88320000  0.52490000  0.79480000  1.0 0.12296756
H  H69  1  0.52490000  0.88320000  0.20520000  1.0 0.126666366
H  H70  1  0.47510000  0.11680000  0.70520000  1.0 0.126666366
H  H71  1  0.38320000  0.97510000  0.95520000  1.0 0.126666366
H  H72  1  0.61680000  0.02490000  0.45520000  1.0 0.12296756
H  H73  1  0.03720000  0.44800000  0.03610000  1.0 0.0706087739
H  H74  1  0.96280000  0.55200000  0.53610000  1.0 0.0706087739
H  H75  1  0.05200000  0.53720000  0.28610000  1.0 0.0706087739
H  H76  1  0.94800000  0.46280000  0.78610000  1.0 0.0706087739
H  H77  1  0.46280000  0.94800000  0.21390000  1.0 0.0706087739
H  H78  1  0.53720000  0.05200000  0.71390000  1.0 0.0706087739
H  H79  1  0.44800000  0.03720000  0.96390000  1.0 0.0706087739
H  H80  1  0.55200000  0.96280000  0.46390000  1.0 0.0706087739
H  H81  1  0.95980000  0.46390000  0.99520000  1.0 0.0774319316
H  H82  1  0.04020000  0.53610000  0.49520000  1.0 0.0774319316
H  H83  1  0.03610000  0.45980000  0.24520000  1.0 0.0774319316
H  H84  1  0.96390000  0.54020000  0.74520000  1.0 0.0774319316
H  H85  1  0.54020000  0.96390000  0.25480000  1.0 0.0774319316
H  H86  1  0.45980000  0.03610000  0.75480000  1.0 0.0774319316
H  H87  1  0.46390000  0.95980000  0.00480000  1.0 0.0774319316
H  H88  1  0.53610000  0.04020000  0.50480000  1.0 0.0774319316
H  H89  1  0.89330000  0.40280000  0.00330000  1.0 0.126666366
H  H90  1  0.10670000  0.59720000  0.50330000  1.0 0.126666366
H  H91  1  0.09720000  0.39330000  0.25330000  1.0 0.126666366
H  H92  1  0.90280000  0.60670000  0.75330000  1.0 0.126666366
H  H93  1  0.60670000  0.90280000  0.24670000  1.0 0.126666366
H  H94  1  0.39330000  0.09720000  0.74670000  1.0 0.126666366
H  H95  1  0.40280000  0.89330000  0.99670000  1.0 0.126666366
H  H96  1  0.59720000  0.10670000  0.49670000  1.0 0.126666366
H  H97  1  0.66810000  0.16630000  0.08200000  1.0 0.12296756
H  H98  1  0.33190000  0.83370000  0.58200000  1.0 0.12296756
H  H99  1  0.33370000  0.16810000  0.33200000  1.0 0.12296756
H  H100  1  0.66630000  0.83190000  0.83200000  1.0 0.12296756
H  H101  1  0.83190000  0.66630000  0.16800000  1.0 0.12296756
H  H102  1  0.16810000  0.33370000  0.66800000  1.0 0.12296756
H  H103  1  0.16630000  0.66810000  0.91800000  1.0 0.12296756
H  H104  1  0.83370000  0.33190000  0.41800000  1.0 0.12296756
H  H105  1  0.66030000  0.09200000  0.09900000  1.0 0.0706087739
H  H106  1  0.33970000  0.90800000  0.59900000  1.0 0.0706087739
H  H107  1  0.40800000  0.16030000  0.34900000  1.0 0.0706087739
H  H108  1  0.59200000  0.83970000  0.84900000  1.0 0.0706087739
H  H109  1  0.83970000  0.59200000  0.15100000  1.0 0.0706087739
H  H110  1  0.16030000  0.40800000  0.65100000  1.0 0.0706087739
H  H111  1  0.09200000  0.66030000  0.90100000  1.0 0.0706087739
H  H112  1  0.90800000  0.33970000  0.40100000  1.0 0.0706087739
H  H113  1  0.81690000  0.06240000  0.09550000  1.0 0.0774319316
H  H114  1  0.18310000  0.93760000  0.59550000  1.0 0.0774319316
H  H115  1  0.43760000  0.31690000  0.34550000  1.0 0.0774319316
H  H116  1  0.56240000  0.68310000  0.84550000  1.0 0.0774319316
H  H117  1  0.68310000  0.56240000  0.15450000  1.0 0.0774319316
H  H118  1  0.31690000  0.43760000  0.65450000  1.0 0.0774319316
H  H119  1  0.06240000  0.81690000  0.90450000  1.0 0.0774319316
H  H120  1  0.93760000  0.18310000  0.40450000  1.0 0.0774319316
H  H121  1  0.82960000  0.13830000  0.07940000  1.0 0.126666366
H  H122  1  0.17040000  0.86170000  0.57940000  1.0 0.126666366
H  H123  1  0.36170000  0.32960000  0.32940000  1.0 0.126666366
H  H124  1  0.63830000  0.67040000  0.82940000  1.0 0.126666366
H  H125  1  0.67040000  0.63830000  0.17060000  1.0 0.126666366
H  H126  1  0.32960000  0.36170000  0.67060000  1.0 0.126666366
H  H127  1  0.13830000  0.82960000  0.92060000  1.0 0.126666366
H  H128  1  0.86170000  0.17040000  0.42060000  1.0 0.126666366
H  H129  1  0.68170000  0.18380000  0.99370000  1.0 0.126666366
H  H130  1  0.31830000  0.81620000  0.49370000  1.0 0.126666366
H  H131  1  0.31620000  0.18170000  0.24370000  1.0 0.126666366
H  H132  1  0.68380000  0.81830000  0.74370000  1.0 0.126666366
H  H133  1  0.81830000  0.68380000  0.25630000  1.0 0.126666366
H  H134  1  0.18170000  0.31620000  0.75630000  1.0 0.126666366
H  H135  1  0.18380000  0.68170000  0.00630000  1.0 0.126666366
H  H136  1  0.81620000  0.31830000  0.50630000  1.0 0.126666366
H  H137  1  0.61460000  0.12820000  0.98290000  1.0 0.0706087739
H  H138  1  0.38540000  0.87180000  0.48290000  1.0 0.0706087739
H  H139  1  0.37180000  0.11460000  0.23290000  1.0 0.0706087739
H  H140  1  0.62820000  0.88540000  0.73290000  1.0 0.0706087739
H  H141  1  0.88540000  0.62820000  0.26710000  1.0 0.0706087739
H  H142  1  0.11460000  0.37180000  0.76710000  1.0 0.0706087739
H  H143  1  0.12820000  0.61460000  0.01710000  1.0 0.0706087739
H  H144  1  0.87180000  0.38540000  0.51710000  1.0 0.0706087739
H  H145  1  0.53140000  0.13360000  0.02300000  1.0 0.0774319316
H  H146  1  0.46860000  0.86640000  0.52300000  1.0 0.0774319316
H  H147  1  0.36640000  0.03140000  0.27300000  1.0 0.0774319316
H  H148  1  0.63360000  0.96860000  0.77300000  1.0 0.0774319316
H  H149  1  0.96860000  0.63360000  0.22700000  1.0 0.0774319316
H  H150  1  0.03140000  0.36640000  0.72700000  1.0 0.0774319316
H  H151  1  0.13360000  0.53140000  0.97700000  1.0 0.0774319316
H  H152  1  0.86640000  0.46860000  0.47700000  1.0 0.0774319316
H  H153  1  0.59400000  0.19260000  0.03440000  1.0 0.126666366
H  H154  1  0.40600000  0.80740000  0.53440000  1.0 0.126666366
H  H155  1  0.30740000  0.09400000  0.28440000  1.0 0.126666366
H  H156  1  0.69260000  0.90600000  0.78440000  1.0 0.126666366
H  H157  1  0.90600000  0.69260000  0.21560000  1.0 0.126666366
H  H158  1  0.09400000  0.30740000  0.71560000  1.0 0.126666366
H  H159  1  0.19260000  0.59400000  0.96560000  1.0 0.126666366
H  H160  1  0.80740000  0.40600000  0.46560000  1.0 0.126666366
H  H161  1  0.93910000  0.14260000  0.03850000  1.0 0.12296756
H  H162  1  0.06090000  0.85740000  0.53850000  1.0 0.12296756
H  H163  1  0.35740000  0.43910000  0.28850000  1.0 0.12296756
H  H164  1  0.64260000  0.56090000  0.78850000  1.0 0.12296756
H  H165  1  0.56090000  0.64260000  0.21150000  1.0 0.12296756
H  H166  1  0.43910000  0.35740000  0.71150000  1.0 0.12296756
H  H167  1  0.14260000  0.93910000  0.96150000  1.0 0.12296756
H  H168  1  0.85740000  0.06090000  0.46150000  1.0 0.12296756
H  H169  1  0.99120000  0.07270000  0.02780000  1.0 0.0706087739
H  H170  1  0.00880000  0.92730000  0.52780000  1.0 0.0706087739
H  H171  1  0.42730000  0.49120000  0.27780000  1.0 0.0706087739
H  H172  1  0.57270000  0.50880000  0.77780000  1.0 0.0706087739
H  H173  1  0.50880000  0.57270000  0.22220000  1.0 0.0706087739
H  H174  1  0.49120000  0.42730000  0.72220000  1.0 0.0706087739
H  H175  1  0.07270000  0.99120000  0.97220000  1.0 0.0706087739
H  H176  1  0.92730000  0.00880000  0.47220000  1.0 0.0706087739
H  H177  1  0.90520000  0.07430000  0.98820000  1.0 0.0774319316
H  H178  1  0.09480000  0.92570000  0.48820000  1.0 0.0706087739
H  H179  1  0.42570000  0.40520000  0.23820000  1.0 0.0706087739
H  H180  1  0.57430000  0.59480000  0.73820000  1.0 0.0706087739
H  H181  1  0.59480000  0.57430000  0.26180000  1.0 0.0706087739
H  H182  1  0.40520000  0.42570000  0.76180000  1.0 0.0774319316
H  H183  1  0.07430000  0.90520000  0.01180000  1.0 0.0706087739
H  H184  1  0.92570000  0.09480000  0.51180000  1.0 0.0774319316
H  H185  1  0.85350000  0.14690000  0.99730000  1.0 0.126666366
H  H186  1  0.14650000  0.85310000  0.49730000  1.0 0.126666366
H  H187  1  0.35310000  0.35350000  0.24730000  1.0 0.126666366
H  H188  1  0.64690000  0.64650000  0.74730000  1.0 0.126666366
H  H189  1  0.64650000  0.64690000  0.25270000  1.0 0.126666366
H  H190  1  0.35350000  0.35310000  0.75270000  1.0 0.126666366
H  H191  1  0.14690000  0.85350000  0.00270000  1.0 0.126666366
H  H192  1  0.85310000  0.14650000  0.50270000  1.0 0.126666366
C  C1  1  0.70550000  0.37950000  0.02580000  1.0 0.5874004688
C  C2  1  0.29450000  0.62050000  0.52580000  1.0 0.5874004688
C  C3  1  0.12050000  0.20550000  0.27580000  1.0 0.5874004688
C  C4  1  0.87950000  0.79450000  0.77580000  1.0 0.5874004688
C  C5  1  0.79450000  0.87950000  0.22420000  1.0 0.5874004688
C  C6  1  0.20550000  0.12050000  0.72420000  1.0 0.5874004688
C  C7  1  0.37950000  0.70550000  0.97420000  1.0 0.5874004688
C  C8  1  0.62050000  0.29450000  0.47420000  1.0 0.5874004688
C  C9  1  0.67930000  0.43020000  0.01985000  1.0 -0.0204514879
C  C10  1  0.32070000  0.56980000  0.51985000  1.0 -0.0204514879
C  C11  1  0.06980000  0.17930000  0.26985000  1.0 -0.0204514879
C  C12  1  0.93020000  0.82070000  0.76985000  1.0 -0.0141618109
C  C13  1  0.82070000  0.93020000  0.23015000  1.0 -0.0141618109
C  C14  1  0.17930000  0.06980000  0.73015000  1.0 -0.0141618109
C  C15  1  0.43020000  0.67930000  0.98015000  1.0 -0.0141618109
C  C16  1  0.56980000  0.32070000  0.48015000  1.0 -0.0141618109
C  C17  1  0.64030000  0.45690000  0.02904000  1.0 -0.1709902831
C  C18  1  0.35970000  0.54310000  0.52904000  1.0 -0.1709902831
C  C19  1  0.04310000  0.14030000  0.27904000  1.0 -0.1709902831
C  C20  1  0.95690000  0.85970000  0.77904000  1.0 -0.1709902831
C  C21  1  0.85970000  0.95690000  0.22096000  1.0 -0.1709902831
C  C22  1  0.14030000  0.04310000  0.72096000  1.0 -0.1709902831
C  C23  1  0.45690000  0.64030000  0.97096000  1.0 -0.1709902831
C  C24  1  0.54310000  0.35970000  0.47096000  1.0 -0.1709902831
C  C25  1  0.61750000  0.50500000  0.02350000  1.0 0.061520058
C  C26  1  0.38250000  0.49500000  0.52350000  1.0 0.0706087739
C  C27  1  0.99500000  0.11750000  0.27350000  1.0 0.0706087739
C  C28  1  0.00500000  0.88250000  0.77350000  1.0 0.0706087739
C  C29  1  0.88250000  0.00500000  0.22650000  1.0 0.0706087739
C  C30  1  0.11750000  0.99500000  0.72650000  1.0 0.061520058
C  C31  1  0.50500000  0.61750000  0.97650000  1.0 0.061520058
C  C32  1  0.49500000  0.38250000  0.47650000  1.0 0.0706087739
C  C33  1  0.67100000  0.50300000  0.00103000  1.0 0.0706087739
C  C34  1  0.32900000  0.49700000  0.50103000  1.0 0.0706087739
C  C35  1  0.99700000  0.17100000  0.25103000  1.0 0.0706087739
C  C36  1  0.00300000  0.82900000  0.75103000  1.0 0.0706087739
C  C37  1  0.82900000  0.00300000  0.24897000  1.0 0.0706087739
C  C38  1  0.17100000  0.99700000  0.74897000  1.0 0.0706087739
C  C39  1  0.50300000  0.67100000  0.99897000  1.0 0.0706087739
C  C40  1  0.49700000  0.32900000  0.49897000  1.0 0.0706087739
C  C41  1  0.69470000  0.45420000  0.00566000  1.0 -0.1763903461
C  C42  1  0.30530000  0.54580000  0.50566000  1.0 -0.1763903461
C  C43  1  0.04580000  0.19470000  0.25566000  1.0 -0.1709902831
C  C44  1  0.95420000  0.80530000  0.75566000  1.0 -0.1763903461
C  C45  1  0.80530000  0.95420000  0.24434000  1.0 -0.1763903461
C  C46  1  0.19470000  0.04580000  0.74434000  1.0 -0.1709902831
C  C47  1  0.45420000  0.69470000  0.99434000  1.0 -0.1763903461
C  C48  1  0.54580000  0.30530000  0.49434000  1.0 -0.1763903461
C  C49  1  0.78280000  0.34950000  0.07345000  1.0 0.5705612352
C  C50  1  0.21720000  0.65050000  0.57345000  1.0 0.5705612352
C  C51  1  0.15050000  0.28280000  0.32345000  1.0 0.5705612352
C  C52  1  0.84950000  0.71720000  0.82345000  1.0 0.5705612352
C  C53  1  0.71720000  0.84950000  0.17655000  1.0 0.5705612352
C  C54  1  0.28280000  0.15050000  0.67655000  1.0 0.5705612352
C  C55  1  0.34950000  0.78280000  0.92655000  1.0 0.5705612352
C  C56  1  0.65050000  0.21720000  0.42655000  1.0 0.5705612352
C  C57  1  0.78370000  0.39520000  0.08484000  1.0 -0.0141618109
C  C58  1  0.21630000  0.60480000  0.58484000  1.0 -0.0141618109
C  C59  1  0.10480000  0.28370000  0.33484000  1.0 -0.0141618109
C  C60  1  0.89520000  0.71630000  0.83484000  1.0 -0.0141618109
C  C61  1  0.71630000  0.89520000  0.16516000  1.0 -0.0141618109
C  C62  1  0.28370000  0.10480000  0.66516000  1.0 -0.0204514879
C  C63  1  0.39520000  0.78370000  0.91516000  1.0 -0.0141618109
C  C64  1  0.60480000  0.21630000  0.41516000  1.0 -0.0141618109
C  C65  1  0.73820000  0.42710000  0.08813000  1.0 -0.1763903461
C  C66  1  0.26180000  0.57290000  0.58813000  1.0 -0.1709902831
C  C67  1  0.07290000  0.23820000  0.33813000  1.0 -0.1709902831
C  C68  1  0.92710000  0.76180000  0.83813000  1.0 -0.1709902831
C  C69  1  0.76180000  0.92710000  0.16187000  1.0 -0.1763903461
C  C70  1  0.23820000  0.07290000  0.66187000  1.0 -0.1709902831
C  C71  1  0.42710000  0.73820000  0.91187000  1.0 -0.1709902831
C  C72  1  0.57290000  0.26180000  0.41187000  1.0 -0.1709902831
C  C73  1  0.74010000  0.46440000  0.10060000  1.0 0.061520058
C  C74  1  0.25990000  0.53560000  0.60060000  1.0 0.061520058
C  C75  1  0.03560000  0.24010000  0.35060000  1.0 0.061520058
C  C76  1  0.96440000  0.75990000  0.85060000  1.0 0.061520058
C  C77  1  0.75990000  0.96440000  0.14940000  1.0 0.061520058
C  C78  1  0.24010000  0.03560000  0.64940000  1.0 0.061520058
C  C79  1  0.46440000  0.74010000  0.89940000  1.0 0.061520058
C  C80  1  0.53560000  0.25990000  0.39940000  1.0 0.061520058
C  C81  1  0.82680000  0.43850000  0.10709000  1.0 0.0706087739
C  C82  1  0.17320000  0.56150000  0.60709000  1.0 0.0706087739
C  C83  1  0.06150000  0.32680000  0.35709000  1.0 0.0706087739
C  C84  1  0.93850000  0.67320000  0.85709000  1.0 0.0706087739
C  C85  1  0.67320000  0.93850000  0.14291000  1.0 0.0706087739
C  C86  1  0.32680000  0.06150000  0.64291000  1.0 0.0706087739
C  C87  1  0.43850000  0.82680000  0.89291000  1.0 0.0706087739
C  C88  1  0.56150000  0.17320000  0.39291000  1.0 0.0706087739
C  C89  1  0.82840000  0.40130000  0.09460000  1.0 -0.1709902831
C  C90  1  0.17160000  0.59870000  0.59460000  1.0 -0.1709902831
C  C91  1  0.09870000  0.32840000  0.34460000  1.0 -0.1709902831
C  C92  1  0.90130000  0.67160000  0.84460000  1.0 -0.1709902831
C  C93  1  0.67160000  0.90130000  0.15540000  1.0 -0.1709902831
C  C94  1  0.32840000  0.09870000  0.65540000  1.0 -0.1581029944
C  C95  1  0.40130000  0.82840000  0.90540000  1.0 -0.1581029944
C  C96  1  0.59870000  0.17160000  0.40540000  1.0 -0.1709902831
C  C97  1  0.88530000  0.34520000  0.03050000  1.0 0.5543941924
C  C98  1  0.11470000  0.65480000  0.53050000  1.0 0.5543941924
C  C99  1  0.15480000  0.38530000  0.28050000  1.0 0.5543941924
C  C100  1  0.84520000  0.61470000  0.78050000  1.0 0.5543941924
C  C101  1  0.61470000  0.84520000  0.21950000  1.0 0.5543941924
C  C102  1  0.38530000  0.15480000  0.71950000  1.0 0.5543941924
C  C103  1  0.34520000  0.88530000  0.96950000  1.0 0.5543941924
C  C104  1  0.65480000  0.11470000  0.46950000  1.0 0.5561374153
C  C105  1  0.92630000  0.38660000  0.02500000  1.0 0.0021928016
C  C106  1  0.07370000  0.61340000  0.52500000  1.0 0.0021928016
C  C107  1  0.11340000  0.42630000  0.27500000  1.0 0.0021928016
C  C108  1  0.88660000  0.57370000  0.77500000  1.0 0.0021928016
C  C109  1  0.57370000  0.88660000  0.22500000  1.0 0.0021928016
C  C110  1  0.42630000  0.11340000  0.72500000  1.0 0.0021928016
C  C111  1  0.38660000  0.92630000  0.97500000  1.0 0.0021928016
C  C112  1  0.61340000  0.07370000  0.47500000  1.0 0.0021928016
C  C113  1  0.97050000  0.40010000  0.03462000  1.0 -0.1709902831
C  C114  1  0.02950000  0.59990000  0.53462000  1.0 -0.1709902831
C  C115  1  0.09990000  0.47050000  0.28462000  1.0 -0.1709902831
C  C116  1  0.90010000  0.52950000  0.78462000  1.0 -0.1709902831
C  C117  1  0.52950000  0.90010000  0.21538000  1.0 -0.1709902831
C  C118  1  0.47050000  0.09990000  0.71538000  1.0 -0.1709902831
C  C119  1  0.40010000  0.97050000  0.96538000  1.0 -0.1709902831
C  C120  1  0.59990000  0.02950000  0.46538000  1.0 -0.1709902831
C  C121  1  0.00790000  0.43830000  0.02930000  1.0 0.061520058
C  C122  1  0.99210000  0.56170000  0.52930000  1.0 0.0706087739
C  C123  1  0.06170000  0.50790000  0.27930000  1.0 0.061520058
C  C124  1  0.93830000  0.49210000  0.77930000  1.0 0.0706087739
C  C125  1  0.49210000  0.93830000  0.22070000  1.0 0.061520058
C  C126  1  0.50790000  0.06170000  0.72070000  1.0 0.061520058
C  C127  1  0.43830000  0.00790000  0.97070000  1.0 0.061520058
C  C128  1  0.56170000  0.99210000  0.47070000  1.0 0.061520058
C  C129  1  0.96240000  0.44790000  0.00553000  1.0 0.0706087739
C  C130  1  0.03760000  0.55210000  0.50553000  1.0 0.061520058
C  C131  1  0.05210000  0.46240000  0.25553000  1.0 0.061520058
C  C132  1  0.94790000  0.53760000  0.75553000  1.0 0.061520058
C  C133  1  0.53760000  0.94790000  0.24447000  1.0 0.061520058
C  C134  1  0.46240000  0.05210000  0.74447000  1.0 0.061520058
C  C135  1  0.44790000  0.96240000  0.99447000  1.0 0.061520058
C  C136  1  0.55210000  0.03760000  0.49447000  1.0 0.061520058
C  C137  1  0.92270000  0.41100000  0.01022000  1.0 -0.1763903461
C  C138  1  0.07730000  0.58900000  0.51022000  1.0 -0.1709902831
C  C139  1  0.08900000  0.42270000  0.26022000  1.0 -0.1709902831
C  C140  1  0.91100000  0.57730000  0.76022000  1.0 -0.1763903461
C  C141  1  0.57730000  0.91100000  0.23978000  1.0 -0.1763903461
C  C142  1  0.42270000  0.08900000  0.73978000  1.0 -0.1709902831
C  C143  1  0.41100000  0.92270000  0.98978000  1.0 -0.1763903461
C  C144  1  0.58900000  0.07730000  0.48978000  1.0 -0.1763903461
C  C145  1  0.75650000  0.20970000  0.06902000  1.0 0.5705612352
C  C146  1  0.24350000  0.79030000  0.56902000  1.0 0.5705612352
C  C147  1  0.29030000  0.25650000  0.31902000  1.0 0.5705612352
C  C148  1  0.70970000  0.74350000  0.81902000  1.0 0.5705612352
C  C149  1  0.74350000  0.70970000  0.18098000  1.0 0.5705612352
C  C150  1  0.25650000  0.29030000  0.68098000  1.0 0.5705612352
C  C151  1  0.20970000  0.75650000  0.93098000  1.0 0.5705612352
C  C152  1  0.79030000  0.24350000  0.43098000  1.0 0.5705612352
C  C153  1  0.75040000  0.16130000  0.07903000  1.0 -0.0313190613
C  C154  1  0.24960000  0.83870000  0.57903000  1.0 -0.0313190613
C  C155  1  0.33870000  0.25040000  0.32903000  1.0 -0.0313190613
C  C156  1  0.66130000  0.74960000  0.82903000  1.0 -0.0313190613
C  C157  1  0.74960000  0.66130000  0.17097000  1.0 -0.0313190613
C  C158  1  0.25040000  0.33870000  0.67097000  1.0 -0.0313190613
C  C159  1  0.16130000  0.75040000  0.92097000  1.0 -0.0313190613
C  C160  1  0.83870000  0.24960000  0.42097000  1.0 -0.0313190613
C  C161  1  0.69950000  0.14610000  0.08480000  1.0 -0.1528727088
C  C162  1  0.30050000  0.85390000  0.58480000  1.0 -0.1581029944
C  C163  1  0.35390000  0.19950000  0.33480000  1.0 -0.1581029944
C  C164  1  0.64610000  0.80050000  0.83480000  1.0 -0.1581029944
C  C165  1  0.80050000  0.64610000  0.16520000  1.0 -0.1581029944
C  C166  1  0.19950000  0.35390000  0.66520000  1.0 -0.1528727088
C  C167  1  0.14610000  0.69950000  0.91520000  1.0 -0.1528727088
C  C168  1  0.85390000  0.30050000  0.41520000  1.0 -0.1581029944
C  C169  1  0.69500000  0.10120000  0.09480000  1.0 0.061520058
C  C170  1  0.30500000  0.89880000  0.59480000  1.0 0.061520058
C  C171  1  0.39880000  0.19500000  0.34480000  1.0 0.061520058
C  C172  1  0.60120000  0.80500000  0.84480000  1.0 0.061520058
C  C173  1  0.80500000  0.60120000  0.15520000  1.0 0.061520058
C  C174  1  0.19500000  0.39880000  0.65520000  1.0 0.061520058
C  C175  1  0.10120000  0.69500000  0.90520000  1.0 0.061520058
C  C176  1  0.89880000  0.30500000  0.40520000  1.0 0.061520058
C  C177  1  0.78640000  0.08440000  0.09290000  1.0 0.061520058
C  C178  1  0.21360000  0.91560000  0.59290000  1.0 0.061520058
C  C179  1  0.41560000  0.28640000  0.34290000  1.0 0.061520058
C  C180  1  0.58440000  0.71360000  0.84290000  1.0 0.061520058
C  C181  1  0.71360000  0.58440000  0.15710000  1.0 0.061520058
C  C182  1  0.28640000  0.41560000  0.65710000  1.0 0.061520058
C  C183  1  0.08440000  0.78640000  0.90710000  1.0 0.061520058
C  C184  1  0.91560000  0.21360000  0.40710000  1.0 0.061520058
C  C185  1  0.79420000  0.12950000  0.08320000  1.0 -0.1581029944
C  C186  1  0.20580000  0.87050000  0.58320000  1.0 -0.1581029944
C  C187  1  0.37050000  0.29420000  0.33320000  1.0 -0.1581029944
C  C188  1  0.62950000  0.70580000  0.83320000  1.0 -0.1581029944
C  C189  1  0.70580000  0.62950000  0.16680000  1.0 -0.1581029944
C  C190  1  0.29420000  0.37050000  0.66680000  1.0 -0.1581029944
C  C191  1  0.12950000  0.79420000  0.91680000  1.0 -0.1581029944
C  C192  1  0.87050000  0.20580000  0.41680000  1.0 -0.1581029944
C  C193  1  0.68600000  0.23200000  0.02210000  1.0 0.5705612352
C  C194  1  0.31400000  0.76800000  0.52210000  1.0 0.5705612352
C  C195  1  0.26800000  0.18600000  0.27210000  1.0 0.5705612352
C  C196  1  0.73200000  0.81400000  0.77210000  1.0 0.5705612352
C  C197  1  0.81400000  0.73200000  0.22790000  1.0 0.5705612352
C  C198  1  0.18600000  0.26800000  0.72790000  1.0 0.5705612352
C  C199  1  0.23200000  0.68600000  0.97790000  1.0 0.5705612352
C  C200  1  0.76800000  0.31400000  0.47790000  1.0 0.5705612352
C  C201  1  0.64460000  0.19550000  0.01528000  1.0 -0.0204514879
C  C202  1  0.35540000  0.80450000  0.51528000  1.0 -0.0204514879
C  C203  1  0.30450000  0.14460000  0.26528000  1.0 -0.0204514879
C  C204  1  0.69550000  0.85540000  0.76528000  1.0 -0.0204514879
C  C205  1  0.85540000  0.69550000  0.23472000  1.0 -0.0204514879
C  C206  1  0.14460000  0.30450000  0.73472000  1.0 -0.0204514879
C  C207  1  0.19550000  0.64460000  0.98472000  1.0 -0.0204514879
C  C208  1  0.80450000  0.35540000  0.48472000  1.0 -0.0204514879
C  C209  1  0.65050000  0.17480000  0.99986000  1.0 -0.1581029944
C  C210  1  0.34950000  0.82520000  0.49986000  1.0 -0.1581029944
C  C211  1  0.32520000  0.15050000  0.24986000  1.0 -0.1581029944
C  C212  1  0.67480000  0.84950000  0.74986000  1.0 -0.1581029944
C  C213  1  0.84950000  0.67480000  0.25014000  1.0 -0.1581029944
C  C214  1  0.15050000  0.32520000  0.75014000  1.0 -0.1581029944
C  C215  1  0.17480000  0.65050000  0.00014000  1.0 -0.1581029944
C  C216  1  0.82520000  0.34950000  0.50014000  1.0 -0.1581029944
C  C217  1  0.61070000  0.14100000  0.99358000  1.0 0.061520058
C  C218  1  0.38930000  0.85900000  0.49358000  1.0 0.061520058
C  C219  1  0.35900000  0.11070000  0.24358000  1.0 0.061520058
C  C220  1  0.64100000  0.88930000  0.74358000  1.0 0.061520058
C  C221  1  0.88930000  0.64100000  0.25642000  1.0 0.061520058
C  C222  1  0.11070000  0.35900000  0.75642000  1.0 0.061520058
C  C223  1  0.14100000  0.61070000  0.00642000  1.0 0.061520058
C  C224  1  0.85900000  0.38930000  0.50642000  1.0 0.061520058
C  C225  1  0.56190000  0.14470000  0.01690000  1.0 0.061520058
C  C226  1  0.43810000  0.85530000  0.51690000  1.0 0.061520058
C  C227  1  0.35530000  0.06190000  0.26690000  1.0 0.0706087739
C  C228  1  0.64470000  0.93810000  0.76690000  1.0 0.061520058
C  C229  1  0.93810000  0.64470000  0.23310000  1.0 0.061520058
C  C230  1  0.06190000  0.35530000  0.73310000  1.0 0.061520058
C  C231  1  0.14470000  0.56190000  0.98310000  1.0 0.061520058
C  C232  1  0.85530000  0.43810000  0.48310000  1.0 0.0706087739
C  C233  1  0.59940000  0.17970000  0.02384000  1.0 -0.1709902831
C  C234  1  0.40060000  0.82030000  0.52384000  1.0 -0.1709902831
C  C235  1  0.32030000  0.09940000  0.27384000  1.0 -0.1709902831
C  C236  1  0.67970000  0.90060000  0.77384000  1.0 -0.1709902831
C  C237  1  0.90060000  0.67970000  0.22616000  1.0 -0.1709902831
C  C238  1  0.09940000  0.32030000  0.72616000  1.0 -0.1709902831
C  C239  1  0.17970000  0.59940000  0.97616000  1.0 -0.1709902831
C  C240  1  0.82030000  0.40060000  0.47616000  1.0 -0.1709902831
C  C241  1  0.85900000  0.20020000  0.02540000  1.0 0.5966872003
C  C242  1  0.14100000  0.79980000  0.52540000  1.0 0.5966872003
C  C243  1  0.29980000  0.35900000  0.27540000  1.0 0.5966872003
C  C244  1  0.70020000  0.64100000  0.77540000  1.0 0.5966872003
C  C245  1  0.64100000  0.70020000  0.22460000  1.0 0.5966872003
C  C246  1  0.35900000  0.29980000  0.72460000  1.0 0.5966872003
C  C247  1  0.20020000  0.85900000  0.97460000  1.0 0.5966872003
C  C248  1  0.79980000  0.14100000  0.47460000  1.0 0.5966872003
C  C249  1  0.89090000  0.15350000  0.01888000  1.0 -0.0141618109
C  C250  1  0.10910000  0.84650000  0.51888000  1.0 -0.0141618109
C  C251  1  0.34650000  0.39090000  0.26888000  1.0 -0.0141618109
C  C252  1  0.65350000  0.60910000  0.76888000  1.0 -0.0141618109
C  C253  1  0.60910000  0.65350000  0.23112000  1.0 -0.0141618109
C  C254  1  0.39090000  0.34650000  0.73112000  1.0 -0.0141618109
C  C255  1  0.15350000  0.89090000  0.98112000  1.0 -0.0204514879
C  C256  1  0.84650000  0.10910000  0.48112000  1.0 -0.0141618109
C  C257  1  0.93200000  0.12990000  0.02801000  1.0 -0.1709902831
C  C258  1  0.06800000  0.87010000  0.52801000  1.0 -0.1709902831
C  C259  1  0.37010000  0.43200000  0.27801000  1.0 -0.1709902831
C  C260  1  0.62990000  0.56800000  0.77801000  1.0 -0.1709902831
C  C261  1  0.56800000  0.62990000  0.22199000  1.0 -0.1709902831
C  C262  1  0.43200000  0.37010000  0.72199000  1.0 -0.1709902831
C  C263  1  0.12990000  0.93200000  0.97199000  1.0 -0.1709902831
C  C264  1  0.87010000  0.06800000  0.47199000  1.0 -0.1709902831
C  C265  1  0.96250000  0.08770000  0.02160000  1.0 0.061520058
C  C266  1  0.03750000  0.91230000  0.52160000  1.0 0.0706087739
C  C267  1  0.41230000  0.46250000  0.27160000  1.0 0.061520058
C  C268  1  0.58770000  0.53750000  0.77160000  1.0 0.061520058
C  C269  1  0.53750000  0.58770000  0.22840000  1.0 0.0706087739
C  C270  1  0.46250000  0.41230000  0.72840000  1.0 0.061520058
C  C271  1  0.08770000  0.96250000  0.97840000  1.0 0.061520058
C  C272  1  0.91230000  0.03750000  0.47840000  1.0 0.0706087739
C  C273  1  0.91270000  0.08900000  0.99847000  1.0 0.0706087739
C  C274  1  0.08730000  0.91100000  0.49847000  1.0 0.0706087739
C  C275  1  0.41100000  0.41270000  0.24847000  1.0 0.0706087739
C  C276  1  0.58900000  0.58730000  0.74847000  1.0 0.0706087739
C  C277  1  0.58730000  0.58900000  0.25153000  1.0 0.0706087739
C  C278  1  0.41270000  0.41100000  0.75153000  1.0 0.0706087739
C  C279  1  0.08900000  0.91270000  0.00153000  1.0 0.0706087739
C  C280  1  0.91100000  0.08730000  0.50153000  1.0 0.0706087739
C  C281  1  0.88130000  0.13220000  0.00390000  1.0 -0.1709902831
C  C282  1  0.11870000  0.86780000  0.50390000  1.0 -0.1709902831
C  C283  1  0.36780000  0.38130000  0.25390000  1.0 -0.1709902831
C  C284  1  0.63220000  0.61870000  0.75390000  1.0 -0.1709902831
C  C285  1  0.61870000  0.63220000  0.24610000  1.0 -0.1709902831
C  C286  1  0.38130000  0.36780000  0.74610000  1.0 -0.1709902831
C  C287  1  0.13220000  0.88130000  0.99610000  1.0 -0.1709902831
C  C288  1  0.86780000  0.11870000  0.49610000  1.0 -0.1709902831
N  N1  1  0.63270000  0.52790000  0.00970000  1.0 -0.2389166335
N  N2  1  0.36730000  0.47210000  0.50970000  1.0 -0.2389166335
N  N3  1  0.97210000  0.13270000  0.25970000  1.0 -0.2389166335
N  N4  1  0.02790000  0.86730000  0.75970000  1.0 -0.2389166335
N  N5  1  0.86730000  0.02790000  0.24030000  1.0 -0.2334397878
N  N6  1  0.13270000  0.97210000  0.74030000  1.0 -0.2334397878
N  N7  1  0.52790000  0.63270000  0.99030000  1.0 -0.2334397878
N  N8  1  0.47210000  0.36730000  0.49030000  1.0 -0.2389166335
N  N9  1  0.78370000  0.46990000  0.11000000  1.0 -0.2389166335
N  N10  1  0.21630000  0.53010000  0.61000000  1.0 -0.2389166335
N  N11  1  0.03010000  0.28370000  0.36000000  1.0 -0.2389166335
N  N12  1  0.96990000  0.71630000  0.86000000  1.0 -0.2389166335
N  N13  1  0.71630000  0.96990000  0.14000000  1.0 -0.2389166335
N  N14  1  0.28370000  0.03010000  0.64000000  1.0 -0.2334397878
N  N15  1  0.46990000  0.78370000  0.89000000  1.0 -0.2389166335
N  N16  1  0.53010000  0.21630000  0.39000000  1.0 -0.2389166335
N  N17  1  0.00410000  0.46170000  0.01490000  1.0 -0.2389166335
N  N18  1  0.99590000  0.53830000  0.51490000  1.0 -0.2389166335
N  N19  1  0.03830000  0.50410000  0.26490000  1.0 -0.2334397878
N  N20  1  0.96170000  0.49590000  0.76490000  1.0 -0.2334397878
N  N21  1  0.49590000  0.96170000  0.23510000  1.0 -0.2334397878
N  N22  1  0.50410000  0.03830000  0.73510000  1.0 -0.2334397878
N  N23  1  0.46170000  0.00410000  0.98510000  1.0 -0.2334397878
N  N24  1  0.53830000  0.99590000  0.48510000  1.0 -0.2389166335
N  N25  1  0.73780000  0.07060000  0.09876000  1.0 -0.253395453
N  N26  1  0.26220000  0.92940000  0.59876000  1.0 -0.253395453
N  N27  1  0.42940000  0.23780000  0.34876000  1.0 -0.253395453
N  N28  1  0.57060000  0.76220000  0.84876000  1.0 -0.253395453
N  N29  1  0.76220000  0.57060000  0.15124000  1.0 -0.2577910348
N  N30  1  0.23780000  0.42940000  0.65124000  1.0 -0.253395453
N  N31  1  0.07060000  0.73780000  0.90124000  1.0 -0.2577910348
N  N32  1  0.92940000  0.26220000  0.40124000  1.0 -0.2577910348
N  N33  1  0.56700000  0.12590000  0.00200000  1.0 -0.2389166335
N  N34  1  0.43300000  0.87410000  0.50200000  1.0 -0.2334397878
N  N35  1  0.37410000  0.06700000  0.25200000  1.0 -0.2389166335
N  N36  1  0.62590000  0.93300000  0.75200000  1.0 -0.2389166335
N  N37  1  0.93300000  0.62590000  0.24800000  1.0 -0.2334397878
N  N38  1  0.06700000  0.37410000  0.74800000  1.0 -0.2334397878
N  N39  1  0.12590000  0.56700000  0.99800000  1.0 -0.2389166335
N  N40  1  0.87410000  0.43300000  0.49800000  1.0 -0.2334397878
N  N41  1  0.95290000  0.06730000  0.00710000  1.0 -0.2334397878
N  N42  1  0.04710000  0.93270000  0.50710000  1.0 -0.253395453
N  N43  1  0.43270000  0.45290000  0.25710000  1.0 -0.2389166335
N  N44  1  0.56730000  0.54710000  0.75710000  1.0 -0.2389166335
N  N45  1  0.54710000  0.56730000  0.24290000  1.0 -0.2389166335
N  N46  1  0.45290000  0.43270000  0.74290000  1.0 -0.2389166335
N  N47  1  0.06730000  0.95290000  0.99290000  1.0 -0.2389166335
N  N48  1  0.93270000  0.04710000  0.49290000  1.0 -0.2389166335
O  O1  1  0.77420000  0.28860000  0.04000000  1.0 -0.952732486
O  O2  1  0.22580000  0.71140000  0.54000000  1.0 -0.952732486
O  O3  1  0.21140000  0.27420000  0.29000000  1.0 -0.952732486
O  O4  1  0.78860000  0.72580000  0.79000000  1.0 -0.952732486
O  O5  1  0.72580000  0.78860000  0.21000000  1.0 -0.952732486
O  O6  1  0.27420000  0.21140000  0.71000000  1.0 -0.952732486
O  O7  1  0.28860000  0.77420000  0.96000000  1.0 -0.952732486
O  O8  1  0.71140000  0.22580000  0.46000000  1.0 -0.952732486
O  O9  1  0.74470000  0.35920000  0.01856000  1.0 -0.5713708301
O  O10  1  0.25530000  0.64080000  0.51856000  1.0 -0.5713708301
O  O11  1  0.14080000  0.24470000  0.26856000  1.0 -0.5713708301
O  O12  1  0.85920000  0.75530000  0.76856000  1.0 -0.5713708301
O  O13  1  0.75530000  0.85920000  0.23144000  1.0 -0.5713708301
O  O14  1  0.24470000  0.14080000  0.73144000  1.0 -0.5713708301
O  O15  1  0.35920000  0.74470000  0.98144000  1.0 -0.5713708301
O  O16  1  0.64080000  0.25530000  0.48144000  1.0 -0.5713708301
O  O17  1  0.69020000  0.36040000  0.03852000  1.0 -0.5496919162
O  O18  1  0.30980000  0.63960000  0.53852000  1.0 -0.5496919162
O  O19  1  0.13960000  0.19020000  0.28852000  1.0 -0.5496919162
O  O20  1  0.86040000  0.80980000  0.78852000  1.0 -0.5496919162
O  O21  1  0.80980000  0.86040000  0.21148000  1.0 -0.5496919162
O  O22  1  0.19020000  0.13960000  0.71148000  1.0 -0.5496919162
O  O23  1  0.36040000  0.69020000  0.96148000  1.0 -0.5496919162
O  O24  1  0.63960000  0.30980000  0.46148000  1.0 -0.5496919162
O  O25  1  0.74130000  0.33430000  0.06760000  1.0 -0.4974777375
O  O26  1  0.25870000  0.66570000  0.56760000  1.0 -0.4974777375
O  O27  1  0.16570000  0.24130000  0.31760000  1.0 -0.4974777375
O  O28  1  0.83430000  0.75870000  0.81760000  1.0 -0.4974777375
O  O29  1  0.75870000  0.83430000  0.18240000  1.0 -0.4974777375
O  O30  1  0.24130000  0.16570000  0.68240000  1.0 -0.4974777375
O  O31  1  0.33430000  0.74130000  0.93240000  1.0 -0.4974777375
O  O32  1  0.66570000  0.25870000  0.43240000  1.0 -0.4974777375
O  O33  1  0.82910000  0.33010000  0.07075000  1.0 -0.5822234128
O  O34  1  0.17090000  0.66990000  0.57075000  1.0 -0.5822234128
O  O35  1  0.16990000  0.32910000  0.32075000  1.0 -0.5822234128
O  O36  1  0.83010000  0.67090000  0.82075000  1.0 -0.5822234128
O  O37  1  0.67090000  0.83010000  0.17925000  1.0 -0.5822234128
O  O38  1  0.32910000  0.16990000  0.67925000  1.0 -0.5822234128
O  O39  1  0.33010000  0.82910000  0.92925000  1.0 -0.5822234128
O  O40  1  0.66990000  0.17090000  0.42925000  1.0 -0.5822234128
O  O41  1  0.88910000  0.32610000  0.04399000  1.0 -0.5112638131
O  O42  1  0.11090000  0.67390000  0.54399000  1.0 -0.5112638131
O  O43  1  0.17390000  0.38910000  0.29399000  1.0 -0.5112638131
O  O44  1  0.82610000  0.61090000  0.79399000  1.0 -0.5112638131
O  O45  1  0.61090000  0.82610000  0.20601000  1.0 -0.5112638131
O  O46  1  0.38910000  0.17390000  0.70601000  1.0 -0.5112638131
O  O47  1  0.32610000  0.88910000  0.95601000  1.0 -0.5112638131
O  O48  1  0.67390000  0.11090000  0.45601000  1.0 -0.5112638131
O  O49  1  0.84860000  0.33310000  0.02013000  1.0 -0.5713708301
O  O50  1  0.15140000  0.66690000  0.52013000  1.0 -0.5713708301
O  O51  1  0.16690000  0.34860000  0.27013000  1.0 -0.5713708301
O  O52  1  0.83310000  0.65140000  0.77013000  1.0 -0.5713708301
O  O53  1  0.65140000  0.83310000  0.22987000  1.0 -0.5713708301
O  O54  1  0.34860000  0.16690000  0.72987000  1.0 -0.5713708301
O  O55  1  0.33310000  0.84860000  0.97987000  1.0 -0.5713708301
O  O56  1  0.66690000  0.15140000  0.47987000  1.0 -0.5713708301
O  O57  1  0.71870000  0.23410000  0.06426000  1.0 -0.4899428722
O  O58  1  0.28130000  0.76590000  0.56426000  1.0 -0.4899428722
O  O59  1  0.26590000  0.21870000  0.31426000  1.0 -0.4899428722
O  O60  1  0.73410000  0.78130000  0.81426000  1.0 -0.4899428722
O  O61  1  0.78130000  0.73410000  0.18574000  1.0 -0.4899428722
O  O62  1  0.21870000  0.26590000  0.68574000  1.0 -0.4899428722
O  O63  1  0.23410000  0.71870000  0.93574000  1.0 -0.4899428722
O  O64  1  0.76590000  0.28130000  0.43574000  1.0 -0.4899428722
O  O65  1  0.80290000  0.22080000  0.06520000  1.0 -0.5112638131
O  O66  1  0.19710000  0.77920000  0.56520000  1.0 -0.5112638131
O  O67  1  0.27920000  0.30290000  0.31520000  1.0 -0.5112638131
O  O68  1  0.72080000  0.69710000  0.81520000  1.0 -0.5112638131
O  O69  1  0.69710000  0.72080000  0.18480000  1.0 -0.5112638131
O  O70  1  0.30290000  0.27920000  0.68480000  1.0 -0.5112638131
O  O71  1  0.22080000  0.80290000  0.93480000  1.0 -0.5112638131
O  O72  1  0.77920000  0.19710000  0.43480000  1.0 -0.5112638131
O  O73  1  0.72450000  0.24800000  0.01400000  1.0 -0.5496919162
O  O74  1  0.27550000  0.75200000  0.51400000  1.0 -0.5421329532
O  O75  1  0.25200000  0.22450000  0.26400000  1.0 -0.5421329532
O  O76  1  0.74800000  0.77550000  0.76400000  1.0 -0.5421329532
O  O77  1  0.77550000  0.74800000  0.23600000  1.0 -0.5421329532
O  O78  1  0.22450000  0.25200000  0.73600000  1.0 -0.5421329532
O  O79  1  0.24800000  0.72450000  0.98600000  1.0 -0.5421329532
O  O80  1  0.75200000  0.27550000  0.48600000  1.0 -0.5421329532
O  O81  1  0.68120000  0.24630000  0.03610000  1.0 -0.5421329532
O  O82  1  0.31880000  0.75370000  0.53610000  1.0 -0.5421329532
O  O83  1  0.25370000  0.18120000  0.28610000  1.0 -0.5421329532
O  O84  1  0.74630000  0.81880000  0.78610000  1.0 -0.5421329532
O  O85  1  0.81880000  0.74630000  0.21390000  1.0 -0.5421329532
O  O86  1  0.18120000  0.25370000  0.71390000  1.0 -0.5421329532
O  O87  1  0.24630000  0.68120000  0.96390000  1.0 -0.5421329532
O  O88  1  0.75370000  0.31880000  0.46390000  1.0 -0.5421329532
O  O89  1  0.82720000  0.22410000  0.01615000  1.0 -0.5822234128
O  O90  1  0.17280000  0.77590000  0.51615000  1.0 -0.5822234128
O  O91  1  0.27590000  0.32720000  0.26615000  1.0 -0.5822234128
O  O92  1  0.72410000  0.67280000  0.76615000  1.0 -0.5822234128
O  O93  1  0.67280000  0.72410000  0.23385000  1.0 -0.5822234128
O  O94  1  0.32720000  0.27590000  0.73385000  1.0 -0.5822234128
O  O95  1  0.22410000  0.82720000  0.98385000  1.0 -0.5822234128
O  O96  1  0.77590000  0.17280000  0.48385000  1.0 -0.5822234128
O  O97  1  0.86620000  0.21290000  0.03943000  1.0 -0.5713708301
O  O98  1  0.13380000  0.78710000  0.53943000  1.0 -0.5713708301
O  O99  1  0.28710000  0.36620000  0.28943000  1.0 -0.5713708301
O  O100  1  0.71290000  0.63380000  0.78943000  1.0 -0.5713708301
O  O101  1  0.63380000  0.71290000  0.21057000  1.0 -0.5713708301
O  O102  1  0.36620000  0.28710000  0.71057000  1.0 -0.5713708301
O  O103  1  0.21290000  0.86620000  0.96057000  1.0 -0.5713708301
O  O104  1  0.78710000  0.13380000  0.46057000  1.0 -0.5713708301
