# DDEC6 charges by PACMAN v1.1 (https://github.com/mtap-research/PACMAN-charge/)
data_BIJDUV_FSR_pacman
_symmetry_space_group_name_H-M   'P 1'
_cell_length_a   16.76220000
_cell_length_b   18.44730000
_cell_length_c   34.44190000
_cell_angle_alpha   90.00000000
_cell_angle_beta   90.00000000
_cell_angle_gamma   90.00000000
_symmetry_Int_Tables_number   1
_chemical_formula_structural   Ti4Cd3H172C140BrN12O23
_chemical_formula_sum   'Ti8 Cd6 H344 C280 Br2 N24 O46'
_cell_volume   10650.03242908
_cell_formula_units_Z   2
loop_
 _symmetry_equiv_pos_site_id
 _symmetry_equiv_pos_as_xyz
  1  'x, y, z'
loop_
 _atom_site_type_symbol
 _atom_site_label
 _atom_site_symmetry_multiplicity
 _atom_site_fract_x
 _atom_site_fract_y
 _atom_site_fract_z
 _atom_site_occupancy
 _atom_site_charge
Ti  Ti1  1  0.65309000  0.82996000  0.82225000  1.0 1.7615581489
Ti  Ti2  1  0.34691000  0.82996000  0.17775000  1.0 1.7615581489
Ti  Ti3  1  0.84691000  0.17004000  0.32225000  1.0 1.7615581489
Ti  Ti4  1  0.15309000  0.17004000  0.67775000  1.0 1.7615581489
Ti  Ti5  1  0.77514000  0.67204000  0.83826000  1.0 1.7615581489
Ti  Ti6  1  0.22486000  0.67204000  0.16174000  1.0 1.7615581489
Ti  Ti7  1  0.72486000  0.32796000  0.33826000  1.0 1.7615581489
Ti  Ti8  1  0.27514000  0.32796000  0.66174000  1.0 1.7615581489
Cd  Cd1  1  0.50000000  0.41060000  0.00000000  1.0 0.8630031979
Cd  Cd2  1  0.00000000  0.58940000  0.50000000  1.0 0.8665044343
Cd  Cd3  1  0.62269000  0.25016000  0.99419000  1.0 0.9253802335
Cd  Cd4  1  0.37731000  0.25016000  0.00581000  1.0 0.92480183
Cd  Cd5  1  0.87731000  0.74984000  0.49419000  1.0 0.9253802335
Cd  Cd6  1  0.12269000  0.74984000  0.50581000  1.0 0.9253802335
H  H1  1  0.65870000  0.00680000  0.94740000  1.0 0.1306877304
H  H2  1  0.34130000  0.00680000  0.05260000  1.0 0.1306877304
H  H3  1  0.84130000  0.99320000  0.44740000  1.0 0.1306877304
H  H4  1  0.15870000  0.99320000  0.55260000  1.0 0.1306877304
H  H5  1  0.54720000  0.14110000  0.87330000  1.0 0.1105839039
H  H6  1  0.45280000  0.14110000  0.12670000  1.0 0.1105839039
H  H7  1  0.95280000  0.85890000  0.37330000  1.0 0.1105839039
H  H8  1  0.04720000  0.85890000  0.62670000  1.0 0.1198805901
H  H9  1  0.47790000  0.14710000  0.78280000  1.0 0.1390964241
H  H10  1  0.52210000  0.14710000  0.21720000  1.0 0.1390964241
H  H11  1  0.02210000  0.85290000  0.28280000  1.0 0.1390964241
H  H12  1  0.97790000  0.85290000  0.71720000  1.0 0.1390964241
H  H13  1  0.46570000  0.15110000  0.82790000  1.0 0.1198805901
H  H14  1  0.53430000  0.15110000  0.17210000  1.0 0.1198805901
H  H15  1  0.03430000  0.84890000  0.32790000  1.0 0.1198805901
H  H16  1  0.96570000  0.84890000  0.67210000  1.0 0.1198805901
H  H17  1  0.54960000  0.16750000  0.80990000  1.0 0.1306877304
H  H18  1  0.45040000  0.16750000  0.19010000  1.0 0.1306877304
H  H19  1  0.95040000  0.83250000  0.30990000  1.0 0.1306877304
H  H20  1  0.04960000  0.83250000  0.69010000  1.0 0.1306877304
H  H21  1  0.42340000  0.01820000  0.78420000  1.0 0.1390964241
H  H22  1  0.57660000  0.01820000  0.21580000  1.0 0.1390964241
H  H23  1  0.07660000  0.98180000  0.28420000  1.0 0.1390964241
H  H24  1  0.92340000  0.98180000  0.71580000  1.0 0.1390964241
H  H25  1  0.46480000  0.95920000  0.81000000  1.0 0.1390964241
H  H26  1  0.53520000  0.95920000  0.19000000  1.0 0.1390964241
H  H27  1  0.03520000  0.04080000  0.31000000  1.0 0.1390964241
H  H28  1  0.96480000  0.04080000  0.69000000  1.0 0.1390964241
H  H29  1  0.41460000  0.02090000  0.82950000  1.0 0.1306877304
H  H30  1  0.58540000  0.02090000  0.17050000  1.0 0.1306877304
H  H31  1  0.08540000  0.97910000  0.32950000  1.0 0.1306877304
H  H32  1  0.91460000  0.97910000  0.67050000  1.0 0.1306877304
H  H33  1  0.55350000  0.05000000  0.75280000  1.0 0.1306877304
H  H34  1  0.44650000  0.05000000  0.24720000  1.0 0.1306877304
H  H35  1  0.94650000  0.95000000  0.25280000  1.0 0.1306877304
H  H36  1  0.05350000  0.95000000  0.74720000  1.0 0.1306877304
H  H37  1  0.62810000  0.06740000  0.77860000  1.0 0.1390964241
H  H38  1  0.37190000  0.06740000  0.22140000  1.0 0.1390964241
H  H39  1  0.87190000  0.93260000  0.27860000  1.0 0.1390964241
H  H40  1  0.12810000  0.93260000  0.72140000  1.0 0.1390964241
H  H41  1  0.59380000  0.98840000  0.77730000  1.0 0.1509385092
H  H42  1  0.40620000  0.98840000  0.22270000  1.0 0.1509385092
H  H43  1  0.90620000  0.01160000  0.27730000  1.0 0.1509385092
H  H44  1  0.09380000  0.01160000  0.72270000  1.0 0.1509385092
H  H45  1  0.62210000  0.84990000  0.90540000  1.0 0.1105839039
H  H46  1  0.37790000  0.84990000  0.09460000  1.0 0.1105839039
H  H47  1  0.87790000  0.15010000  0.40540000  1.0 0.1105839039
H  H48  1  0.12210000  0.15010000  0.59460000  1.0 0.1105839039
H  H49  1  0.69260000  0.88450000  0.92900000  1.0 0.1105839039
H  H50  1  0.30740000  0.88450000  0.07100000  1.0 0.1105839039
H  H51  1  0.80740000  0.11550000  0.42900000  1.0 0.1105839039
H  H52  1  0.19260000  0.11550000  0.57100000  1.0 0.1105839039
H  H53  1  0.76160000  0.96110000  0.86160000  1.0 0.0902072367
H  H54  1  0.23840000  0.96110000  0.13840000  1.0 0.0902072367
H  H55  1  0.73840000  0.03890000  0.36160000  1.0 0.0902072367
H  H56  1  0.26160000  0.03890000  0.63840000  1.0 0.0902072367
H  H57  1  0.81890000  0.94060000  0.92080000  1.0 0.1105839039
H  H58  1  0.18110000  0.94060000  0.07920000  1.0 0.1105839039
H  H59  1  0.68110000  0.05940000  0.42080000  1.0 0.1105839039
H  H60  1  0.31890000  0.05940000  0.57920000  1.0 0.1105839039
H  H61  1  0.86730000  0.87440000  0.90470000  1.0 0.1198805901
H  H62  1  0.13270000  0.87440000  0.09530000  1.0 0.1198805901
H  H63  1  0.63270000  0.12560000  0.40470000  1.0 0.1198805901
H  H64  1  0.36730000  0.12560000  0.59530000  1.0 0.1198805901
H  H65  1  0.95690000  0.97200000  0.90690000  1.0 0.101079107
H  H66  1  0.04310000  0.97200000  0.09310000  1.0 0.101079107
H  H67  1  0.54310000  0.02800000  0.40690000  1.0 0.101079107
H  H68  1  0.45690000  0.02800000  0.59310000  1.0 0.101079107
H  H69  1  0.89660000  0.02300000  0.88520000  1.0 0.101079107
H  H70  1  0.10340000  0.02300000  0.11480000  1.0 0.101079107
H  H71  1  0.60340000  0.97700000  0.38520000  1.0 0.101079107
H  H72  1  0.39660000  0.97700000  0.61480000  1.0 0.101079107
H  H73  1  0.99260000  0.98740000  0.84180000  1.0 0.1105839039
H  H74  1  0.00740000  0.98740000  0.15820000  1.0 0.1105839039
H  H75  1  0.50740000  0.01260000  0.34180000  1.0 0.1105839039
H  H76  1  0.49260000  0.01260000  0.65820000  1.0 0.1105839039
H  H77  1  0.97800000  0.90550000  0.85180000  1.0 0.1105839039
H  H78  1  0.02200000  0.90550000  0.14820000  1.0 0.1105839039
H  H79  1  0.52200000  0.09450000  0.35180000  1.0 0.1105839039
H  H80  1  0.47800000  0.09450000  0.64820000  1.0 0.1105839039
H  H81  1  0.91480000  0.93190000  0.79210000  1.0 0.1198805901
H  H82  1  0.08520000  0.93190000  0.20790000  1.0 0.1198805901
H  H83  1  0.58520000  0.06810000  0.29210000  1.0 0.1198805901
H  H84  1  0.41480000  0.06810000  0.70790000  1.0 0.1198805901
H  H85  1  0.86580000  0.99480000  0.81160000  1.0 0.1198805901
H  H86  1  0.13420000  0.99480000  0.18840000  1.0 0.1198805901
H  H87  1  0.63420000  0.00520000  0.31160000  1.0 0.1198805901
H  H88  1  0.36580000  0.00520000  0.68840000  1.0 0.1198805901
H  H89  1  0.85040000  0.84630000  0.83020000  1.0 0.1105839039
H  H90  1  0.14960000  0.84630000  0.16980000  1.0 0.1105839039
H  H91  1  0.64960000  0.15370000  0.33020000  1.0 0.1105839039
H  H92  1  0.35040000  0.15370000  0.66980000  1.0 0.1105839039
H  H93  1  0.83580000  0.87670000  0.75310000  1.0 0.1105839039
H  H94  1  0.16420000  0.87670000  0.24690000  1.0 0.1105839039
H  H95  1  0.66420000  0.12330000  0.25310000  1.0 0.1105839039
H  H96  1  0.33580000  0.12330000  0.74690000  1.0 0.1105839039
H  H97  1  0.80930000  0.80320000  0.77160000  1.0 0.1198805901
H  H98  1  0.19070000  0.80320000  0.22840000  1.0 0.1198805901
H  H99  1  0.69070000  0.19680000  0.27160000  1.0 0.1198805901
H  H100  1  0.30930000  0.19680000  0.72840000  1.0 0.1198805901
H  H101  1  0.82100000  0.83620000  0.69030000  1.0 0.1198805901
H  H102  1  0.17900000  0.83620000  0.30970000  1.0 0.1198805901
H  H103  1  0.67900000  0.16380000  0.19030000  1.0 0.1198805901
H  H104  1  0.32100000  0.16380000  0.80970000  1.0 0.1198805901
H  H105  1  0.60330000  0.80270000  0.64480000  1.0 0.1198805901
H  H106  1  0.39670000  0.80270000  0.35520000  1.0 0.1198805901
H  H107  1  0.89670000  0.19730000  0.14480000  1.0 0.1198805901
H  H108  1  0.10330000  0.19730000  0.85520000  1.0 0.1198805901
H  H109  1  0.41780000  0.87310000  0.73050000  1.0 0.1390964241
H  H110  1  0.58220000  0.87310000  0.26950000  1.0 0.1390964241
H  H111  1  0.08220000  0.12690000  0.23050000  1.0 0.1390964241
H  H112  1  0.91780000  0.12690000  0.76950000  1.0 0.1390964241
H  H113  1  0.49810000  0.88300000  0.75320000  1.0 0.1509385092
H  H114  1  0.50190000  0.88300000  0.24680000  1.0 0.1509385092
H  H115  1  0.00190000  0.11700000  0.25320000  1.0 0.1509385092
H  H116  1  0.99810000  0.11700000  0.74680000  1.0 0.1509385092
H  H117  1  0.48630000  0.92060000  0.71280000  1.0 0.1306877304
H  H118  1  0.51370000  0.92060000  0.28720000  1.0 0.1306877304
H  H119  1  0.01370000  0.07940000  0.21280000  1.0 0.1306877304
H  H120  1  0.98630000  0.07940000  0.78720000  1.0 0.1306877304
H  H121  1  0.40760000  0.79840000  0.67320000  1.0 0.1390964241
H  H122  1  0.59240000  0.79840000  0.32680000  1.0 0.1390964241
H  H123  1  0.09240000  0.20160000  0.17320000  1.0 0.1390964241
H  H124  1  0.90760000  0.20160000  0.82680000  1.0 0.1390964241
H  H125  1  0.47260000  0.84650000  0.65290000  1.0 0.1198805901
H  H126  1  0.52740000  0.84650000  0.34710000  1.0 0.1198805901
H  H127  1  0.02740000  0.15350000  0.15290000  1.0 0.1198805901
H  H128  1  0.97260000  0.15350000  0.84710000  1.0 0.1198805901
H  H129  1  0.48280000  0.76200000  0.65430000  1.0 0.1198805901
H  H130  1  0.51720000  0.76200000  0.34570000  1.0 0.1198805901
H  H131  1  0.01720000  0.23800000  0.15430000  1.0 0.1198805901
H  H132  1  0.98280000  0.23800000  0.84570000  1.0 0.1198805901
H  H133  1  0.43690000  0.73570000  0.73200000  1.0 0.1390964241
H  H134  1  0.56310000  0.73570000  0.26800000  1.0 0.1390964241
H  H135  1  0.06310000  0.26430000  0.23200000  1.0 0.1390964241
H  H136  1  0.93690000  0.26430000  0.76800000  1.0 0.1390964241
H  H137  1  0.51540000  0.70190000  0.71510000  1.0 0.1306877304
H  H138  1  0.48460000  0.70190000  0.28490000  1.0 0.1306877304
H  H139  1  0.98460000  0.29810000  0.21510000  1.0 0.1306877304
H  H140  1  0.01540000  0.29810000  0.78490000  1.0 0.1306877304
H  H141  1  0.51770000  0.74510000  0.75430000  1.0 0.1390964241
H  H142  1  0.48230000  0.74510000  0.24570000  1.0 0.1390964241
H  H143  1  0.98230000  0.25490000  0.25430000  1.0 0.1390964241
H  H144  1  0.01770000  0.25490000  0.74570000  1.0 0.1390964241
H  H145  1  0.91380000  0.83440000  0.57180000  1.0 0.1306877304
H  H146  1  0.08620000  0.83440000  0.42820000  1.0 0.1306877304
H  H147  1  0.58620000  0.16560000  0.07180000  1.0 0.1306877304
H  H148  1  0.41380000  0.16560000  0.92820000  1.0 0.1306877304
H  H149  1  0.85280000  0.86390000  0.63010000  1.0 0.1390964241
H  H150  1  0.14720000  0.86390000  0.36990000  1.0 0.1390964241
H  H151  1  0.64720000  0.13610000  0.13010000  1.0 0.1390964241
H  H152  1  0.35280000  0.13610000  0.86990000  1.0 0.1390964241
H  H153  1  0.66860000  0.73370000  0.60340000  1.0 0.1390964241
H  H154  1  0.33140000  0.73370000  0.39660000  1.0 0.1390964241
H  H155  1  0.83140000  0.26630000  0.10340000  1.0 0.1390964241
H  H156  1  0.16860000  0.26630000  0.89660000  1.0 0.1390964241
H  H157  1  0.72960000  0.70420000  0.54510000  1.0 0.1198805901
H  H158  1  0.27040000  0.70420000  0.45490000  1.0 0.1198805901
H  H159  1  0.77040000  0.29580000  0.04510000  1.0 0.1198805901
H  H160  1  0.22960000  0.29580000  0.95490000  1.0 0.1198805901
H  H161  1  0.82510000  0.37380000  0.92240000  1.0 0.1198805901
H  H162  1  0.17490000  0.37380000  0.07760000  1.0 0.1198805901
H  H163  1  0.67490000  0.62620000  0.42240000  1.0 0.1198805901
H  H164  1  0.32510000  0.62620000  0.57760000  1.0 0.1198805901
H  H165  1  0.63960000  0.50230000  0.94930000  1.0 0.1198805901
H  H166  1  0.36040000  0.50230000  0.05070000  1.0 0.1198805901
H  H167  1  0.86040000  0.49770000  0.44930000  1.0 0.1198805901
H  H168  1  0.13960000  0.49770000  0.55070000  1.0 0.1198805901
H  H169  1  0.94950000  0.45200000  0.81460000  1.0 0.1306877304
H  H170  1  0.05050000  0.45200000  0.18540000  1.0 0.1306877304
H  H171  1  0.55050000  0.54800000  0.31460000  1.0 0.1306877304
H  H172  1  0.44950000  0.54800000  0.68540000  1.0 0.1306877304
H  H173  1  0.86100000  0.42530000  0.81820000  1.0 0.1390964241
H  H174  1  0.13900000  0.42530000  0.18180000  1.0 0.1390964241
H  H175  1  0.63900000  0.57470000  0.31820000  1.0 0.1390964241
H  H176  1  0.36100000  0.57470000  0.68180000  1.0 0.1390964241
H  H177  1  0.88050000  0.50830000  0.82040000  1.0 0.1509385092
H  H178  1  0.11950000  0.50830000  0.17960000  1.0 0.1509385092
H  H179  1  0.61950000  0.49170000  0.32040000  1.0 0.1509385092
H  H180  1  0.38050000  0.49170000  0.67960000  1.0 0.1509385092
H  H181  1  0.01770000  0.50670000  0.87490000  1.0 0.1390964241
H  H182  1  0.98230000  0.50670000  0.12510000  1.0 0.1390964241
H  H183  1  0.48230000  0.49330000  0.37490000  1.0 0.1390964241
H  H184  1  0.51770000  0.49330000  0.62510000  1.0 0.1390964241
H  H185  1  0.94580000  0.56030000  0.87980000  1.0 0.1390964241
H  H186  1  0.05420000  0.56030000  0.12020000  1.0 0.1390964241
H  H187  1  0.55420000  0.43970000  0.37980000  1.0 0.1390964241
H  H188  1  0.44580000  0.43970000  0.62020000  1.0 0.1390964241
H  H189  1  0.97120000  0.51000000  0.91440000  1.0 0.1306877304
H  H190  1  0.02880000  0.51000000  0.08560000  1.0 0.1306877304
H  H191  1  0.52880000  0.49000000  0.41440000  1.0 0.1306877304
H  H192  1  0.47120000  0.49000000  0.58560000  1.0 0.1306877304
H  H193  1  0.99490000  0.37010000  0.87250000  1.0 0.1306877304
H  H194  1  0.00510000  0.37010000  0.12750000  1.0 0.1306877304
H  H195  1  0.50510000  0.62990000  0.37250000  1.0 0.1306877304
H  H196  1  0.49490000  0.62990000  0.62750000  1.0 0.1306877304
H  H197  1  0.95190000  0.37740000  0.91270000  1.0 0.1306877304
H  H198  1  0.04810000  0.37740000  0.08730000  1.0 0.1306877304
H  H199  1  0.54810000  0.62260000  0.41270000  1.0 0.1306877304
H  H200  1  0.45190000  0.62260000  0.58730000  1.0 0.1306877304
H  H201  1  0.90820000  0.34000000  0.87780000  1.0 0.1306877304
H  H202  1  0.09180000  0.34000000  0.12220000  1.0 0.1306877304
H  H203  1  0.59180000  0.66000000  0.37780000  1.0 0.1306877304
H  H204  1  0.40820000  0.66000000  0.62220000  1.0 0.1306877304
H  H205  1  0.64050000  0.53650000  0.84360000  1.0 0.0902072367
H  H206  1  0.35950000  0.53650000  0.15640000  1.0 0.0902072367
H  H207  1  0.85950000  0.46350000  0.34360000  1.0 0.0902072367
H  H208  1  0.14050000  0.46350000  0.65640000  1.0 0.0902072367
H  H209  1  0.50220000  0.62940000  0.84610000  1.0 0.1198805901
H  H210  1  0.49780000  0.62940000  0.15390000  1.0 0.1198805901
H  H211  1  0.99780000  0.37060000  0.34610000  1.0 0.1198805901
H  H212  1  0.00220000  0.37060000  0.65390000  1.0 0.1198805901
H  H213  1  0.51800000  0.56600000  0.87570000  1.0 0.1198805901
H  H214  1  0.48200000  0.56600000  0.12430000  1.0 0.1198805901
H  H215  1  0.98200000  0.43400000  0.37570000  1.0 0.1198805901
H  H216  1  0.01800000  0.43400000  0.62430000  1.0 0.1198805901
H  H217  1  0.50770000  0.48170000  0.82650000  1.0 0.101079107
H  H218  1  0.49230000  0.48170000  0.17350000  1.0 0.101079107
H  H219  1  0.99230000  0.51830000  0.32650000  1.0 0.101079107
H  H220  1  0.00770000  0.51830000  0.67350000  1.0 0.101079107
H  H221  1  0.42930000  0.52780000  0.82840000  1.0 0.101079107
H  H222  1  0.57070000  0.52780000  0.17160000  1.0 0.101079107
H  H223  1  0.07070000  0.47220000  0.32840000  1.0 0.101079107
H  H224  1  0.92930000  0.47220000  0.67160000  1.0 0.101079107
H  H225  1  0.46810000  0.51250000  0.76400000  1.0 0.1105839039
H  H226  1  0.53190000  0.51250000  0.23600000  1.0 0.1105839039
H  H227  1  0.03190000  0.48750000  0.26400000  1.0 0.1105839039
H  H228  1  0.96810000  0.48750000  0.73600000  1.0 0.1105839039
H  H229  1  0.47120000  0.59540000  0.77480000  1.0 0.1198805901
H  H230  1  0.52880000  0.59540000  0.22520000  1.0 0.1198805901
H  H231  1  0.02880000  0.40460000  0.27480000  1.0 0.1198805901
H  H232  1  0.97120000  0.40460000  0.72520000  1.0 0.1198805901
H  H233  1  0.60590000  0.50180000  0.77460000  1.0 0.1198805901
H  H234  1  0.39410000  0.50180000  0.22540000  1.0 0.1198805901
H  H235  1  0.89410000  0.49820000  0.27460000  1.0 0.1198805901
H  H236  1  0.10590000  0.49820000  0.72540000  1.0 0.1198805901
H  H237  1  0.59130000  0.56320000  0.74380000  1.0 0.1105839039
H  H238  1  0.40870000  0.56320000  0.25620000  1.0 0.1105839039
H  H239  1  0.90870000  0.43680000  0.24380000  1.0 0.1105839039
H  H240  1  0.09130000  0.43680000  0.75620000  1.0 0.1105839039
H  H241  1  0.60470000  0.65340000  0.79350000  1.0 0.1105839039
H  H242  1  0.39530000  0.65340000  0.20650000  1.0 0.1105839039
H  H243  1  0.89530000  0.34660000  0.29350000  1.0 0.1105839039
H  H244  1  0.10470000  0.34660000  0.70650000  1.0 0.1105839039
H  H245  1  0.70990000  0.69720000  0.75350000  1.0 0.1198805901
H  H246  1  0.29010000  0.69720000  0.24650000  1.0 0.1198805901
H  H247  1  0.79010000  0.30280000  0.25350000  1.0 0.1198805901
H  H248  1  0.20990000  0.30280000  0.74650000  1.0 0.1198805901
H  H249  1  0.69850000  0.62350000  0.73150000  1.0 0.101079107
H  H250  1  0.30150000  0.62350000  0.26850000  1.0 0.101079107
H  H251  1  0.80150000  0.37650000  0.23150000  1.0 0.1105839039
H  H252  1  0.19850000  0.37650000  0.76850000  1.0 0.101079107
H  H253  1  0.79150000  0.63030000  0.68220000  1.0 0.1105839039
H  H254  1  0.20850000  0.63030000  0.31780000  1.0 0.1105839039
H  H255  1  0.70850000  0.36970000  0.18220000  1.0 0.1105839039
H  H256  1  0.29150000  0.36970000  0.81780000  1.0 0.1105839039
H  H257  1  0.02310000  0.67050000  0.70350000  1.0 0.1105839039
H  H258  1  0.97690000  0.67050000  0.29650000  1.0 0.1105839039
H  H259  1  0.47690000  0.32950000  0.20350000  1.0 0.1105839039
H  H260  1  0.52310000  0.32950000  0.79650000  1.0 0.1105839039
H  H261  1  0.99980000  0.80160000  0.78460000  1.0 0.1306877304
H  H262  1  0.00020000  0.80160000  0.21540000  1.0 0.1306877304
H  H263  1  0.50020000  0.19840000  0.28460000  1.0 0.1306877304
H  H264  1  0.49980000  0.19840000  0.71540000  1.0 0.1306877304
H  H265  1  0.95910000  0.75600000  0.81750000  1.0 0.1509385092
H  H266  1  0.04090000  0.75600000  0.18250000  1.0 0.1509385092
H  H267  1  0.54090000  0.24400000  0.31750000  1.0 0.1509385092
H  H268  1  0.45910000  0.24400000  0.68250000  1.0 0.1509385092
H  H269  1  0.05070000  0.77290000  0.81960000  1.0 0.1390964241
H  H270  1  0.94930000  0.77290000  0.18040000  1.0 0.1390964241
H  H271  1  0.44930000  0.22710000  0.31960000  1.0 0.1390964241
H  H272  1  0.55070000  0.22710000  0.68040000  1.0 0.1390964241
H  H273  1  0.07560000  0.63950000  0.82640000  1.0 0.1390964241
H  H274  1  0.92440000  0.63950000  0.17360000  1.0 0.1390964241
H  H275  1  0.42440000  0.36050000  0.32640000  1.0 0.1390964241
H  H276  1  0.57560000  0.36050000  0.67360000  1.0 0.1390964241
H  H277  1  0.98390000  0.62420000  0.82290000  1.0 0.1509385092
H  H278  1  0.01610000  0.62420000  0.17710000  1.0 0.1509385092
H  H279  1  0.51610000  0.37580000  0.32290000  1.0 0.1509385092
H  H280  1  0.48390000  0.37580000  0.67710000  1.0 0.1509385092
H  H281  1  0.04410000  0.58500000  0.79500000  1.0 0.1306877304
H  H282  1  0.95590000  0.58500000  0.20500000  1.0 0.1306877304
H  H283  1  0.45590000  0.41500000  0.29500000  1.0 0.1306877304
H  H284  1  0.54410000  0.41500000  0.70500000  1.0 0.1306877304
H  H285  1  0.10060000  0.73830000  0.74110000  1.0 0.1198805901
H  H286  1  0.89940000  0.73830000  0.25890000  1.0 0.1198805901
H  H287  1  0.39940000  0.26170000  0.24110000  1.0 0.1198805901
H  H288  1  0.60060000  0.26170000  0.75890000  1.0 0.1198805901
H  H289  1  0.14410000  0.71090000  0.77860000  1.0 0.1390964241
H  H290  1  0.85590000  0.71090000  0.22140000  1.0 0.1390964241
H  H291  1  0.35590000  0.28910000  0.27860000  1.0 0.1390964241
H  H292  1  0.64410000  0.28910000  0.72140000  1.0 0.1390964241
H  H293  1  0.11720000  0.65540000  0.74670000  1.0 0.1198805901
H  H294  1  0.88280000  0.65540000  0.25330000  1.0 0.1198805901
H  H295  1  0.38280000  0.34460000  0.24670000  1.0 0.1198805901
H  H296  1  0.61720000  0.34460000  0.75330000  1.0 0.1198805901
H  H297  1  0.86300000  0.55620000  0.56530000  1.0 0.1198805901
H  H298  1  0.13700000  0.55620000  0.43470000  1.0 0.1198805901
H  H299  1  0.63700000  0.44380000  0.06530000  1.0 0.1198805901
H  H300  1  0.36300000  0.44380000  0.93470000  1.0 0.1198805901
H  H301  1  0.83030000  0.57950000  0.62960000  1.0 0.1306877304
H  H302  1  0.16970000  0.57950000  0.37040000  1.0 0.1306877304
H  H303  1  0.66970000  0.42050000  0.12960000  1.0 0.1306877304
H  H304  1  0.33030000  0.42050000  0.87040000  1.0 0.1306877304
H  H305  1  0.03660000  0.68740000  0.64320000  1.0 0.1390964241
H  H306  1  0.96340000  0.68740000  0.35680000  1.0 0.1390964241
H  H307  1  0.46340000  0.31260000  0.14320000  1.0 0.1390964241
H  H308  1  0.53660000  0.31260000  0.85680000  1.0 0.1390964241
H  H309  1  0.06930000  0.66420000  0.57900000  1.0 0.1105839039
H  H310  1  0.93070000  0.66420000  0.42100000  1.0 0.1105839039
H  H311  1  0.43070000  0.33580000  0.07900000  1.0 0.1105839039
H  H312  1  0.56930000  0.33580000  0.92100000  1.0 0.1105839039
H  H313  1  0.47130000  0.75520000  0.86950000  1.0 0.1198805901
H  H314  1  0.52870000  0.75520000  0.13050000  1.0 0.1198805901
H  H315  1  0.02870000  0.24480000  0.36950000  1.0 0.1198805901
H  H316  1  0.97130000  0.24480000  0.63050000  1.0 0.1198805901
H  H317  1  0.49650000  0.83670000  0.87300000  1.0 0.1198805901
H  H318  1  0.50350000  0.83670000  0.12700000  1.0 0.1198805901
H  H319  1  0.00350000  0.16330000  0.37300000  1.0 0.1198805901
H  H320  1  0.99650000  0.16330000  0.62700000  1.0 0.1198805901
H  H321  1  0.46740000  0.80590000  0.83300000  1.0 0.1390964241
H  H322  1  0.53260000  0.80590000  0.16700000  1.0 0.1390964241
H  H323  1  0.03260000  0.19410000  0.33300000  1.0 0.1390964241
H  H324  1  0.96740000  0.19410000  0.66700000  1.0 0.1390964241
H  H325  1  0.86950000  0.74790000  0.92880000  1.0 0.1198805901
H  H326  1  0.13050000  0.74790000  0.07120000  1.0 0.1198805901
H  H327  1  0.63050000  0.25210000  0.42880000  1.0 0.1198805901
H  H328  1  0.36950000  0.25210000  0.57120000  1.0 0.1198805901
H  H329  1  0.84680000  0.66590000  0.92460000  1.0 0.1198805901
H  H330  1  0.15320000  0.66590000  0.07540000  1.0 0.1198805901
H  H331  1  0.65320000  0.33410000  0.42460000  1.0 0.1198805901
H  H332  1  0.34680000  0.33410000  0.57540000  1.0 0.1198805901
H  H333  1  0.91710000  0.69820000  0.90010000  1.0 0.1306877304
H  H334  1  0.08290000  0.69820000  0.09990000  1.0 0.1390964241
H  H335  1  0.58290000  0.30180000  0.40010000  1.0 0.1306877304
H  H336  1  0.41710000  0.30180000  0.59990000  1.0 0.1306877304
H  H337  1  0.70030000  0.65410000  0.91810000  1.0 0.1198805901
H  H338  1  0.29970000  0.65410000  0.08190000  1.0 0.1198805901
H  H339  1  0.79970000  0.34590000  0.41810000  1.0 0.1198805901
H  H340  1  0.20030000  0.34590000  0.58190000  1.0 0.1198805901
H  H341  1  0.61850000  0.61310000  0.91710000  1.0 0.1198805901
H  H342  1  0.38150000  0.61310000  0.08290000  1.0 0.1198805901
H  H343  1  0.88150000  0.38690000  0.41710000  1.0 0.1198805901
H  H344  1  0.11850000  0.38690000  0.58290000  1.0 0.1198805901
C  C1  1  0.60700000  0.14170000  0.94390000  1.0 0.5343688166
C  C2  1  0.39300000  0.14170000  0.05610000  1.0 0.5343688166
C  C3  1  0.89300000  0.85830000  0.44390000  1.0 0.5343688166
C  C4  1  0.10700000  0.85830000  0.55610000  1.0 0.5343688166
C  C5  1  0.60340000  0.08300000  0.91487000  1.0 -0.0374932435
C  C6  1  0.39660000  0.08300000  0.08513000  1.0 -0.0374932435
C  C7  1  0.89660000  0.91700000  0.41487000  1.0 -0.0374932435
C  C8  1  0.10340000  0.91700000  0.58513000  1.0 -0.0374932435
C  C9  1  0.63530000  0.01530000  0.92332000  1.0 -0.1654576326
C  C10  1  0.36470000  0.01530000  0.07668000  1.0 -0.1605001156
C  C11  1  0.86470000  0.98470000  0.42332000  1.0 -0.1654576326
C  C12  1  0.13530000  0.98470000  0.57668000  1.0 -0.1605001156
C  C13  1  0.63230000  0.96020000  0.89580000  1.0 -0.0323600077
C  C14  1  0.36770000  0.96020000  0.10420000  1.0 -0.0323600077
C  C15  1  0.86770000  0.03980000  0.39580000  1.0 -0.0323600077
C  C16  1  0.13230000  0.03980000  0.60420000  1.0 -0.0323600077
C  C17  1  0.59730000  0.97300000  0.85983000  1.0 0.2299313469
C  C18  1  0.40270000  0.97300000  0.14017000  1.0 0.2299313469
C  C19  1  0.90270000  0.02700000  0.35983000  1.0 0.2299313469
C  C20  1  0.09730000  0.02700000  0.64017000  1.0 0.2299313469
C  C21  1  0.56550000  0.04070000  0.85139000  1.0 -0.0480070088
C  C22  1  0.43450000  0.04070000  0.14861000  1.0 -0.0480070088
C  C23  1  0.93450000  0.95930000  0.35139000  1.0 -0.0480070088
C  C24  1  0.06550000  0.95930000  0.64861000  1.0 -0.0480070088
C  C25  1  0.56850000  0.09570000  0.87890000  1.0 -0.1529638905
C  C26  1  0.43150000  0.09570000  0.12110000  1.0 -0.1529638905
C  C27  1  0.93150000  0.90430000  0.37890000  1.0 -0.1529638905
C  C28  1  0.06850000  0.90430000  0.62110000  1.0 -0.1529638905
C  C29  1  0.52490000  0.05680000  0.81110000  1.0 0.3170324898
C  C30  1  0.47510000  0.05680000  0.18890000  1.0 0.3170324898
C  C31  1  0.97510000  0.94320000  0.31110000  1.0 0.3170324898
C  C32  1  0.02490000  0.94320000  0.68890000  1.0 0.3170324898
C  C33  1  0.50240000  0.13850000  0.80760000  1.0 -0.4899705951
C  C34  1  0.49760000  0.13850000  0.19240000  1.0 -0.4899705951
C  C35  1  0.99760000  0.86150000  0.30760000  1.0 -0.4899705951
C  C36  1  0.00240000  0.86150000  0.69240000  1.0 -0.4899705951
C  C37  1  0.44990000  0.00930000  0.80850000  1.0 -0.4700376342
C  C38  1  0.55010000  0.00930000  0.19150000  1.0 -0.4700376342
C  C39  1  0.05010000  0.99070000  0.30850000  1.0 -0.4700376342
C  C40  1  0.94990000  0.99070000  0.69150000  1.0 -0.4700376342
C  C41  1  0.58030000  0.03890000  0.77670000  1.0 -0.4899705951
C  C42  1  0.41970000  0.03890000  0.22330000  1.0 -0.4899705951
C  C43  1  0.91970000  0.96110000  0.27670000  1.0 -0.4899705951
C  C44  1  0.08030000  0.96110000  0.72330000  1.0 -0.4899705951
C  C45  1  0.66560000  0.88440000  0.90410000  1.0 -0.1107086783
C  C46  1  0.33440000  0.88440000  0.09590000  1.0 -0.1107086783
C  C47  1  0.83440000  0.11560000  0.40410000  1.0 -0.1107086783
C  C48  1  0.16560000  0.11560000  0.59590000  1.0 -0.1107086783
C  C49  1  0.78620000  0.91340000  0.86530000  1.0 0.0657507198
C  C50  1  0.21380000  0.91340000  0.13470000  1.0 0.0657507198
C  C51  1  0.71380000  0.08660000  0.36530000  1.0 0.0657507198
C  C52  1  0.28620000  0.08660000  0.63470000  1.0 0.0657507198
C  C53  1  0.84590000  0.92160000  0.89810000  1.0 -0.1999817738
C  C54  1  0.15410000  0.92160000  0.10190000  1.0 -0.1999817738
C  C55  1  0.65410000  0.07840000  0.39810000  1.0 -0.1999817738
C  C56  1  0.34590000  0.07840000  0.60190000  1.0 -0.1999817738
C  C57  1  0.91630000  0.97360000  0.88680000  1.0 -0.1605001156
C  C58  1  0.08370000  0.97360000  0.11320000  1.0 -0.1605001156
C  C59  1  0.58370000  0.02640000  0.38680000  1.0 -0.1605001156
C  C60  1  0.41630000  0.02640000  0.61320000  1.0 -0.1605001156
C  C61  1  0.95210000  0.95230000  0.84890000  1.0 -0.1529638905
C  C62  1  0.04790000  0.95230000  0.15110000  1.0 -0.1529638905
C  C63  1  0.54790000  0.04770000  0.34890000  1.0 -0.1529638905
C  C64  1  0.45210000  0.04770000  0.65110000  1.0 -0.1529638905
C  C65  1  0.88940000  0.94750000  0.81600000  1.0 -0.2213647031
C  C66  1  0.11060000  0.94750000  0.18400000  1.0 -0.2213647031
C  C67  1  0.61060000  0.05250000  0.31600000  1.0 -0.2213647031
C  C68  1  0.38940000  0.05250000  0.68400000  1.0 -0.2213647031
C  C69  1  0.82550000  0.89410000  0.82740000  1.0 0.0902072367
C  C70  1  0.17450000  0.89410000  0.17260000  1.0 0.0902072367
C  C71  1  0.67450000  0.10590000  0.32740000  1.0 0.0902072367
C  C72  1  0.32550000  0.10590000  0.67260000  1.0 0.0902072367
C  C73  1  0.79020000  0.85030000  0.76320000  1.0 -0.1107086783
C  C74  1  0.20980000  0.85030000  0.23680000  1.0 -0.1107086783
C  C75  1  0.70980000  0.14970000  0.26320000  1.0 -0.1107086783
C  C76  1  0.29020000  0.14970000  0.73680000  1.0 -0.1107086783
C  C77  1  0.73250000  0.83850000  0.73013000  1.0 -0.0009637257
C  C78  1  0.26750000  0.83850000  0.26987000  1.0 -0.0009637257
C  C79  1  0.76750000  0.16150000  0.23013000  1.0 -0.0009637257
C  C80  1  0.23250000  0.16150000  0.76987000  1.0 -0.0009637257
C  C81  1  0.76610000  0.83170000  0.69340000  1.0 -0.1999817738
C  C82  1  0.23390000  0.83170000  0.30660000  1.0 -0.1999817738
C  C83  1  0.73390000  0.16830000  0.19340000  1.0 -0.1999817738
C  C84  1  0.26610000  0.16830000  0.80660000  1.0 -0.1999817738
C  C85  1  0.71770000  0.81830000  0.66144000  1.0 0.0463001494
C  C86  1  0.28230000  0.81830000  0.33856000  1.0 0.0463001494
C  C87  1  0.78230000  0.18170000  0.16144000  1.0 0.0463001494
C  C88  1  0.21770000  0.18170000  0.83856000  1.0 0.0463001494
C  C89  1  0.63570000  0.81160000  0.66618000  1.0 -0.1896156745
C  C90  1  0.36430000  0.81160000  0.33382000  1.0 -0.1896156745
C  C91  1  0.86430000  0.18840000  0.16618000  1.0 -0.1896156745
C  C92  1  0.13570000  0.18840000  0.83382000  1.0 -0.1896156745
C  C93  1  0.60210000  0.81840000  0.70290000  1.0 -0.0374932435
C  C94  1  0.39790000  0.81840000  0.29710000  1.0 -0.0374932435
C  C95  1  0.89790000  0.18160000  0.20290000  1.0 -0.0374932435
C  C96  1  0.10210000  0.18160000  0.79710000  1.0 -0.0374932435
C  C97  1  0.65040000  0.83180000  0.73487000  1.0 0.238827383
C  C98  1  0.34960000  0.83180000  0.26513000  1.0 0.238827383
C  C99  1  0.84960000  0.16820000  0.23487000  1.0 0.238827383
C  C100  1  0.15040000  0.16820000  0.76513000  1.0 0.238827383
C  C101  1  0.50920000  0.81040000  0.70740000  1.0 0.3019821605
C  C102  1  0.49080000  0.81040000  0.29260000  1.0 0.3019821605
C  C103  1  0.99080000  0.18960000  0.20740000  1.0 0.3019821605
C  C104  1  0.00920000  0.18960000  0.79260000  1.0 0.3019821605
C  C105  1  0.47460000  0.87820000  0.72790000  1.0 -0.4700376342
C  C106  1  0.52540000  0.87820000  0.27210000  1.0 -0.4700376342
C  C107  1  0.02540000  0.12180000  0.22790000  1.0 -0.4700376342
C  C108  1  0.97460000  0.12180000  0.77210000  1.0 -0.4700376342
C  C109  1  0.46370000  0.80370000  0.66820000  1.0 -0.4609692396
C  C110  1  0.53630000  0.80370000  0.33180000  1.0 -0.4609692396
C  C111  1  0.03630000  0.19630000  0.16820000  1.0 -0.4609692396
C  C112  1  0.96370000  0.19630000  0.83180000  1.0 -0.4609692396
C  C113  1  0.49340000  0.74220000  0.72910000  1.0 -0.4899705951
C  C114  1  0.50660000  0.74220000  0.27090000  1.0 -0.4899705951
C  C115  1  0.00660000  0.25780000  0.22910000  1.0 -0.4899705951
C  C116  1  0.99340000  0.25780000  0.77090000  1.0 -0.4784776458
C  C117  1  0.86460000  0.81420000  0.57810000  1.0 0.0902072367
C  C118  1  0.13540000  0.81420000  0.42190000  1.0 0.0902072367
C  C119  1  0.63540000  0.18580000  0.07810000  1.0 0.0902072367
C  C120  1  0.36460000  0.18580000  0.92190000  1.0 0.0902072367
C  C121  1  0.82810000  0.83190000  0.61310000  1.0 -0.1896156745
C  C122  1  0.17190000  0.83190000  0.38690000  1.0 -0.1896156745
C  C123  1  0.67190000  0.16810000  0.11310000  1.0 -0.1896156745
C  C124  1  0.32810000  0.16810000  0.88690000  1.0 -0.1896156745
C  C125  1  0.75460000  0.80170000  0.62260000  1.0 0.1198805901
C  C126  1  0.24540000  0.80170000  0.37740000  1.0 0.1198805901
C  C127  1  0.74540000  0.19830000  0.12260000  1.0 0.1198805901
C  C128  1  0.25460000  0.19830000  0.87740000  1.0 0.1198805901
C  C129  1  0.71770000  0.75390000  0.59710000  1.0 -0.1999817738
C  C130  1  0.28230000  0.75390000  0.40290000  1.0 -0.1999817738
C  C131  1  0.78230000  0.24610000  0.09710000  1.0 -0.1999817738
C  C132  1  0.21770000  0.24610000  0.90290000  1.0 -0.1999817738
C  C133  1  0.75430000  0.73620000  0.56210000  1.0 0.0806267102
C  C134  1  0.24570000  0.73620000  0.43790000  1.0 0.0806267102
C  C135  1  0.74570000  0.26380000  0.06210000  1.0 0.0806267102
C  C136  1  0.25430000  0.26380000  0.93790000  1.0 0.0806267102
C  C137  1  0.69260000  0.37100000  0.96640000  1.0 0.55936468
C  C138  1  0.30740000  0.37100000  0.03360000  1.0 0.55936468
C  C139  1  0.80740000  0.62900000  0.46640000  1.0 0.55936468
C  C140  1  0.19260000  0.62900000  0.53360000  1.0 0.55936468
C  C141  1  0.72780000  0.42950000  0.94014000  1.0 -0.0323600077
C  C142  1  0.27220000  0.42950000  0.05986000  1.0 -0.0323600077
C  C143  1  0.77220000  0.57050000  0.44014000  1.0 -0.0323600077
C  C144  1  0.22780000  0.57050000  0.55986000  1.0 -0.0323600077
C  C145  1  0.79710000  0.41690000  0.91900000  1.0 -0.1605001156
C  C146  1  0.20290000  0.41690000  0.08100000  1.0 -0.1605001156
C  C147  1  0.70290000  0.58310000  0.41900000  1.0 -0.1605001156
C  C148  1  0.29710000  0.58310000  0.58100000  1.0 -0.1605001156
C  C149  1  0.82450000  0.46860000  0.89290000  1.0 -0.0480070088
C  C150  1  0.17550000  0.46860000  0.10710000  1.0 -0.0480070088
C  C151  1  0.67550000  0.53140000  0.39290000  1.0 -0.0480070088
C  C152  1  0.32450000  0.53140000  0.60710000  1.0 -0.0480070088
C  C153  1  0.78270000  0.53300000  0.88789000  1.0 0.238827383
C  C154  1  0.21730000  0.53300000  0.11211000  1.0 0.238827383
C  C155  1  0.71730000  0.46700000  0.38789000  1.0 0.238827383
C  C156  1  0.28270000  0.46700000  0.61211000  1.0 0.238827383
C  C157  1  0.71340000  0.54560000  0.90900000  1.0 -0.0323600077
C  C158  1  0.28660000  0.54560000  0.09100000  1.0 -0.0323600077
C  C159  1  0.78660000  0.45440000  0.40900000  1.0 -0.0323600077
C  C160  1  0.21340000  0.45440000  0.59100000  1.0 -0.0323600077
C  C161  1  0.68600000  0.49390000  0.93510000  1.0 -0.1605001156
C  C162  1  0.31400000  0.49390000  0.06490000  1.0 -0.1605001156
C  C163  1  0.81400000  0.50610000  0.43510000  1.0 -0.1605001156
C  C164  1  0.18600000  0.50610000  0.56490000  1.0 -0.1605001156
C  C165  1  0.90900000  0.45460000  0.87200000  1.0 0.3170324898
C  C166  1  0.09100000  0.45460000  0.12800000  1.0 0.3170324898
C  C167  1  0.59100000  0.54540000  0.37200000  1.0 0.3170324898
C  C168  1  0.40900000  0.54540000  0.62800000  1.0 0.3170324898
C  C169  1  0.89900000  0.46060000  0.82690000  1.0 -0.4899705951
C  C170  1  0.10100000  0.46060000  0.17310000  1.0 -0.4899705951
C  C171  1  0.60100000  0.53940000  0.32690000  1.0 -0.4899705951
C  C172  1  0.39900000  0.53940000  0.67310000  1.0 -0.4899705951
C  C173  1  0.96630000  0.51340000  0.88670000  1.0 -0.4700376342
C  C174  1  0.03370000  0.51340000  0.11330000  1.0 -0.4700376342
C  C175  1  0.53370000  0.48660000  0.38670000  1.0 -0.4700376342
C  C176  1  0.46630000  0.48660000  0.61330000  1.0 -0.4700376342
C  C177  1  0.94460000  0.37780000  0.88500000  1.0 -0.4700376342
C  C178  1  0.05540000  0.37780000  0.11500000  1.0 -0.4700376342
C  C179  1  0.55540000  0.62220000  0.38500000  1.0 -0.4700376342
C  C180  1  0.44460000  0.62220000  0.61500000  1.0 -0.4700376342
C  C181  1  0.61700000  0.58440000  0.83920000  1.0 0.0806267102
C  C182  1  0.38300000  0.58440000  0.16080000  1.0 0.0806267102
C  C183  1  0.88300000  0.41560000  0.33920000  1.0 0.0806267102
C  C184  1  0.11700000  0.41560000  0.66080000  1.0 0.0806267102
C  C185  1  0.52550000  0.58150000  0.84900000  1.0 -0.1999817738
C  C186  1  0.47450000  0.58150000  0.15100000  1.0 -0.1999817738
C  C187  1  0.97450000  0.41850000  0.34900000  1.0 -0.1999817738
C  C188  1  0.02550000  0.41850000  0.65100000  1.0 -0.1999817738
C  C189  1  0.48570000  0.52970000  0.82210000  1.0 -0.1605001156
C  C190  1  0.51430000  0.52970000  0.17790000  1.0 -0.1605001156
C  C191  1  0.01430000  0.47030000  0.32210000  1.0 -0.1605001156
C  C192  1  0.98570000  0.47030000  0.67790000  1.0 -0.1605001156
C  C193  1  0.49480000  0.54840000  0.78000000  1.0 -0.1529638905
C  C194  1  0.50520000  0.54840000  0.22000000  1.0 -0.1529638905
C  C195  1  0.00520000  0.45160000  0.28000000  1.0 -0.1529638905
C  C196  1  0.99480000  0.45160000  0.72000000  1.0 -0.1529638905
C  C197  1  0.58360000  0.54980000  0.77080000  1.0 -0.2096619515
C  C198  1  0.41640000  0.54980000  0.22920000  1.0 -0.2096619515
C  C199  1  0.91640000  0.45020000  0.27080000  1.0 -0.2096619515
C  C200  1  0.08360000  0.45020000  0.72920000  1.0 -0.2096619515
C  C201  1  0.62810000  0.60530000  0.79750000  1.0 0.0806267102
C  C202  1  0.37190000  0.60530000  0.20250000  1.0 0.0806267102
C  C203  1  0.87190000  0.39470000  0.29750000  1.0 0.0806267102
C  C204  1  0.12810000  0.39470000  0.70250000  1.0 0.0806267102
C  C205  1  0.72960000  0.64800000  0.75130000  1.0 -0.1107086783
C  C206  1  0.27040000  0.64800000  0.24870000  1.0 -0.1107086783
C  C207  1  0.77040000  0.35200000  0.25130000  1.0 -0.1107086783
C  C208  1  0.22960000  0.35200000  0.74870000  1.0 -0.1107086783
C  C209  1  0.81520000  0.65000000  0.73882000  1.0 0.0093764438
C  C210  1  0.18480000  0.65000000  0.26118000  1.0 0.0093764438
C  C211  1  0.68480000  0.35000000  0.23882000  1.0 0.0093764438
C  C212  1  0.31520000  0.35000000  0.76118000  1.0 0.0093764438
C  C213  1  0.83220000  0.64130000  0.69960000  1.0 -0.2096619515
C  C214  1  0.16780000  0.64130000  0.30040000  1.0 -0.2096619515
C  C215  1  0.66780000  0.35870000  0.19960000  1.0 -0.2096619515
C  C216  1  0.33220000  0.35870000  0.80040000  1.0 -0.2096619515
C  C217  1  0.91010000  0.64890000  0.68636000  1.0 0.0463001494
C  C218  1  0.08990000  0.64890000  0.31364000  1.0 0.0463001494
C  C219  1  0.58990000  0.35110000  0.18636000  1.0 0.0463001494
C  C220  1  0.41010000  0.35110000  0.81364000  1.0 0.0463001494
C  C221  1  0.97100000  0.66530000  0.71234000  1.0 -0.2096619515
C  C222  1  0.02900000  0.66530000  0.28766000  1.0 -0.2096619515
C  C223  1  0.52900000  0.33470000  0.21234000  1.0 -0.2096619515
C  C224  1  0.47100000  0.33470000  0.78766000  1.0 -0.2096619515
C  C225  1  0.95390000  0.67410000  0.75156000  1.0 -0.0323600077
C  C226  1  0.04610000  0.67410000  0.24844000  1.0 -0.0323600077
C  C227  1  0.54610000  0.32590000  0.25156000  1.0 -0.0323600077
C  C228  1  0.45390000  0.32590000  0.74844000  1.0 -0.0323600077
C  C229  1  0.87600000  0.66640000  0.76480000  1.0 0.2299313469
C  C230  1  0.12400000  0.66640000  0.23520000  1.0 0.2299313469
C  C231  1  0.62400000  0.33360000  0.26480000  1.0 0.2299313469
C  C232  1  0.37600000  0.33360000  0.73520000  1.0 0.2299313469
C  C233  1  0.02500000  0.69140000  0.77960000  1.0 0.3019821605
C  C234  1  0.97500000  0.69140000  0.22040000  1.0 0.3019821605
C  C235  1  0.47500000  0.30860000  0.27960000  1.0 0.3019821605
C  C236  1  0.52500000  0.30860000  0.72040000  1.0 0.3019821605
C  C237  1  0.00690000  0.76220000  0.80250000  1.0 -0.4700376342
C  C238  1  0.99310000  0.76220000  0.19750000  1.0 -0.4784776458
C  C239  1  0.49310000  0.23780000  0.30250000  1.0 -0.4784776458
C  C240  1  0.50690000  0.23780000  0.69750000  1.0 -0.4784776458
C  C241  1  0.03290000  0.62930000  0.80870000  1.0 -0.4609692396
C  C242  1  0.96710000  0.62930000  0.19130000  1.0 -0.4609692396
C  C243  1  0.46710000  0.37070000  0.30870000  1.0 -0.4609692396
C  C244  1  0.53290000  0.37070000  0.69130000  1.0 -0.4609692396
C  C245  1  0.10380000  0.69980000  0.75970000  1.0 -0.4700376342
C  C246  1  0.89620000  0.69980000  0.24030000  1.0 -0.4700376342
C  C247  1  0.39620000  0.30020000  0.25970000  1.0 -0.4700376342
C  C248  1  0.60380000  0.30020000  0.74030000  1.0 -0.4700376342
C  C249  1  0.89780000  0.58250000  0.58093000  1.0 0.0806267102
C  C250  1  0.10220000  0.58250000  0.41907000  1.0 0.0806267102
C  C251  1  0.60220000  0.41750000  0.08093000  1.0 0.0806267102
C  C252  1  0.39780000  0.41750000  0.91907000  1.0 0.0806267102
C  C253  1  0.87820000  0.59650000  0.61940000  1.0 -0.1999817738
C  C254  1  0.12180000  0.59650000  0.38060000  1.0 -0.1999817738
C  C255  1  0.62180000  0.40350000  0.11940000  1.0 -0.1999817738
C  C256  1  0.37820000  0.40350000  0.88060000  1.0 -0.1999817738
C  C257  1  0.93020000  0.63580000  0.64277000  1.0 0.1198805901
C  C258  1  0.06980000  0.63580000  0.35723000  1.0 0.1198805901
C  C259  1  0.56980000  0.36420000  0.14277000  1.0 0.1198805901
C  C260  1  0.43020000  0.36420000  0.85723000  1.0 0.1198805901
C  C261  1  0.00180000  0.66110000  0.62760000  1.0 -0.1896156745
C  C262  1  0.99820000  0.66110000  0.37240000  1.0 -0.1896156745
C  C263  1  0.49820000  0.33890000  0.12760000  1.0 -0.1896156745
C  C264  1  0.50180000  0.33890000  0.87240000  1.0 -0.1896156745
C  C265  1  0.02140000  0.64720000  0.58910000  1.0 0.101079107
C  C266  1  0.97860000  0.64720000  0.41090000  1.0 0.101079107
C  C267  1  0.47860000  0.35280000  0.08910000  1.0 0.101079107
C  C268  1  0.52140000  0.35280000  0.91090000  1.0 0.101079107
C  C269  1  0.49630000  0.79500000  0.85630000  1.0 -0.1896156745
C  C270  1  0.50370000  0.79500000  0.14370000  1.0 -0.1896156745
C  C271  1  0.00370000  0.20500000  0.35630000  1.0 -0.1896156745
C  C272  1  0.99630000  0.20500000  0.64370000  1.0 -0.1896156745
C  C273  1  0.86550000  0.70800000  0.91100000  1.0 -0.2096619515
C  C274  1  0.13450000  0.70800000  0.08900000  1.0 -0.2096619515
C  C275  1  0.63450000  0.29200000  0.41100000  1.0 -0.2096619515
C  C276  1  0.36550000  0.29200000  0.58900000  1.0 -0.2096619515
C  C277  1  0.67040000  0.61670000  0.90480000  1.0 -0.1207780653
C  C278  1  0.32960000  0.61670000  0.09520000  1.0 -0.1207780653
C  C279  1  0.82960000  0.38330000  0.40480000  1.0 -0.1207780653
C  C280  1  0.17040000  0.38330000  0.59520000  1.0 -0.1207780653
Br  Br1  1  0.50000000  0.55057000  0.00000000  1.0 -0.5568214023
Br  Br2  1  0.00000000  0.44943000  0.50000000  1.0 -0.5568214023
N  N1  1  0.72100000  0.86290000  0.87400000  1.0 -0.4002843463
N  N2  1  0.27900000  0.86290000  0.12600000  1.0 -0.4002843463
N  N3  1  0.77900000  0.13710000  0.37400000  1.0 -0.4002843463
N  N4  1  0.22100000  0.13710000  0.62600000  1.0 -0.4002843463
N  N5  1  0.76110000  0.88830000  0.79660000  1.0 -0.3702141085
N  N6  1  0.23890000  0.88830000  0.20340000  1.0 -0.3702141085
N  N7  1  0.73890000  0.11170000  0.29660000  1.0 -0.3702141085
N  N8  1  0.26110000  0.11170000  0.70340000  1.0 -0.3702141085
N  N9  1  0.65930000  0.63850000  0.86320000  1.0 -0.4002843463
N  N10  1  0.34070000  0.63850000  0.13680000  1.0 -0.4002843463
N  N11  1  0.84070000  0.36150000  0.36320000  1.0 -0.4002843463
N  N12  1  0.15930000  0.36150000  0.63680000  1.0 -0.4002843463
N  N13  1  0.71770000  0.60990000  0.78940000  1.0 -0.3786701226
N  N14  1  0.28230000  0.60990000  0.21060000  1.0 -0.3786701226
N  N15  1  0.78230000  0.39010000  0.28940000  1.0 -0.3786701226
N  N16  1  0.21770000  0.39010000  0.71060000  1.0 -0.3786701226
N  N17  1  0.82770000  0.76640000  0.55260000  1.0 -0.2897582242
N  N18  1  0.17230000  0.76640000  0.44740000  1.0 -0.2897582242
N  N19  1  0.67230000  0.23360000  0.05260000  1.0 -0.2897582242
N  N20  1  0.32770000  0.23360000  0.94740000  1.0 -0.2897582242
N  N21  1  0.96940000  0.60790000  0.56578000  1.0 -0.2452254111
N  N22  1  0.03060000  0.60790000  0.43422000  1.0 -0.2447936946
N  N23  1  0.53060000  0.39210000  0.06578000  1.0 -0.2447936946
N  N24  1  0.46940000  0.39210000  0.93422000  1.0 -0.2447936946
O  O1  1  0.58010000  0.20150000  0.93540000  1.0 -0.4973427141
O  O2  1  0.41990000  0.20150000  0.06460000  1.0 -0.4973427141
O  O3  1  0.91990000  0.79850000  0.43540000  1.0 -0.4973427141
O  O4  1  0.08010000  0.79850000  0.56460000  1.0 -0.4973427141
O  O5  1  0.63990000  0.13170000  0.97540000  1.0 -0.5058200324
O  O6  1  0.36010000  0.13170000  0.02460000  1.0 -0.4973427141
O  O7  1  0.86010000  0.86830000  0.47540000  1.0 -0.5058200324
O  O8  1  0.13990000  0.86830000  0.52460000  1.0 -0.5058200324
O  O9  1  0.60000000  0.92010000  0.83270000  1.0 -0.6182229781
O  O10  1  0.40000000  0.92010000  0.16730000  1.0 -0.6182229781
O  O11  1  0.90000000  0.07990000  0.33270000  1.0 -0.6182229781
O  O12  1  0.10000000  0.07990000  0.66730000  1.0 -0.6182229781
O  O13  1  0.62050000  0.83130000  0.77070000  1.0 -0.5918711388
O  O14  1  0.37950000  0.83130000  0.22930000  1.0 -0.5918711388
O  O15  1  0.87950000  0.16870000  0.27070000  1.0 -0.5918711388
O  O16  1  0.12050000  0.16870000  0.72930000  1.0 -0.5918711388
O  O17  1  0.57350000  0.77680000  0.84710000  1.0 -0.5166657531
O  O18  1  0.42650000  0.77680000  0.15290000  1.0 -0.5166657531
O  O19  1  0.92650000  0.22320000  0.34710000  1.0 -0.5166657531
O  O20  1  0.07350000  0.22320000  0.65290000  1.0 -0.5166657531
O  O21  1  0.71810000  0.75020000  0.82104000  1.0 -1.0127904081
O  O22  1  0.28190000  0.75020000  0.17896000  1.0 -1.0127904081
O  O23  1  0.78190000  0.24980000  0.32104000  1.0 -1.0127904081
O  O24  1  0.21810000  0.24980000  0.67896000  1.0 -1.0127904081
O  O25  1  0.63240000  0.38350000  0.98710000  1.0 -0.5542639309
O  O26  1  0.36760000  0.38350000  0.01290000  1.0 -0.5542639309
O  O27  1  0.86760000  0.61650000  0.48710000  1.0 -0.5542639309
O  O28  1  0.13240000  0.61650000  0.51290000  1.0 -0.5542639309
O  O29  1  0.72520000  0.30730000  0.96570000  1.0 -0.5367194378
O  O30  1  0.27480000  0.30730000  0.03430000  1.0 -0.5367194378
O  O31  1  0.77480000  0.69270000  0.46570000  1.0 -0.5367194378
O  O32  1  0.22520000  0.69270000  0.53430000  1.0 -0.5367194378
O  O33  1  0.50000000  0.28180000  0.00000000  1.0 -0.7615010703
O  O34  1  0.00000000  0.71820000  0.50000000  1.0 -0.7615010703
O  O35  1  0.80770000  0.58160000  0.86190000  1.0 -0.600411933
O  O36  1  0.19230000  0.58160000  0.13810000  1.0 -0.600411933
O  O37  1  0.69230000  0.41840000  0.36190000  1.0 -0.600411933
O  O38  1  0.30770000  0.41840000  0.63810000  1.0 -0.600411933
O  O39  1  0.86030000  0.67640000  0.80307000  1.0 -0.6182229781
O  O40  1  0.13970000  0.67640000  0.19693000  1.0 -0.6182229781
O  O41  1  0.63970000  0.32360000  0.30307000  1.0 -0.6182229781
O  O42  1  0.36030000  0.32360000  0.69693000  1.0 -0.6182229781
O  O43  1  0.81080000  0.72580000  0.88070000  1.0 -0.5330597126
O  O44  1  0.18920000  0.72580000  0.11930000  1.0 -0.5330597126
O  O45  1  0.68920000  0.27420000  0.38070000  1.0 -0.5330597126
O  O46  1  0.31080000  0.27420000  0.61930000  1.0 -0.5330597126
