# DDEC6 charges by PACMAN v1.1 (https://github.com/mtap-research/PACMAN-charge/)
data_BIJFIM_ASR_pacman
_symmetry_space_group_name_H-M   'P 1'
_cell_length_a   15.18700000
_cell_length_b   19.47100000
_cell_length_c   19.56900000
_cell_angle_alpha   68.42200000
_cell_angle_beta   84.74100000
_cell_angle_gamma   79.43900000
_symmetry_Int_Tables_number   1
_chemical_formula_structural   Sm4Co2H49C96S10N11O30
_chemical_formula_sum   'Sm8 Co4 H98 C192 S20 N22 O60'
_cell_volume   5288.11279774
_cell_formula_units_Z   2
loop_
 _symmetry_equiv_pos_site_id
 _symmetry_equiv_pos_as_xyz
  1  'x, y, z'
loop_
 _atom_site_type_symbol
 _atom_site_label
 _atom_site_symmetry_multiplicity
 _atom_site_fract_x
 _atom_site_fract_y
 _atom_site_fract_z
 _atom_site_occupancy
 _atom_site_charge
Sm  Sm1  1  0.44324000  0.94972000  0.42142000  1.0 1.1968268231
Sm  Sm2  1  0.91305000  0.43640000  0.41644000  1.0 1.1805977301
Sm  Sm3  1  0.41590000  0.94180000  0.41283000  1.0 1.3908105568
Sm  Sm4  1  0.94990000  0.45053000  0.41905000  1.0 0.7717615441
Sm  Sm5  1  0.55676000  0.05028000  0.57858000  1.0 1.1968268231
Sm  Sm6  1  0.08695000  0.56360000  0.58356000  1.0 1.1805977301
Sm  Sm7  1  0.58410000  0.05820000  0.58717000  1.0 1.3908105568
Sm  Sm8  1  0.05010000  0.54947000  0.58095000  1.0 0.7717615441
Co  Co1  1  0.61599000  0.39601000  0.92011000  1.0 0.6280457602
Co  Co2  1  0.11167000  0.90597000  0.92065000  1.0 0.6280457602
Co  Co3  1  0.38401000  0.60399000  0.07989000  1.0 0.6280457602
Co  Co4  1  0.88833000  0.09403000  0.07935000  1.0 0.6280457602
H  H1  1  0.25050000  0.88030000  0.45050000  1.0 0.4336052761
H  H2  1  0.14730000  0.14950000  0.47050000  1.0 0.2894058601
H  H3  1  0.17290000  0.07580000  0.46100000  1.0 0.3064302282
H  H4  1  0.58170000  0.12640000  0.97370000  1.0 0.1390510937
H  H5  1  0.56800000  0.18660000  0.83820000  1.0 0.1489884581
H  H6  1  0.57940000  0.45740000  0.64810000  1.0 0.1489884581
H  H7  1  0.56290000  0.57860000  0.65910000  1.0 0.1489884581
H  H8  1  0.56450000  0.66930000  0.88730000  1.0 0.1390510937
H  H9  1  0.62080000  0.61010000  0.00640000  1.0 0.1390510937
H  H10  1  0.71740000  0.32640000  0.18220000  1.0 0.1307923308
H  H11  1  0.68680000  0.20890000  0.17830000  1.0 0.1390510937
H  H12  1  0.82460000  0.44880000  0.10450000  1.0 0.1209223457
H  H13  1  0.85830000  0.48420000  0.19840000  1.0 0.1585316138
H  H14  1  0.60350000  0.56970000  0.21610000  1.0 0.1307923308
H  H15  1  0.56570000  0.52310000  0.13500000  1.0 0.1209223457
H  H16  1  0.51140000  0.18020000  0.15260000  1.0 0.1209223457
H  H17  1  0.48060000  0.06070000  0.23420000  1.0 0.1307923308
H  H18  1  0.70620000  0.96930000  0.15240000  1.0 0.1390510937
H  H19  1  0.72300000  0.08360000  0.06810000  1.0 0.1109815539
H  H20  1  0.71780000  0.29840000  0.69400000  1.0 0.1209223457
H  H21  1  0.70280000  0.26420000  0.59250000  1.0 0.1390510937
H  H22  1  0.44020000  0.28190000  0.62720000  1.0 0.1489884581
H  H23  1  0.45550000  0.30690000  0.73110000  1.0 0.1390510937
H  H24  1  0.42150000  0.63830000  0.73130000  1.0 0.1209223457
H  H25  1  0.36950000  0.76200000  0.66360000  1.0 0.1489884581
H  H26  1  0.07880000  0.18240000  0.87940000  1.0 0.1390510937
H  H27  1  0.13300000  0.12250000  0.00200000  1.0 0.1307923308
H  H28  1  0.20770000  0.83930000  0.18360000  1.0 0.1307923308
H  H29  1  0.18420000  0.72170000  0.17920000  1.0 0.1390510937
H  H30  1  0.06670000  0.63860000  0.97550000  1.0 0.1390510937
H  H31  1  0.06890000  0.69350000  0.84300000  1.0 0.1489884581
H  H32  1  0.07160000  0.96520000  0.65020000  1.0 0.1489884581
H  H33  1  0.05450000  0.08850000  0.65810000  1.0 0.1489884581
H  H34  1  0.93080000  0.16320000  0.72540000  1.0 0.1390510937
H  H35  1  0.06680000  0.04050000  0.12890000  1.0 0.1109815539
H  H36  1  0.10970000  0.08590000  0.21530000  1.0 0.1307923308
H  H37  1  0.35620000  0.97770000  0.21200000  1.0 0.1390510937
H  H38  1  0.32140000  0.94160000  0.11680000  1.0 0.1209223457
H  H39  1  0.21210000  0.59620000  0.06360000  1.0 0.1109815539
H  H40  1  0.20610000  0.47970000  0.15210000  1.0 0.1307923308
H  H41  1  0.98920000  0.56870000  0.24510000  1.0 0.1307923308
H  H42  1  0.01540000  0.68540000  0.16430000  1.0 0.1307923308
H  H43  1  0.20880000  0.83280000  0.68080000  1.0 0.1307923308
H  H44  1  0.20190000  0.80080000  0.58010000  1.0 0.1390510937
H  H45  1  0.94270000  0.77110000  0.63380000  1.0 0.1307923308
H  H46  1  0.95550000  0.80100000  0.73730000  1.0 0.1307923308
H  H47  1  0.23390000  0.03470000  0.58010000  1.0 0.1109815539
H  H48  1  0.19530000  0.14990000  0.60950000  1.0 0.1307923308
H  H49  1  0.30010000  0.13280000  0.60820000  1.0 0.1489884581
H  H50  1  0.74950000  0.11970000  0.54950000  1.0 0.4336052761
H  H51  1  0.85270000  0.85050000  0.52950000  1.0 0.2894058601
H  H52  1  0.82710000  0.92420000  0.53900000  1.0 0.3064302282
H  H53  1  0.41830000  0.87360000  0.02630000  1.0 0.1390510937
H  H54  1  0.43200000  0.81340000  0.16180000  1.0 0.1489884581
H  H55  1  0.42060000  0.54260000  0.35190000  1.0 0.1489884581
H  H56  1  0.43710000  0.42140000  0.34090000  1.0 0.1489884581
H  H57  1  0.43550000  0.33070000  0.11270000  1.0 0.1390510937
H  H58  1  0.37920000  0.38990000  0.99360000  1.0 0.1390510937
H  H59  1  0.28260000  0.67360000  0.81780000  1.0 0.1307923308
H  H60  1  0.31320000  0.79110000  0.82170000  1.0 0.1390510937
H  H61  1  0.17540000  0.55120000  0.89550000  1.0 0.1209223457
H  H62  1  0.14170000  0.51580000  0.80160000  1.0 0.1585316138
H  H63  1  0.39650000  0.43030000  0.78390000  1.0 0.1307923308
H  H64  1  0.43430000  0.47690000  0.86500000  1.0 0.1209223457
H  H65  1  0.48860000  0.81980000  0.84740000  1.0 0.1209223457
H  H66  1  0.51940000  0.93930000  0.76580000  1.0 0.1307923308
H  H67  1  0.29380000  0.03070000  0.84760000  1.0 0.1390510937
H  H68  1  0.27700000  0.91640000  0.93190000  1.0 0.1109815539
H  H69  1  0.28220000  0.70160000  0.30600000  1.0 0.1209223457
H  H70  1  0.29720000  0.73580000  0.40750000  1.0 0.1390510937
H  H71  1  0.55980000  0.71810000  0.37280000  1.0 0.1489884581
H  H72  1  0.54450000  0.69310000  0.26890000  1.0 0.1390510937
H  H73  1  0.57850000  0.36170000  0.26870000  1.0 0.1209223457
H  H74  1  0.63050000  0.23800000  0.33640000  1.0 0.1489884581
H  H75  1  0.92120000  0.81760000  0.12060000  1.0 0.1390510937
H  H76  1  0.86700000  0.87750000  0.99800000  1.0 0.1307923308
H  H77  1  0.79230000  0.16070000  0.81640000  1.0 0.1307923308
H  H78  1  0.81580000  0.27830000  0.82080000  1.0 0.1390510937
H  H79  1  0.93330000  0.36140000  0.02450000  1.0 0.1390510937
H  H80  1  0.93110000  0.30650000  0.15700000  1.0 0.1489884581
H  H81  1  0.92840000  0.03480000  0.34980000  1.0 0.1489884581
H  H82  1  0.94550000  0.91150000  0.34190000  1.0 0.1489884581
H  H83  1  0.06920000  0.83680000  0.27460000  1.0 0.1390510937
H  H84  1  0.93320000  0.95950000  0.87110000  1.0 0.1109815539
H  H85  1  0.89030000  0.91410000  0.78470000  1.0 0.1307923308
H  H86  1  0.64380000  0.02230000  0.78800000  1.0 0.1390510937
H  H87  1  0.67860000  0.05840000  0.88320000  1.0 0.1209223457
H  H88  1  0.78790000  0.40380000  0.93640000  1.0 0.1109815539
H  H89  1  0.79390000  0.52030000  0.84790000  1.0 0.1307923308
H  H90  1  0.01080000  0.43130000  0.75490000  1.0 0.1307923308
H  H91  1  0.98460000  0.31460000  0.83570000  1.0 0.1307923308
H  H92  1  0.79120000  0.16720000  0.31920000  1.0 0.1307923308
H  H93  1  0.79810000  0.19920000  0.41990000  1.0 0.1390510937
H  H94  1  0.05730000  0.22890000  0.36620000  1.0 0.1307923308
H  H95  1  0.04450000  0.19900000  0.26270000  1.0 0.1307923308
H  H96  1  0.76610000  0.96530000  0.41990000  1.0 0.1109815539
H  H97  1  0.80470000  0.85010000  0.39050000  1.0 0.1307923308
H  H98  1  0.69990000  0.86720000  0.39180000  1.0 0.1489884581
C  C1  1  0.62200000  0.21870000  0.04260000  1.0 -0.087321137
C  C2  1  0.60350000  0.23300000  0.97150000  1.0 0.1894708128
C  C3  1  0.58670000  0.17580000  0.94520000  1.0 -0.1691141202
C  C4  1  0.57970000  0.20900000  0.87030000  1.0 -0.1615619714
C  C5  1  0.59410000  0.28610000  0.85060000  1.0 0.1999196634
C  C6  1  0.59550000  0.33430000  0.78200000  1.0 -0.087321137
C  C7  1  0.59530000  0.40980000  0.76450000  1.0 0.1894708128
C  C8  1  0.58140000  0.46630000  0.69140000  1.0 -0.1491056531
C  C9  1  0.57200000  0.53260000  0.69770000  1.0 -0.1304955082
C  C10  1  0.57840000  0.52180000  0.77530000  1.0 0.1894708128
C  C11  1  0.57070000  0.57820000  0.80630000  1.0 -0.0599387538
C  C12  1  0.58680000  0.56330000  0.87780000  1.0 0.1742703394
C  C13  1  0.58450000  0.61830000  0.90990000  1.0 -0.1491056531
C  C14  1  0.61390000  0.58650000  0.97410000  1.0 -0.1691141202
C  C15  1  0.63470000  0.50840000  0.98850000  1.0 0.1785817073
C  C16  1  0.66590000  0.45310000  0.05570000  1.0 -0.0800488814
C  C17  1  0.67150000  0.37830000  0.07020000  1.0 0.1785817073
C  C18  1  0.69530000  0.31980000  0.14270000  1.0 -0.1304955082
C  C19  1  0.67880000  0.25510000  0.14000000  1.0 -0.1491056531
C  C20  1  0.64570000  0.26950000  0.06650000  1.0 0.1894708128
C  C21  1  0.68760000  0.47910000  0.11210000  1.0 0.0801951421
C  C22  1  0.77930000  0.47040000  0.12920000  1.0 -0.1304955082
C  C23  1  0.79950000  0.49460000  0.18320000  1.0 -0.0679640136
C  C24  1  0.73780000  0.53210000  0.21360000  1.0 -0.087321137
C  C25  1  0.64760000  0.54340000  0.19480000  1.0 -0.1001367132
C  C26  1  0.62570000  0.51620000  0.14600000  1.0 -0.1214767006
C  C27  1  0.61610000  0.14290000  0.09930000  1.0 0.0801951421
C  C28  1  0.54780000  0.13690000  0.15070000  1.0 -0.1304955082
C  C29  1  0.53050000  0.06490000  0.20250000  1.0 -0.0599387538
C  C30  1  0.59020000  0.00430000  0.20230000  1.0 -0.0800488814
C  C31  1  0.66490000  0.01130000  0.15130000  1.0 -0.0800488814
C  C32  1  0.67490000  0.07950000  0.10170000  1.0 -0.1402290281
C  C33  1  0.58770000  0.30910000  0.71940000  1.0 0.0801951421
C  C34  1  0.66170000  0.29540000  0.68080000  1.0 -0.1491056531
C  C35  1  0.65160000  0.27590000  0.61870000  1.0 -0.0599387538
C  C36  1  0.57180000  0.27370000  0.59630000  1.0 -0.1001367132
C  C37  1  0.49640000  0.28520000  0.63980000  1.0 -0.0445261299
C  C38  1  0.50550000  0.30120000  0.70130000  1.0 -0.1102510928
C  C39  1  0.54270000  0.65740000  0.75510000  1.0 0.0426417664
C  C40  1  0.45620000  0.67520000  0.72430000  1.0 -0.1214767006
C  C41  1  0.42600000  0.74890000  0.68380000  1.0 -0.1001367132
C  C42  1  0.47440000  0.80090000  0.67290000  1.0 -0.1001367132
C  C43  1  0.55900000  0.78470000  0.69820000  1.0 0.0735131503
C  C44  1  0.59510000  0.71070000  0.74050000  1.0 -0.0183117892
C  C45  1  0.07510000  0.08740000  0.80050000  1.0 -0.0679640136
C  C46  1  0.09350000  0.07510000  0.87240000  1.0 0.1894708128
C  C47  1  0.09500000  0.13110000  0.90340000  1.0 -0.1615619714
C  C48  1  0.12300000  0.09860000  0.97080000  1.0 -0.1691141202
C  C49  1  0.13510000  0.02040000  0.98750000  1.0 0.1785817073
C  C50  1  0.16240000  0.96570000  0.05450000  1.0 -0.0800488814
C  C51  1  0.16480000  0.88860000  0.07110000  1.0 0.1894708128
C  C52  1  0.18760000  0.83170000  0.14380000  1.0 -0.1491056531
C  C53  1  0.17370000  0.76790000  0.14120000  1.0 -0.1615619714
C  C54  1  0.13860000  0.78150000  0.06780000  1.0 0.1894708128
C  C55  1  0.11400000  0.72780000  0.04670000  1.0 -0.0800488814
C  C56  1  0.09700000  0.74110000  0.97580000  1.0 0.1785817073
C  C57  1  0.07710000  0.68670000  0.94750000  1.0 -0.1402290281
C  C58  1  0.07630000  0.71770000  0.87470000  1.0 -0.1691141202
C  C59  1  0.08890000  0.79560000  0.85190000  1.0 0.2088263408
C  C60  1  0.09030000  0.84570000  0.78180000  1.0 -0.1001367132
C  C61  1  0.08900000  0.91850000  0.76500000  1.0 0.1999196634
C  C62  1  0.07460000  0.97480000  0.69300000  1.0 -0.1615619714
C  C63  1  0.06600000  0.04290000  0.69680000  1.0 -0.1214767006
C  C64  1  0.07810000  0.03200000  0.77290000  1.0 0.1785817073
C  C65  1  0.05350000  0.16750000  0.74600000  1.0 0.0426417664
C  C66  1  0.11860000  0.21460000  0.72840000  1.0 0.0009761599
C  C67  1  0.09910000  0.28880000  0.67570000  1.0 0.0864599721
C  C68  1  0.01790000  0.30670000  0.64500000  1.0 -0.0502438284
C  C69  1  0.94970000  0.26450000  0.66150000  1.0 -0.0116978287
C  C70  1  0.97340000  0.19490000  0.71240000  1.0 -0.1102510928
C  C71  1  0.18930000  0.98900000  0.11050000  1.0 0.0801951421
C  C72  1  0.12630000  0.02980000  0.14250000  1.0 -0.1304955082
C  C73  1  0.15220000  0.05590000  0.19680000  1.0 -0.087321137
C  C74  1  0.23730000  0.03750000  0.22120000  1.0 -0.1001367132
C  C75  1  0.29880000  0.99300000  0.19340000  1.0 -0.0679640136
C  C76  1  0.27740000  0.96960000  0.13650000  1.0 -0.1214767006
C  C77  1  0.11180000  0.65190000  0.10230000  1.0 0.0801951421
C  C78  1  0.16850000  0.59110000  0.10090000  1.0 -0.1402290281
C  C79  1  0.16440000  0.52060000  0.15350000  1.0 -0.0800488814
C  C80  1  0.09740000  0.51150000  0.20820000  1.0 -0.0800488814
C  C81  1  0.03650000  0.57340000  0.21080000  1.0 -0.0800488814
C  C82  1  0.05020000  0.64270000  0.15950000  1.0 -0.1304955082
C  C83  1  0.08530000  0.81890000  0.72020000  1.0 0.0801951421
C  C84  1  0.15610000  0.81980000  0.67210000  1.0 -0.1491056531
C  C85  1  0.15170000  0.80190000  0.61100000  1.0 -0.0800488814
C  C86  1  0.07330000  0.78540000  0.59510000  1.0 -0.0502438284
C  C87  1  0.99550000  0.78340000  0.64320000  1.0 -0.0599387538
C  C88  1  0.00430000  0.80100000  0.70490000  1.0 -0.1214767006
C  C89  1  0.35250000  0.07190000  0.50590000  1.0 0.5696532206
C  C90  1  0.24500000  0.08160000  0.54150000  1.0 0.0317581446
C  C91  1  0.24790000  0.14770000  0.57780000  1.0 -0.25997781
C  C92  1  0.25090000  0.22060000  0.52470000  1.0 0.1390510937
C  C93  1  0.18400000  0.27390000  0.49800000  1.0 0.103039235
C  C94  1  0.30850000  0.31000000  0.45290000  1.0 0.2894058601
C  C95  1  0.63700000  0.81600000  0.65000000  1.0 0.1894708128
C  C96  1  0.97930000  0.29520000  0.67710000  1.0 0.0235103407
C  C97  1  0.37800000  0.78130000  0.95740000  1.0 -0.087321137
C  C98  1  0.39650000  0.76700000  0.02850000  1.0 0.1894708128
C  C99  1  0.41330000  0.82420000  0.05480000  1.0 -0.1691141202
C  C100  1  0.42030000  0.79100000  0.12970000  1.0 -0.1615619714
C  C101  1  0.40590000  0.71390000  0.14940000  1.0 0.1999196634
C  C102  1  0.40450000  0.66570000  0.21800000  1.0 -0.087321137
C  C103  1  0.40470000  0.59020000  0.23550000  1.0 0.1894708128
C  C104  1  0.41860000  0.53370000  0.30860000  1.0 -0.1491056531
C  C105  1  0.42800000  0.46740000  0.30230000  1.0 -0.1402290281
C  C106  1  0.42160000  0.47820000  0.22470000  1.0 0.1894708128
C  C107  1  0.42930000  0.42180000  0.19370000  1.0 -0.0599387538
C  C108  1  0.41320000  0.43670000  0.12220000  1.0 0.1742703394
C  C109  1  0.41550000  0.38170000  0.09010000  1.0 -0.1491056531
C  C110  1  0.38610000  0.41350000  0.02590000  1.0 -0.1691141202
C  C111  1  0.36530000  0.49160000  0.01150000  1.0 0.1785817073
C  C112  1  0.33410000  0.54690000  0.94430000  1.0 -0.0800488814
C  C113  1  0.32850000  0.62170000  0.92980000  1.0 0.1785817073
C  C114  1  0.30470000  0.68020000  0.85730000  1.0 -0.1304955082
C  C115  1  0.32120000  0.74490000  0.86000000  1.0 -0.1491056531
C  C116  1  0.35430000  0.73050000  0.93350000  1.0 0.1894708128
C  C117  1  0.31240000  0.52090000  0.88790000  1.0 0.0801951421
C  C118  1  0.22070000  0.52960000  0.87080000  1.0 -0.1304955082
C  C119  1  0.20050000  0.50540000  0.81680000  1.0 -0.0679640136
C  C120  1  0.26220000  0.46790000  0.78640000  1.0 -0.087321137
C  C121  1  0.35240000  0.45660000  0.80520000  1.0 -0.1001367132
C  C122  1  0.37430000  0.48380000  0.85400000  1.0 -0.1214767006
C  C123  1  0.38390000  0.85710000  0.90070000  1.0 0.0801951421
C  C124  1  0.45220000  0.86310000  0.84930000  1.0 -0.1304955082
C  C125  1  0.46950000  0.93510000  0.79750000  1.0 -0.0599387538
C  C126  1  0.40980000  0.99570000  0.79770000  1.0 -0.0800488814
C  C127  1  0.33510000  0.98870000  0.84870000  1.0 -0.0800488814
C  C128  1  0.32510000  0.92050000  0.89830000  1.0 -0.1402290281
C  C129  1  0.41230000  0.69090000  0.28060000  1.0 0.0801951421
C  C130  1  0.33830000  0.70460000  0.31920000  1.0 -0.1491056531
C  C131  1  0.34840000  0.72410000  0.38130000  1.0 -0.0599387538
C  C132  1  0.42820000  0.72630000  0.40370000  1.0 -0.1001367132
C  C133  1  0.50360000  0.71480000  0.36020000  1.0 -0.0445261299
C  C134  1  0.49450000  0.69880000  0.29870000  1.0 -0.1102510928
C  C135  1  0.45730000  0.34260000  0.24490000  1.0 0.0426417664
C  C136  1  0.54380000  0.32480000  0.27570000  1.0 -0.1102510928
C  C137  1  0.57400000  0.25110000  0.31620000  1.0 -0.1001367132
C  C138  1  0.52560000  0.19910000  0.32710000  1.0 -0.1001367132
C  C139  1  0.44100000  0.21530000  0.30180000  1.0 0.0735131503
C  C140  1  0.40490000  0.28930000  0.25950000  1.0 -0.0183117892
C  C141  1  0.92490000  0.91260000  0.19950000  1.0 -0.0679640136
C  C142  1  0.90650000  0.92490000  0.12760000  1.0 0.1894708128
C  C143  1  0.90500000  0.86890000  0.09660000  1.0 -0.1615619714
C  C144  1  0.87700000  0.90140000  0.02920000  1.0 -0.1691141202
C  C145  1  0.86490000  0.97960000  0.01250000  1.0 0.1785817073
C  C146  1  0.83760000  0.03430000  0.94550000  1.0 -0.0800488814
C  C147  1  0.83520000  0.11140000  0.92890000  1.0 0.1894708128
C  C148  1  0.81240000  0.16830000  0.85620000  1.0 -0.1491056531
C  C149  1  0.82630000  0.23210000  0.85880000  1.0 -0.1615619714
C  C150  1  0.86140000  0.21850000  0.93220000  1.0 0.1894708128
C  C151  1  0.88600000  0.27220000  0.95330000  1.0 -0.0800488814
C  C152  1  0.90300000  0.25890000  0.02420000  1.0 0.1785817073
C  C153  1  0.92290000  0.31330000  0.05250000  1.0 -0.1402290281
C  C154  1  0.92370000  0.28230000  0.12530000  1.0 -0.1691141202
C  C155  1  0.91110000  0.20440000  0.14810000  1.0 0.2088263408
C  C156  1  0.90970000  0.15430000  0.21820000  1.0 -0.1001367132
C  C157  1  0.91100000  0.08150000  0.23500000  1.0 0.1999196634
C  C158  1  0.92540000  0.02520000  0.30700000  1.0 -0.1615619714
C  C159  1  0.93400000  0.95710000  0.30320000  1.0 -0.1214767006
C  C160  1  0.92190000  0.96800000  0.22710000  1.0 0.1785817073
C  C161  1  0.94650000  0.83250000  0.25400000  1.0 0.0426417664
C  C162  1  0.88140000  0.78540000  0.27160000  1.0 0.0009761599
C  C163  1  0.90090000  0.71120000  0.32430000  1.0 0.0864599721
C  C164  1  0.98210000  0.69330000  0.35500000  1.0 -0.0502438284
C  C165  1  0.05030000  0.73550000  0.33850000  1.0 -0.0116978287
C  C166  1  0.02660000  0.80510000  0.28760000  1.0 -0.1102510928
C  C167  1  0.81070000  0.01100000  0.88950000  1.0 0.0801951421
C  C168  1  0.87370000  0.97020000  0.85750000  1.0 -0.1304955082
C  C169  1  0.84780000  0.94410000  0.80320000  1.0 -0.087321137
C  C170  1  0.76270000  0.96250000  0.77880000  1.0 -0.1001367132
C  C171  1  0.70120000  0.00700000  0.80660000  1.0 -0.0679640136
C  C172  1  0.72260000  0.03040000  0.86350000  1.0 -0.1214767006
C  C173  1  0.88820000  0.34810000  0.89770000  1.0 0.0801951421
C  C174  1  0.83150000  0.40890000  0.89910000  1.0 -0.1402290281
C  C175  1  0.83560000  0.47940000  0.84650000  1.0 -0.0800488814
C  C176  1  0.90260000  0.48850000  0.79180000  1.0 -0.0800488814
C  C177  1  0.96350000  0.42660000  0.78920000  1.0 -0.0800488814
C  C178  1  0.94980000  0.35730000  0.84050000  1.0 -0.1304955082
C  C179  1  0.91470000  0.18110000  0.27980000  1.0 0.0801951421
C  C180  1  0.84390000  0.18020000  0.32790000  1.0 -0.1491056531
C  C181  1  0.84830000  0.19810000  0.38900000  1.0 -0.0800488814
C  C182  1  0.92670000  0.21460000  0.40490000  1.0 -0.0502438284
C  C183  1  0.00450000  0.21660000  0.35680000  1.0 -0.0599387538
C  C184  1  0.99570000  0.19900000  0.29510000  1.0 -0.1214767006
C  C185  1  0.64750000  0.92810000  0.49410000  1.0 0.5696532206
C  C186  1  0.75500000  0.91840000  0.45850000  1.0 0.0317581446
C  C187  1  0.75210000  0.85230000  0.42220000  1.0 -0.25997781
C  C188  1  0.74910000  0.77940000  0.47530000  1.0 0.1390510937
C  C189  1  0.81600000  0.72610000  0.50200000  1.0 0.103039235
C  C190  1  0.69150000  0.69000000  0.54710000  1.0 0.2894058601
C  C191  1  0.36300000  0.18400000  0.35000000  1.0 0.1894708128
C  C192  1  0.02070000  0.70480000  0.32290000  1.0 0.0235103407
S  S1  1  0.76620000  0.57457000  0.27321000  1.0 1.1927248315
S  S2  1  0.56722000  0.91394000  0.25760000  1.0 1.2100566105
S  S3  1  0.55988000  0.25928000  0.51420000  1.0 1.2100566105
S  S4  1  0.42623000  0.89608000  0.62557000  1.0 0.9034547583
S  S5  1  0.26422000  0.06970000  0.28683000  1.0 1.2200085596
S  S6  1  0.08149000  0.42197000  0.26911000  1.0 1.2100566105
S  S7  1  0.06049000  0.77026000  0.51166000  1.0 1.1805977301
S  S8  1  0.99770000  0.40322000  0.57489000  1.0 0.3924574182
S  S9  1  0.50770000  0.90920000  0.56940000  1.0 0.2088263408
S  S10  1  0.92360000  0.40060000  0.62450000  1.0 0.3575973884
S  S11  1  0.23380000  0.42543000  0.72679000  1.0 1.1927248315
S  S12  1  0.43278000  0.08606000  0.74240000  1.0 1.2100566105
S  S13  1  0.44012000  0.74072000  0.48580000  1.0 1.2100566105
S  S14  1  0.57377000  0.10392000  0.37443000  1.0 0.9034547583
S  S15  1  0.73578000  0.93030000  0.71317000  1.0 1.2200085596
S  S16  1  0.91851000  0.57803000  0.73089000  1.0 1.2100566105
S  S17  1  0.93951000  0.22974000  0.48834000  1.0 1.1805977301
S  S18  1  0.00230000  0.59678000  0.42511000  1.0 0.3924574182
S  S19  1  0.49230000  0.09080000  0.43060000  1.0 0.2088263408
S  S20  1  0.07640000  0.59940000  0.37550000  1.0 0.3575973884
N  N1  1  0.64540000  0.34620000  0.02370000  1.0 -0.3718753829
N  N2  1  0.60700000  0.29980000  0.91240000  1.0 -0.3589046472
N  N3  1  0.59470000  0.44390000  0.81470000  1.0 -0.3789862319
N  N4  1  0.61420000  0.49400000  0.92780000  1.0 -0.3589046472
N  N5  1  0.09170000  0.95330000  0.81530000  1.0 -0.3718753829
N  N6  1  0.11460000  0.00500000  0.92770000  1.0 -0.3789862319
N  N7  1  0.14020000  0.85760000  0.02510000  1.0 -0.3589046472
N  N8  1  0.10160000  0.81010000  0.91470000  1.0 -0.38898734
N  N9  1  0.17930000  0.10570000  0.48280000  1.0 -0.5135245248
N  N10  1  0.21670000  0.32920000  0.45230000  1.0 -0.1001367132
N  N11  1  0.32750000  0.23490000  0.49900000  1.0 -0.2142021283
N  N12  1  0.35460000  0.65380000  0.97630000  1.0 -0.3718753829
N  N13  1  0.39300000  0.70020000  0.08760000  1.0 -0.3589046472
N  N14  1  0.40530000  0.55610000  0.18530000  1.0 -0.3789862319
N  N15  1  0.38580000  0.50600000  0.07220000  1.0 -0.3589046472
N  N16  1  0.90830000  0.04670000  0.18470000  1.0 -0.3718753829
N  N17  1  0.88540000  0.99500000  0.07230000  1.0 -0.3789862319
N  N18  1  0.85980000  0.14240000  0.97490000  1.0 -0.3589046472
N  N19  1  0.89840000  0.18990000  0.08530000  1.0 -0.38898734
N  N20  1  0.82070000  0.89430000  0.51720000  1.0 -0.5135245248
N  N21  1  0.78330000  0.67080000  0.54770000  1.0 -0.1001367132
N  N22  1  0.67250000  0.76510000  0.50100000  1.0 -0.2142021283
O  O1  1  0.69580000  0.58380000  0.31930000  1.0 -0.4812897741
O  O2  1  0.84430000  0.52730000  0.31190000  1.0 -0.6266783996
O  O3  1  0.80180000  0.64300000  0.22540000  1.0 -0.5396923347
O  O4  1  0.51950000  0.92450000  0.32100000  1.0 -0.7733432873
O  O5  1  0.65270000  0.86610000  0.27650000  1.0 -0.558467172
O  O6  1  0.50850000  0.89460000  0.21530000  1.0 -0.5873581692
O  O7  1  0.51950000  0.19190000  0.53580000  1.0 -0.7273726984
O  O8  1  0.64860000  0.24990000  0.48080000  1.0 -0.5225911661
O  O9  1  0.49860000  0.32430000  0.46910000  1.0 -0.5736502929
O  O10  1  0.42150000  0.90260000  0.55120000  1.0 -0.4531968756
O  O11  1  0.49360000  0.94190000  0.63250000  1.0 -0.4862910434
O  O12  1  0.34160000  0.91090000  0.65800000  1.0 -0.4625689312
O  O13  1  0.19260000  0.06060000  0.34430000  1.0 -0.558467172
O  O14  1  0.27330000  0.14410000  0.25210000  1.0 -0.4812897741
O  O15  1  0.34710000  0.02400000  0.31720000  1.0 -0.7535599991
O  O16  1  0.02130000  0.39910000  0.22990000  1.0 -0.5491611286
O  O17  1  0.16760000  0.37420000  0.28110000  1.0 -0.558467172
O  O18  1  0.04100000  0.43200000  0.33690000  1.0 -0.7214565798
O  O19  1  0.03230000  0.69730000  0.53520000  1.0 -0.6525623127
O  O20  1  0.98870000  0.82900000  0.46900000  1.0 -0.5873581692
O  O21  1  0.14470000  0.77250000  0.47340000  1.0 -0.4862910434
O  O22  1  0.90550000  0.40950000  0.56020000  1.0 -0.3718753829
O  O23  1  0.05950000  0.41020000  0.49710000  1.0 -0.6161165162
O  O24  1  0.02120000  0.45200000  0.61110000  1.0 -0.4862910434
O  O25  1  0.40980000  0.08210000  0.53640000  1.0 -0.5491611286
O  O26  1  0.34680000  0.04550000  0.45490000  1.0 -0.6667374297
O  O27  1  0.30370000  0.89980000  0.44040000  1.0 -0.9796267076
O  O28  1  0.78320000  0.38230000  0.46110000  1.0 -0.3303988203
O  O29  1  0.87410000  0.38110000  0.32970000  1.0 -0.18127463
O  O30  1  0.79450000  0.52730000  0.45300000  1.0 -0.246482998
O  O31  1  0.30420000  0.41620000  0.68070000  1.0 -0.4812897741
O  O32  1  0.15570000  0.47270000  0.68810000  1.0 -0.6266783996
O  O33  1  0.19820000  0.35700000  0.77460000  1.0 -0.5396923347
O  O34  1  0.48050000  0.07550000  0.67900000  1.0 -0.7733432873
O  O35  1  0.34730000  0.13390000  0.72350000  1.0 -0.558467172
O  O36  1  0.49150000  0.10540000  0.78470000  1.0 -0.5873581692
O  O37  1  0.48050000  0.80810000  0.46420000  1.0 -0.7273726984
O  O38  1  0.35140000  0.75010000  0.51920000  1.0 -0.5225911661
O  O39  1  0.50140000  0.67570000  0.53090000  1.0 -0.5736502929
O  O40  1  0.57850000  0.09740000  0.44880000  1.0 -0.4531968756
O  O41  1  0.50640000  0.05810000  0.36750000  1.0 -0.4862910434
O  O42  1  0.65840000  0.08910000  0.34200000  1.0 -0.4625689312
O  O43  1  0.80740000  0.93940000  0.65570000  1.0 -0.558467172
O  O44  1  0.72670000  0.85590000  0.74790000  1.0 -0.4812897741
O  O45  1  0.65290000  0.97600000  0.68280000  1.0 -0.7535599991
O  O46  1  0.97870000  0.60090000  0.77010000  1.0 -0.5491611286
O  O47  1  0.83240000  0.62580000  0.71890000  1.0 -0.558467172
O  O48  1  0.95900000  0.56800000  0.66310000  1.0 -0.7214565798
O  O49  1  0.96770000  0.30270000  0.46480000  1.0 -0.6525623127
O  O50  1  0.01130000  0.17100000  0.53100000  1.0 -0.5873581692
O  O51  1  0.85530000  0.22750000  0.52660000  1.0 -0.4862910434
O  O52  1  0.09450000  0.59050000  0.43980000  1.0 -0.3718753829
O  O53  1  0.94050000  0.58980000  0.50290000  1.0 -0.6161165162
O  O54  1  0.97880000  0.54800000  0.38890000  1.0 -0.4862910434
O  O55  1  0.59020000  0.91790000  0.46360000  1.0 -0.5491611286
O  O56  1  0.65320000  0.95450000  0.54510000  1.0 -0.6667374297
O  O57  1  0.69630000  0.10020000  0.55960000  1.0 -0.9796267076
O  O58  1  0.21680000  0.61770000  0.53890000  1.0 -0.3303988203
O  O59  1  0.12590000  0.61890000  0.67030000  1.0 -0.1851834877
O  O60  1  0.20550000  0.47270000  0.54700000  1.0 -0.246482998
