# DDEC6 charges by PACMAN v1.1 (https://github.com/mtap-research/PACMAN-charge/)
data_BIJFAD_ASR_pacman
_symmetry_space_group_name_H-M   'P 1'
_cell_length_a   16.90140000
_cell_length_b   18.33150000
_cell_length_c   34.05970000
_cell_angle_alpha   90.00000000
_cell_angle_beta   90.00000000
_cell_angle_gamma   90.00000000
_symmetry_Int_Tables_number   1
_chemical_formula_structural   TiZnH40C34N3O5
_chemical_formula_sum   'Ti8 Zn8 H320 C272 N24 O40'
_cell_volume   10552.64921184
_cell_formula_units_Z   8
loop_
 _symmetry_equiv_pos_site_id
 _symmetry_equiv_pos_as_xyz
  1  'x, y, z'
loop_
 _atom_site_type_symbol
 _atom_site_label
 _atom_site_symmetry_multiplicity
 _atom_site_fract_x
 _atom_site_fract_y
 _atom_site_fract_z
 _atom_site_occupancy
 _atom_site_charge
Ti  Ti1  1  0.71198000  0.82914000  0.84552000  1.0 1.7838700481
Ti  Ti2  1  0.28802000  0.82914000  0.15448000  1.0 1.7851428457
Ti  Ti3  1  0.78802000  0.17086000  0.34552000  1.0 1.7838700481
Ti  Ti4  1  0.21198000  0.17086000  0.65448000  1.0 1.7838700481
Ti  Ti5  1  0.82669000  0.66865000  0.82443000  1.0 1.7838700481
Ti  Ti6  1  0.17331000  0.66865000  0.17557000  1.0 1.7838700481
Ti  Ti7  1  0.67331000  0.33135000  0.32443000  1.0 1.7838700481
Ti  Ti8  1  0.32669000  0.33135000  0.67557000  1.0 1.7838700481
Zn  Zn1  1  0.89189000  0.24860000  0.99540000  1.0 0.8002240129
Zn  Zn2  1  0.10811000  0.24860000  0.00460000  1.0 0.8002240129
Zn  Zn3  1  0.60811000  0.75140000  0.49540000  1.0 0.8002240129
Zn  Zn4  1  0.39189000  0.75140000  0.50460000  1.0 0.8002240129
Zn  Zn5  1  0.99920000  0.09769000  0.98597000  1.0 0.6081512042
Zn  Zn6  1  0.00080000  0.09769000  0.01403000  1.0 0.6081512042
Zn  Zn7  1  0.50080000  0.90231000  0.48597000  1.0 0.6081512042
Zn  Zn8  1  0.49920000  0.90231000  0.51403000  1.0 0.6046123572
H  H1  1  0.68170000  0.13180000  0.93150000  1.0 0.1195627359
H  H2  1  0.31830000  0.13180000  0.06850000  1.0 0.1195627359
H  H3  1  0.81830000  0.86820000  0.43150000  1.0 0.1195627359
H  H4  1  0.18170000  0.86820000  0.56850000  1.0 0.1195627359
H  H5  1  0.86500000  0.99530000  0.95360000  1.0 0.1195627359
H  H6  1  0.13500000  0.99530000  0.04640000  1.0 0.1195627359
H  H7  1  0.63500000  0.00470000  0.45360000  1.0 0.1195627359
H  H8  1  0.36500000  0.00470000  0.54640000  1.0 0.1195627359
H  H9  1  0.55340000  0.13270000  0.92220000  1.0 0.1195627359
H  H10  1  0.44660000  0.13270000  0.07780000  1.0 0.1195627359
H  H11  1  0.94660000  0.86730000  0.42220000  1.0 0.1195627359
H  H12  1  0.05340000  0.86730000  0.57780000  1.0 0.1195627359
H  H13  1  0.59190000  0.16650000  0.88330000  1.0 0.1195627359
H  H14  1  0.40810000  0.16650000  0.11670000  1.0 0.1195627359
H  H15  1  0.90810000  0.83350000  0.38330000  1.0 0.1195627359
H  H16  1  0.09190000  0.83350000  0.61670000  1.0 0.1195627359
H  H17  1  0.50570000  0.13040000  0.88160000  1.0 0.1195627359
H  H18  1  0.49430000  0.13040000  0.11840000  1.0 0.1195627359
H  H19  1  0.99430000  0.86960000  0.38160000  1.0 0.1195627359
H  H20  1  0.00570000  0.86960000  0.61840000  1.0 0.1195627359
H  H21  1  0.52710000  0.00120000  0.92630000  1.0 0.1195627359
H  H22  1  0.47290000  0.00120000  0.07370000  1.0 0.1195627359
H  H23  1  0.97290000  0.99880000  0.42630000  1.0 0.1195627359
H  H24  1  0.02710000  0.99880000  0.57370000  1.0 0.1195627359
H  H25  1  0.48150000  0.01120000  0.88550000  1.0 0.1195627359
H  H26  1  0.51850000  0.01120000  0.11450000  1.0 0.1195627359
H  H27  1  0.01850000  0.98880000  0.38550000  1.0 0.1195627359
H  H28  1  0.98150000  0.98880000  0.61450000  1.0 0.1195627359
H  H29  1  0.54720000  0.94890000  0.89000000  1.0 0.1296034963
H  H30  1  0.45280000  0.94890000  0.11000000  1.0 0.1296034963
H  H31  1  0.95280000  0.05110000  0.39000000  1.0 0.1296034963
H  H32  1  0.04720000  0.05110000  0.61000000  1.0 0.1296034963
H  H33  1  0.62420000  0.99710000  0.83140000  1.0 0.1477748372
H  H34  1  0.37580000  0.99710000  0.16860000  1.0 0.1477748372
H  H35  1  0.87580000  0.00290000  0.33140000  1.0 0.1477748372
H  H36  1  0.12420000  0.00290000  0.66860000  1.0 0.1477748372
H  H37  1  0.54890000  0.04920000  0.82660000  1.0 0.1296034963
H  H38  1  0.45110000  0.04920000  0.17340000  1.0 0.1296034963
H  H39  1  0.95110000  0.95080000  0.32660000  1.0 0.1296034963
H  H40  1  0.04890000  0.95080000  0.67340000  1.0 0.1296034963
H  H41  1  0.63600000  0.08340000  0.82770000  1.0 0.1296034963
H  H42  1  0.36400000  0.08340000  0.17230000  1.0 0.1296034963
H  H43  1  0.86400000  0.91660000  0.32770000  1.0 0.1296034963
H  H44  1  0.13600000  0.91660000  0.67230000  1.0 0.1296034963
H  H45  1  0.79710000  0.84220000  0.92660000  1.0 0.1108700385
H  H46  1  0.20290000  0.84220000  0.07340000  1.0 0.1108700385
H  H47  1  0.70290000  0.15780000  0.42660000  1.0 0.1108700385
H  H48  1  0.29710000  0.15780000  0.57340000  1.0 0.1108700385
H  H49  1  0.88060000  0.88330000  0.92270000  1.0 0.1108700385
H  H50  1  0.11940000  0.88330000  0.07730000  1.0 0.1108700385
H  H51  1  0.61940000  0.11670000  0.42270000  1.0 0.1108700385
H  H52  1  0.38060000  0.11670000  0.57730000  1.0 0.1108700385
H  H53  1  0.85090000  0.96230000  0.84980000  1.0 0.090822174
H  H54  1  0.14910000  0.96230000  0.15020000  1.0 0.090822174
H  H55  1  0.64910000  0.03770000  0.34980000  1.0 0.090822174
H  H56  1  0.35090000  0.03770000  0.65020000  1.0 0.090822174
H  H57  1  0.97030000  0.93290000  0.87970000  1.0 0.1108700385
H  H58  1  0.02970000  0.93290000  0.12030000  1.0 0.1108700385
H  H59  1  0.52970000  0.06710000  0.37970000  1.0 0.1108700385
H  H60  1  0.47030000  0.06710000  0.62030000  1.0 0.1108700385
H  H61  1  0.98450000  0.86670000  0.84980000  1.0 0.1108700385
H  H62  1  0.01550000  0.86670000  0.15020000  1.0 0.1108700385
H  H63  1  0.51550000  0.13330000  0.34980000  1.0 0.1108700385
H  H64  1  0.48450000  0.13330000  0.65020000  1.0 0.1108700385
H  H65  1  0.06160000  0.96630000  0.82820000  1.0 0.1012572014
H  H66  1  0.93840000  0.96630000  0.17180000  1.0 0.1012572014
H  H67  1  0.43840000  0.03370000  0.32820000  1.0 0.1012572014
H  H68  1  0.56160000  0.03370000  0.67180000  1.0 0.1012572014
H  H69  1  0.98640000  0.01940000  0.82910000  1.0 0.1012572014
H  H70  1  0.01360000  0.01940000  0.17090000  1.0 0.1012572014
H  H71  1  0.51360000  0.98060000  0.32910000  1.0 0.1012572014
H  H72  1  0.48640000  0.98060000  0.67090000  1.0 0.1012572014
H  H73  1  0.01290000  0.98770000  0.76650000  1.0 0.1108700385
H  H74  1  0.98710000  0.98770000  0.23350000  1.0 0.1108700385
H  H75  1  0.48710000  0.01230000  0.26650000  1.0 0.1108700385
H  H76  1  0.51290000  0.01230000  0.73350000  1.0 0.1108700385
H  H77  1  0.01070000  0.90300000  0.77760000  1.0 0.1108700385
H  H78  1  0.98930000  0.90300000  0.22240000  1.0 0.1108700385
H  H79  1  0.48930000  0.09700000  0.27760000  1.0 0.1108700385
H  H80  1  0.51070000  0.09700000  0.72240000  1.0 0.1108700385
H  H81  1  0.87920000  0.99830000  0.77770000  1.0 0.1195627359
H  H82  1  0.12080000  0.99830000  0.22230000  1.0 0.1195627359
H  H83  1  0.62080000  0.00170000  0.27770000  1.0 0.1195627359
H  H84  1  0.37920000  0.00170000  0.72230000  1.0 0.1195627359
H  H85  1  0.89460000  0.93390000  0.74690000  1.0 0.1108700385
H  H86  1  0.10540000  0.93390000  0.25310000  1.0 0.1108700385
H  H87  1  0.60540000  0.06610000  0.24690000  1.0 0.1108700385
H  H88  1  0.39460000  0.06610000  0.75310000  1.0 0.1108700385
H  H89  1  0.87960000  0.84510000  0.79670000  1.0 0.090822174
H  H90  1  0.12040000  0.84510000  0.20330000  1.0 0.090822174
H  H91  1  0.62040000  0.15490000  0.29670000  1.0 0.090822174
H  H92  1  0.37960000  0.15490000  0.70330000  1.0 0.090822174
H  H93  1  0.77510000  0.80490000  0.75680000  1.0 0.1195627359
H  H94  1  0.22490000  0.80490000  0.24320000  1.0 0.1195627359
H  H95  1  0.72490000  0.19510000  0.25680000  1.0 0.1195627359
H  H96  1  0.27510000  0.19510000  0.74320000  1.0 0.1195627359
H  H97  1  0.78030000  0.88260000  0.73560000  1.0 0.1012572014
H  H98  1  0.21970000  0.88260000  0.26440000  1.0 0.1012572014
H  H99  1  0.71970000  0.11740000  0.23560000  1.0 0.1012572014
H  H100  1  0.28030000  0.11740000  0.76440000  1.0 0.1012572014
H  H101  1  0.68970000  0.86820000  0.68940000  1.0 0.1108700385
H  H102  1  0.31030000  0.86820000  0.31060000  1.0 0.1108700385
H  H103  1  0.81030000  0.13180000  0.18940000  1.0 0.1108700385
H  H104  1  0.18970000  0.13180000  0.81060000  1.0 0.1108700385
H  H105  1  0.45840000  0.82980000  0.71320000  1.0 0.1108700385
H  H106  1  0.54160000  0.82980000  0.28680000  1.0 0.1108700385
H  H107  1  0.04160000  0.17020000  0.21320000  1.0 0.1108700385
H  H108  1  0.95840000  0.17020000  0.78680000  1.0 0.1108700385
H  H109  1  0.38040000  0.76480000  0.75230000  1.0 0.1195627359
H  H110  1  0.61960000  0.76480000  0.24770000  1.0 0.1195627359
H  H111  1  0.11960000  0.23520000  0.25230000  1.0 0.1195627359
H  H112  1  0.88040000  0.23520000  0.74770000  1.0 0.1195627359
H  H113  1  0.33940000  0.79490000  0.79140000  1.0 0.1296034963
H  H114  1  0.66060000  0.79490000  0.20860000  1.0 0.1296034963
H  H115  1  0.16060000  0.20510000  0.29140000  1.0 0.1296034963
H  H116  1  0.83940000  0.20510000  0.70860000  1.0 0.1296034963
H  H117  1  0.36390000  0.85020000  0.75720000  1.0 0.1195627359
H  H118  1  0.63610000  0.85020000  0.24280000  1.0 0.1195627359
H  H119  1  0.13610000  0.14980000  0.25720000  1.0 0.1195627359
H  H120  1  0.86390000  0.14980000  0.74280000  1.0 0.1195627359
H  H121  1  0.50350000  0.88790000  0.83240000  1.0 0.1374806889
H  H122  1  0.49650000  0.88790000  0.16760000  1.0 0.1374806889
H  H123  1  0.99650000  0.11210000  0.33240000  1.0 0.1374806889
H  H124  1  0.00350000  0.11210000  0.66760000  1.0 0.1374806889
H  H125  1  0.43580000  0.92230000  0.80520000  1.0 0.1195627359
H  H126  1  0.56420000  0.92230000  0.19480000  1.0 0.1195627359
H  H127  1  0.06420000  0.07770000  0.30520000  1.0 0.1195627359
H  H128  1  0.93580000  0.07770000  0.69480000  1.0 0.1195627359
H  H129  1  0.41290000  0.86560000  0.83910000  1.0 0.1296034963
H  H130  1  0.58710000  0.86560000  0.16090000  1.0 0.1296034963
H  H131  1  0.08710000  0.13440000  0.33910000  1.0 0.1296034963
H  H132  1  0.91290000  0.13440000  0.66090000  1.0 0.1296034963
H  H133  1  0.52880000  0.74380000  0.82640000  1.0 0.1374806889
H  H134  1  0.47120000  0.74380000  0.17360000  1.0 0.1374806889
H  H135  1  0.97120000  0.25620000  0.32640000  1.0 0.1374806889
H  H136  1  0.02880000  0.25620000  0.67360000  1.0 0.1374806889
H  H137  1  0.43570000  0.73690000  0.83410000  1.0 0.1374806889
H  H138  1  0.56430000  0.73690000  0.16590000  1.0 0.1374806889
H  H139  1  0.06430000  0.26310000  0.33410000  1.0 0.1374806889
H  H140  1  0.93570000  0.26310000  0.66590000  1.0 0.1374806889
H  H141  1  0.47410000  0.70070000  0.79580000  1.0 0.1296034963
H  H142  1  0.52590000  0.70070000  0.20420000  1.0 0.1296034963
H  H143  1  0.02590000  0.29930000  0.29580000  1.0 0.1296034963
H  H144  1  0.97410000  0.29930000  0.70420000  1.0 0.1296034963
H  H145  1  0.41330000  0.82410000  0.58780000  1.0 0.1012572014
H  H146  1  0.58670000  0.82410000  0.41220000  1.0 0.1012572014
H  H147  1  0.08670000  0.17590000  0.08780000  1.0 0.1012572014
H  H148  1  0.91330000  0.17590000  0.91220000  1.0 0.1012572014
H  H149  1  0.44680000  0.80840000  0.65390000  1.0 0.1296034963
H  H150  1  0.55320000  0.80840000  0.34610000  1.0 0.1296034963
H  H151  1  0.05320000  0.19160000  0.15390000  1.0 0.1296034963
H  H152  1  0.94680000  0.19160000  0.84610000  1.0 0.1296034963
H  H153  1  0.65490000  0.91270000  0.63520000  1.0 0.1195627359
H  H154  1  0.34510000  0.91270000  0.36480000  1.0 0.1195627359
H  H155  1  0.84510000  0.08730000  0.13520000  1.0 0.1195627359
H  H156  1  0.15490000  0.08730000  0.86480000  1.0 0.1195627359
H  H157  1  0.62140000  0.92830000  0.56900000  1.0 0.1108700385
H  H158  1  0.37860000  0.92830000  0.43100000  1.0 0.1108700385
H  H159  1  0.87860000  0.07170000  0.06900000  1.0 0.1108700385
H  H160  1  0.12140000  0.07170000  0.93100000  1.0 0.1108700385
H  H161  1  0.94170000  0.35710000  0.87780000  1.0 0.1108700385
H  H162  1  0.05830000  0.35710000  0.12220000  1.0 0.1108700385
H  H163  1  0.55830000  0.64290000  0.37780000  1.0 0.1108700385
H  H164  1  0.44170000  0.64290000  0.62220000  1.0 0.1108700385
H  H165  1  0.83270000  0.49540000  0.95330000  1.0 0.1195627359
H  H166  1  0.16730000  0.49540000  0.04670000  1.0 0.1195627359
H  H167  1  0.66730000  0.50460000  0.45330000  1.0 0.1195627359
H  H168  1  0.33270000  0.50460000  0.54670000  1.0 0.1195627359
H  H169  1  0.01000000  0.34120000  0.82860000  1.0 0.1108700385
H  H170  1  0.99000000  0.34120000  0.17140000  1.0 0.1108700385
H  H171  1  0.49000000  0.65880000  0.32860000  1.0 0.1108700385
H  H172  1  0.51000000  0.65880000  0.67140000  1.0 0.1108700385
H  H173  1  0.92500000  0.32660000  0.80950000  1.0 0.1296034963
H  H174  1  0.07500000  0.32660000  0.19050000  1.0 0.1296034963
H  H175  1  0.57500000  0.67340000  0.30950000  1.0 0.1296034963
H  H176  1  0.42500000  0.67340000  0.69050000  1.0 0.1296034963
H  H177  1  0.99820000  0.34890000  0.78220000  1.0 0.1296034963
H  H178  1  0.00180000  0.34890000  0.21780000  1.0 0.1296034963
H  H179  1  0.50180000  0.65110000  0.28220000  1.0 0.1296034963
H  H180  1  0.49820000  0.65110000  0.71780000  1.0 0.1296034963
H  H181  1  0.87740000  0.50650000  0.78010000  1.0 0.1477748372
H  H182  1  0.12260000  0.50650000  0.21990000  1.0 0.1477748372
H  H183  1  0.62260000  0.49350000  0.28010000  1.0 0.1477748372
H  H184  1  0.37740000  0.49350000  0.71990000  1.0 0.1477748372
H  H185  1  0.92140000  0.44580000  0.75420000  1.0 0.1296034963
H  H186  1  0.07860000  0.44580000  0.24580000  1.0 0.1296034963
H  H187  1  0.57860000  0.55420000  0.25420000  1.0 0.1296034963
H  H188  1  0.42140000  0.55420000  0.74580000  1.0 0.1296034963
H  H189  1  0.84810000  0.42350000  0.78150000  1.0 0.1374806889
H  H190  1  0.15190000  0.42350000  0.21850000  1.0 0.1374806889
H  H191  1  0.65190000  0.57650000  0.28150000  1.0 0.1374806889
H  H192  1  0.34810000  0.57650000  0.71850000  1.0 0.1374806889
H  H193  1  0.01700000  0.53610000  0.81170000  1.0 0.1477748372
H  H194  1  0.98300000  0.53610000  0.18830000  1.0 0.1477748372
H  H195  1  0.48300000  0.46390000  0.31170000  1.0 0.1477748372
H  H196  1  0.51700000  0.46390000  0.68830000  1.0 0.1477748372
H  H197  1  0.06650000  0.46840000  0.82840000  1.0 0.1296034963
H  H198  1  0.93350000  0.46840000  0.17160000  1.0 0.1296034963
H  H199  1  0.43350000  0.53160000  0.32840000  1.0 0.1296034963
H  H200  1  0.56650000  0.53160000  0.67160000  1.0 0.1296034963
H  H201  1  0.05020000  0.47540000  0.78220000  1.0 0.1296034963
H  H202  1  0.94980000  0.47540000  0.21780000  1.0 0.1296034963
H  H203  1  0.44980000  0.52460000  0.28220000  1.0 0.1296034963
H  H204  1  0.55020000  0.52460000  0.71780000  1.0 0.1296034963
H  H205  1  0.85530000  0.64760000  0.91230000  1.0 0.1108700385
H  H206  1  0.14470000  0.64760000  0.08770000  1.0 0.1108700385
H  H207  1  0.64470000  0.35240000  0.41230000  1.0 0.1108700385
H  H208  1  0.35530000  0.35240000  0.58770000  1.0 0.1108700385
H  H209  1  0.78310000  0.60670000  0.93330000  1.0 0.1012572014
H  H210  1  0.21690000  0.60670000  0.06670000  1.0 0.1012572014
H  H211  1  0.71690000  0.39330000  0.43330000  1.0 0.1012572014
H  H212  1  0.28310000  0.39330000  0.56670000  1.0 0.1012572014
H  H213  1  0.72310000  0.53440000  0.86290000  1.0 0.090822174
H  H214  1  0.27690000  0.53440000  0.13710000  1.0 0.090822174
H  H215  1  0.77690000  0.46560000  0.36290000  1.0 0.090822174
H  H216  1  0.22310000  0.46560000  0.63710000  1.0 0.090822174
H  H217  1  0.61230000  0.62020000  0.90760000  1.0 0.1108700385
H  H218  1  0.38770000  0.62020000  0.09240000  1.0 0.1108700385
H  H219  1  0.88770000  0.37980000  0.40760000  1.0 0.1108700385
H  H220  1  0.11230000  0.37980000  0.59240000  1.0 0.1108700385
H  H221  1  0.66280000  0.55350000  0.92460000  1.0 0.1012572014
H  H222  1  0.33720000  0.55350000  0.07540000  1.0 0.1012572014
H  H223  1  0.83720000  0.44650000  0.42460000  1.0 0.1012572014
H  H224  1  0.16280000  0.44650000  0.57540000  1.0 0.1012572014
H  H225  1  0.59320000  0.47150000  0.88520000  1.0 0.1012572014
H  H226  1  0.40680000  0.47150000  0.11480000  1.0 0.1012572014
H  H227  1  0.90680000  0.52850000  0.38520000  1.0 0.1012572014
H  H228  1  0.09320000  0.52850000  0.61480000  1.0 0.1012572014
H  H229  1  0.53220000  0.51710000  0.91160000  1.0 0.090822174
H  H230  1  0.46780000  0.51710000  0.08840000  1.0 0.090822174
H  H231  1  0.96780000  0.48290000  0.41160000  1.0 0.090822174
H  H232  1  0.03220000  0.48290000  0.58840000  1.0 0.090822174
H  H233  1  0.50360000  0.59630000  0.85650000  1.0 0.1012572014
H  H234  1  0.49640000  0.59630000  0.14350000  1.0 0.1012572014
H  H235  1  0.99640000  0.40370000  0.35650000  1.0 0.1012572014
H  H236  1  0.00360000  0.40370000  0.64350000  1.0 0.1012572014
H  H237  1  0.48530000  0.51350000  0.84430000  1.0 0.090822174
H  H238  1  0.51470000  0.51350000  0.15570000  1.0 0.090822174
H  H239  1  0.01470000  0.48650000  0.34430000  1.0 0.090822174
H  H240  1  0.98530000  0.48650000  0.65570000  1.0 0.090822174
H  H241  1  0.60920000  0.50490000  0.81220000  1.0 0.1108700385
H  H242  1  0.39080000  0.50490000  0.18780000  1.0 0.1108700385
H  H243  1  0.89080000  0.49510000  0.31220000  1.0 0.1108700385
H  H244  1  0.10920000  0.49510000  0.68780000  1.0 0.1108700385
H  H245  1  0.56110000  0.57260000  0.79430000  1.0 0.1012572014
H  H246  1  0.43890000  0.57260000  0.20570000  1.0 0.1012572014
H  H247  1  0.93890000  0.42740000  0.29430000  1.0 0.1012572014
H  H248  1  0.06110000  0.42740000  0.70570000  1.0 0.1012572014
H  H249  1  0.63260000  0.65510000  0.83430000  1.0 0.090822174
H  H250  1  0.36740000  0.65510000  0.16570000  1.0 0.090822174
H  H251  1  0.86740000  0.34490000  0.33430000  1.0 0.090822174
H  H252  1  0.13260000  0.34490000  0.66570000  1.0 0.090822174
H  H253  1  0.63950000  0.62960000  0.75450000  1.0 0.1012572014
H  H254  1  0.36050000  0.62960000  0.24550000  1.0 0.1012572014
H  H255  1  0.86050000  0.37040000  0.25450000  1.0 0.1012572014
H  H256  1  0.13950000  0.37040000  0.74550000  1.0 0.1012572014
H  H257  1  0.66960000  0.70340000  0.77430000  1.0 0.1195627359
H  H258  1  0.33040000  0.70340000  0.22570000  1.0 0.1195627359
H  H259  1  0.83040000  0.29660000  0.27430000  1.0 0.1195627359
H  H260  1  0.16960000  0.29660000  0.72570000  1.0 0.1195627359
H  H261  1  0.65490000  0.66960000  0.69090000  1.0 0.1108700385
H  H262  1  0.34510000  0.66960000  0.30910000  1.0 0.1108700385
H  H263  1  0.84510000  0.33040000  0.19090000  1.0 0.1108700385
H  H264  1  0.15490000  0.33040000  0.80910000  1.0 0.1108700385
H  H265  1  0.87270000  0.70130000  0.64420000  1.0 0.1012572014
H  H266  1  0.12730000  0.70130000  0.35580000  1.0 0.1012572014
H  H267  1  0.62730000  0.29870000  0.14420000  1.0 0.1012572014
H  H268  1  0.37270000  0.29870000  0.85580000  1.0 0.1012572014
H  H269  1  0.06320000  0.69840000  0.66930000  1.0 0.1374806889
H  H270  1  0.93680000  0.69840000  0.33070000  1.0 0.1374806889
H  H271  1  0.43680000  0.30160000  0.16930000  1.0 0.1296034963
H  H272  1  0.56320000  0.30160000  0.83070000  1.0 0.1296034963
H  H273  1  0.99280000  0.65110000  0.65090000  1.0 0.1195627359
H  H274  1  0.00720000  0.65110000  0.34910000  1.0 0.1195627359
H  H275  1  0.50720000  0.34890000  0.15090000  1.0 0.1195627359
H  H276  1  0.49280000  0.34890000  0.84910000  1.0 0.1195627359
H  H277  1  0.98630000  0.73820000  0.65210000  1.0 0.1195627359
H  H278  1  0.01370000  0.73820000  0.34790000  1.0 0.1195627359
H  H279  1  0.51370000  0.26180000  0.15210000  1.0 0.1195627359
H  H280  1  0.48630000  0.26180000  0.84790000  1.0 0.1195627359
H  H281  1  0.05660000  0.62790000  0.72850000  1.0 0.1296034963
H  H282  1  0.94340000  0.62790000  0.27150000  1.0 0.1296034963
H  H283  1  0.44340000  0.37210000  0.22850000  1.0 0.1296034963
H  H284  1  0.55660000  0.37210000  0.77150000  1.0 0.1296034963
H  H285  1  0.97610000  0.61690000  0.75260000  1.0 0.1477748372
H  H286  1  0.02390000  0.61690000  0.24740000  1.0 0.1477748372
H  H287  1  0.52390000  0.38310000  0.25260000  1.0 0.1477748372
H  H288  1  0.47610000  0.38310000  0.74740000  1.0 0.1477748372
H  H289  1  0.98620000  0.58040000  0.71020000  1.0 0.1195627359
H  H290  1  0.01380000  0.58040000  0.28980000  1.0 0.1195627359
H  H291  1  0.51380000  0.41960000  0.21020000  1.0 0.1195627359
H  H292  1  0.48620000  0.41960000  0.78980000  1.0 0.1195627359
H  H293  1  0.04380000  0.76320000  0.73370000  1.0 0.1374806889
H  H294  1  0.95620000  0.76320000  0.26630000  1.0 0.1374806889
H  H295  1  0.45620000  0.23680000  0.23370000  1.0 0.1374806889
H  H296  1  0.54380000  0.23680000  0.76630000  1.0 0.1374806889
H  H297  1  0.96590000  0.80260000  0.71740000  1.0 0.1296034963
H  H298  1  0.03410000  0.80260000  0.28260000  1.0 0.1296034963
H  H299  1  0.53410000  0.19740000  0.21740000  1.0 0.1296034963
H  H300  1  0.46590000  0.19740000  0.78260000  1.0 0.1296034963
H  H301  1  0.96220000  0.75650000  0.75730000  1.0 0.1374806889
H  H302  1  0.03780000  0.75650000  0.24270000  1.0 0.1374806889
H  H303  1  0.53780000  0.24350000  0.25730000  1.0 0.1374806889
H  H304  1  0.46220000  0.24350000  0.74270000  1.0 0.1374806889
H  H305  1  0.56530000  0.66610000  0.56850000  1.0 0.1195627359
H  H306  1  0.43470000  0.66610000  0.43150000  1.0 0.1195627359
H  H307  1  0.93470000  0.33390000  0.06850000  1.0 0.1195627359
H  H308  1  0.06530000  0.33390000  0.93150000  1.0 0.1195627359
H  H309  1  0.62270000  0.63960000  0.62940000  1.0 0.1296034963
H  H310  1  0.37730000  0.63960000  0.37060000  1.0 0.1296034963
H  H311  1  0.87730000  0.36040000  0.12940000  1.0 0.1296034963
H  H312  1  0.12270000  0.36040000  0.87060000  1.0 0.1296034963
H  H313  1  0.80590000  0.77410000  0.60390000  1.0 0.1374806889
H  H314  1  0.19410000  0.77410000  0.39610000  1.0 0.1374806889
H  H315  1  0.69410000  0.22590000  0.10390000  1.0 0.1374806889
H  H316  1  0.30590000  0.22590000  0.89610000  1.0 0.1374806889
H  H317  1  0.74850000  0.80070000  0.54300000  1.0 0.1195627359
H  H318  1  0.25150000  0.80070000  0.45700000  1.0 0.1195627359
H  H319  1  0.75150000  0.19930000  0.04300000  1.0 0.1195627359
H  H320  1  0.24850000  0.19930000  0.95700000  1.0 0.1195627359
C  C1  1  0.82920000  0.12800000  0.97220000  1.0 0.536554999
C  C2  1  0.17080000  0.12800000  0.02780000  1.0 0.536554999
C  C3  1  0.67080000  0.87200000  0.47220000  1.0 0.536554999
C  C4  1  0.32920000  0.87200000  0.52780000  1.0 0.536554999
C  C5  1  0.77850000  0.07160000  0.94660000  1.0 -0.0207703959
C  C6  1  0.22150000  0.07160000  0.05340000  1.0 -0.0207703959
C  C7  1  0.72150000  0.92840000  0.44660000  1.0 -0.0207703959
C  C8  1  0.27850000  0.92840000  0.55340000  1.0 -0.0207703959
C  C9  1  0.70780000  0.08660000  0.92730000  1.0 -0.1608086068
C  C10  1  0.29220000  0.08660000  0.07270000  1.0 -0.1608086068
C  C11  1  0.79220000  0.91340000  0.42730000  1.0 -0.1608086068
C  C12  1  0.20780000  0.91340000  0.57270000  1.0 -0.1608086068
C  C13  1  0.67530000  0.03530000  0.90200000  1.0 -0.0495919865
C  C14  1  0.32470000  0.03530000  0.09800000  1.0 -0.0495919865
C  C15  1  0.82470000  0.96470000  0.40200000  1.0 -0.0495919865
C  C16  1  0.17530000  0.96470000  0.59800000  1.0 -0.0495919865
C  C17  1  0.71350000  0.96910000  0.89580000  1.0 0.2387192764
C  C18  1  0.28650000  0.96910000  0.10420000  1.0 0.2387192764
C  C19  1  0.78650000  0.03090000  0.39580000  1.0 0.2387192764
C  C20  1  0.21350000  0.03090000  0.60420000  1.0 0.2387192764
C  C21  1  0.78420000  0.95420000  0.91510000  1.0 -0.038809296
C  C22  1  0.21580000  0.95420000  0.08490000  1.0 -0.038809296
C  C23  1  0.71580000  0.04580000  0.41510000  1.0 -0.038809296
C  C24  1  0.28420000  0.04580000  0.58490000  1.0 -0.038809296
C  C25  1  0.81670000  0.00540000  0.94050000  1.0 -0.1732260368
C  C26  1  0.18330000  0.00540000  0.05950000  1.0 -0.1732260368
C  C27  1  0.68330000  0.99460000  0.44050000  1.0 -0.1732260368
C  C28  1  0.31670000  0.99460000  0.55950000  1.0 -0.1732260368
C  C29  1  0.59600000  0.05240000  0.88400000  1.0 0.2995196202
C  C30  1  0.40400000  0.05240000  0.11600000  1.0 0.2995196202
C  C31  1  0.90400000  0.94760000  0.38400000  1.0 0.2995196202
C  C32  1  0.09600000  0.94760000  0.61600000  1.0 0.2995196202
C  C33  1  0.55830000  0.12740000  0.89370000  1.0 -0.4610757984
C  C34  1  0.44170000  0.12740000  0.10630000  1.0 -0.4610757984
C  C35  1  0.94170000  0.87260000  0.39370000  1.0 -0.4610757984
C  C36  1  0.05830000  0.87260000  0.60630000  1.0 -0.4610757984
C  C37  1  0.53220000  0.99850000  0.89770000  1.0 -0.448512607
C  C38  1  0.46780000  0.99850000  0.10230000  1.0 -0.448512607
C  C39  1  0.96780000  0.00150000  0.39770000  1.0 -0.448512607
C  C40  1  0.03220000  0.00150000  0.60230000  1.0 -0.448512607
C  C41  1  0.60180000  0.04480000  0.83810000  1.0 -0.4799845662
C  C42  1  0.39820000  0.04480000  0.16190000  1.0 -0.4799845662
C  C43  1  0.89820000  0.95520000  0.33810000  1.0 -0.4799845662
C  C44  1  0.10180000  0.95520000  0.66190000  1.0 -0.4799845662
C  C45  1  0.82660000  0.87980000  0.91170000  1.0 -0.1102518347
C  C46  1  0.17340000  0.87980000  0.08830000  1.0 -0.1102518347
C  C47  1  0.67340000  0.12020000  0.41170000  1.0 -0.1102518347
C  C48  1  0.32660000  0.12020000  0.58830000  1.0 -0.1102518347
C  C49  1  0.87390000  0.91310000  0.84420000  1.0 0.0805431646
C  C50  1  0.12610000  0.91310000  0.15580000  1.0 0.0805431646
C  C51  1  0.62610000  0.08690000  0.34420000  1.0 0.0805431646
C  C52  1  0.37390000  0.08690000  0.65580000  1.0 0.0805431646
C  C53  1  0.96160000  0.91620000  0.85240000  1.0 -0.199632677
C  C54  1  0.03840000  0.91620000  0.14760000  1.0 -0.199632677
C  C55  1  0.53840000  0.08380000  0.35240000  1.0 -0.199632677
C  C56  1  0.46160000  0.08380000  0.64760000  1.0 -0.199632677
C  C57  1  0.00380000  0.96880000  0.82370000  1.0 -0.151583111
C  C58  1  0.99620000  0.96880000  0.17630000  1.0 -0.151583111
C  C59  1  0.49620000  0.03120000  0.32370000  1.0 -0.151583111
C  C60  1  0.50380000  0.03120000  0.67630000  1.0 -0.151583111
C  C61  1  0.98720000  0.95110000  0.78370000  1.0 -0.1608086068
C  C62  1  0.01280000  0.95110000  0.21630000  1.0 -0.1608086068
C  C63  1  0.51280000  0.04890000  0.28370000  1.0 -0.1608086068
C  C64  1  0.48720000  0.04890000  0.71630000  1.0 -0.1608086068
C  C65  1  0.90200000  0.94890000  0.77460000  1.0 -0.2169980786
C  C66  1  0.09800000  0.94890000  0.22540000  1.0 -0.2169980786
C  C67  1  0.59800000  0.05110000  0.27460000  1.0 -0.2169980786
C  C68  1  0.40200000  0.05110000  0.72540000  1.0 -0.2169980786
C  C69  1  0.85790000  0.89490000  0.80180000  1.0 0.0805431646
C  C70  1  0.14210000  0.89490000  0.19820000  1.0 0.0805431646
C  C71  1  0.64210000  0.10510000  0.30180000  1.0 0.0805431646
C  C72  1  0.35790000  0.10510000  0.69820000  1.0 0.0805431646
C  C73  1  0.75310000  0.85500000  0.75660000  1.0 -0.1102518347
C  C74  1  0.24690000  0.85500000  0.24340000  1.0 -0.1102518347
C  C75  1  0.74690000  0.14500000  0.25660000  1.0 -0.1102518347
C  C76  1  0.25310000  0.14500000  0.74340000  1.0 -0.1102518347
C  C77  1  0.66666667  0.85130000  0.74750000  1.0 0.001302399
C  C78  1  0.33333333  0.85130000  0.25250000  1.0 0.001302399
C  C79  1  0.83333000  0.14870000  0.24750000  1.0 0.001302399
C  C80  1  0.16667000  0.14870000  0.75250000  1.0 0.001302399
C  C81  1  0.64880000  0.85810000  0.70779000  1.0 -0.2063712112
C  C82  1  0.35120000  0.85810000  0.29221000  1.0 -0.2063712112
C  C83  1  0.85120000  0.14190000  0.20779000  1.0 -0.2063712112
C  C84  1  0.14880000  0.14190000  0.79221000  1.0 -0.2063712112
C  C85  1  0.57120000  0.85010000  0.69501000  1.0 0.0455001139
C  C86  1  0.42880000  0.85010000  0.30499000  1.0 0.0455001139
C  C87  1  0.92880000  0.14990000  0.19501000  1.0 0.0455001139
C  C88  1  0.07120000  0.14990000  0.80499000  1.0 0.0455001139
C  C89  1  0.51150000  0.83520000  0.72190000  1.0 -0.199632677
C  C90  1  0.48850000  0.83520000  0.27810000  1.0 -0.199632677
C  C91  1  0.98850000  0.16480000  0.22190000  1.0 -0.199632677
C  C92  1  0.01150000  0.16480000  0.77810000  1.0 -0.199632677
C  C93  1  0.52930000  0.82840000  0.76160000  1.0 -0.0562008756
C  C94  1  0.47070000  0.82840000  0.23840000  1.0 -0.0562008756
C  C95  1  0.97070000  0.17160000  0.26160000  1.0 -0.0562008756
C  C96  1  0.02930000  0.17160000  0.73840000  1.0 -0.0562008756
C  C97  1  0.60690000  0.83650000  0.77435000  1.0 0.2306659438
C  C98  1  0.39310000  0.83650000  0.22565000  1.0 0.2306659438
C  C99  1  0.89310000  0.16350000  0.27435000  1.0 0.2306659438
C  C100  1  0.10690000  0.16350000  0.72565000  1.0 0.2306659438
C  C101  1  0.46230000  0.81520000  0.79030000  1.0 0.311602778
C  C102  1  0.53770000  0.81520000  0.20970000  1.0 0.311602778
C  C103  1  0.03770000  0.18480000  0.29030000  1.0 0.311602778
C  C104  1  0.96230000  0.18480000  0.70970000  1.0 0.311602778
C  C105  1  0.37860000  0.80540000  0.77100000  1.0 -0.473037228
C  C106  1  0.62140000  0.80540000  0.22900000  1.0 -0.473037228
C  C107  1  0.12140000  0.19460000  0.27100000  1.0 -0.473037228
C  C108  1  0.87860000  0.19460000  0.72900000  1.0 -0.473037228
C  C109  1  0.45280000  0.87850000  0.81940000  1.0 -0.473037228
C  C110  1  0.54720000  0.87850000  0.18060000  1.0 -0.473037228
C  C111  1  0.04720000  0.12150000  0.31940000  1.0 -0.473037228
C  C112  1  0.95280000  0.12150000  0.68060000  1.0 -0.473037228
C  C113  1  0.47660000  0.74230000  0.81390000  1.0 -0.4799845662
C  C114  1  0.52340000  0.74230000  0.18610000  1.0 -0.4799845662
C  C115  1  0.02340000  0.25770000  0.31390000  1.0 -0.4799845662
C  C116  1  0.97660000  0.25770000  0.68610000  1.0 -0.4799845662
C  C117  1  0.46230000  0.84210000  0.59740000  1.0 0.0805431646
C  C118  1  0.53770000  0.84210000  0.40260000  1.0 0.0805431646
C  C119  1  0.03770000  0.15790000  0.09740000  1.0 0.0805431646
C  C120  1  0.96230000  0.15790000  0.90260000  1.0 0.0805431646
C  C121  1  0.48220000  0.83280000  0.63670000  1.0 -0.1935722406
C  C122  1  0.51780000  0.83280000  0.36330000  1.0 -0.1935722406
C  C123  1  0.01780000  0.16720000  0.13670000  1.0 -0.1935722406
C  C124  1  0.98220000  0.16720000  0.86330000  1.0 -0.1935722406
C  C125  1  0.55400000  0.85910000  0.65080000  1.0 0.1195627359
C  C126  1  0.44600000  0.85910000  0.34920000  1.0 0.1195627359
C  C127  1  0.94600000  0.14090000  0.15080000  1.0 0.1195627359
C  C128  1  0.05400000  0.14090000  0.84920000  1.0 0.1195627359
C  C129  1  0.60580000  0.89470000  0.62550000  1.0 -0.199632677
C  C130  1  0.39420000  0.89470000  0.37450000  1.0 -0.199632677
C  C131  1  0.89420000  0.10530000  0.12550000  1.0 -0.199632677
C  C132  1  0.10580000  0.10530000  0.87450000  1.0 -0.199632677
C  C133  1  0.58590000  0.90400000  0.58630000  1.0 0.0715446614
C  C134  1  0.41410000  0.90400000  0.41370000  1.0 0.0715446614
C  C135  1  0.91410000  0.09600000  0.08630000  1.0 0.0715446614
C  C136  1  0.08590000  0.09600000  0.91370000  1.0 0.0715446614
C  C137  1  0.89030000  0.36160000  0.95100000  1.0 0.4996422746
C  C138  1  0.10970000  0.36160000  0.04900000  1.0 0.4996422746
C  C139  1  0.60970000  0.63840000  0.45100000  1.0 0.4996422746
C  C140  1  0.39030000  0.63840000  0.54900000  1.0 0.4996422746
C  C141  1  0.88770000  0.41790000  0.92017000  1.0 -0.0495919865
C  C142  1  0.11230000  0.41790000  0.07983000  1.0 -0.0495919865
C  C143  1  0.61230000  0.58210000  0.42017000  1.0 -0.0495919865
C  C144  1  0.38770000  0.58210000  0.57983000  1.0 -0.0495919865
C  C145  1  0.91840000  0.40320000  0.88310000  1.0 -0.151583111
C  C146  1  0.08160000  0.40320000  0.11690000  1.0 -0.151583111
C  C147  1  0.58160000  0.59680000  0.38310000  1.0 -0.151583111
C  C148  1  0.41840000  0.59680000  0.61690000  1.0 -0.151583111
C  C149  1  0.91490000  0.45600000  0.85388000  1.0 -0.0495919865
C  C150  1  0.08510000  0.45600000  0.14612000  1.0 -0.0495919865
C  C151  1  0.58510000  0.54400000  0.35388000  1.0 -0.0495919865
C  C152  1  0.41490000  0.54400000  0.64612000  1.0 -0.0495919865
C  C153  1  0.88080000  0.52340000  0.86167000  1.0 0.2501000085
C  C154  1  0.11920000  0.52340000  0.13833000  1.0 0.2501000085
C  C155  1  0.61920000  0.47660000  0.36167000  1.0 0.2501000085
C  C156  1  0.38080000  0.47660000  0.63833000  1.0 0.2501000085
C  C157  1  0.85010000  0.53810000  0.89872000  1.0 -0.038809296
C  C158  1  0.14990000  0.53810000  0.10128000  1.0 -0.038809296
C  C159  1  0.64990000  0.46190000  0.39872000  1.0 -0.038809296
C  C160  1  0.35010000  0.46190000  0.60128000  1.0 -0.038809296
C  C161  1  0.85360000  0.48530000  0.92797000  1.0 -0.1608086068
C  C162  1  0.14640000  0.48530000  0.07203000  1.0 -0.1608086068
C  C163  1  0.64640000  0.51470000  0.42797000  1.0 -0.1608086068
C  C164  1  0.35360000  0.51470000  0.57203000  1.0 -0.1608086068
C  C165  1  0.95130000  0.44030000  0.81320000  1.0 0.311602778
C  C166  1  0.04870000  0.44030000  0.18680000  1.0 0.311602778
C  C167  1  0.54870000  0.55970000  0.31320000  1.0 0.311602778
C  C168  1  0.45130000  0.55970000  0.68680000  1.0 0.311602778
C  C169  1  0.97330000  0.35610000  0.80780000  1.0 -0.4968604944
C  C170  1  0.02670000  0.35610000  0.19220000  1.0 -0.4968604944
C  C171  1  0.52670000  0.64390000  0.30780000  1.0 -0.4968604944
C  C172  1  0.47330000  0.64390000  0.69220000  1.0 -0.4968604944
C  C173  1  0.89440000  0.45540000  0.77920000  1.0 -0.4923887662
C  C174  1  0.10560000  0.45540000  0.22080000  1.0 -0.4923887662
C  C175  1  0.60560000  0.54460000  0.27920000  1.0 -0.4923887662
C  C176  1  0.39440000  0.54460000  0.72080000  1.0 -0.4923887662
C  C177  1  0.02820000  0.48400000  0.80840000  1.0 -0.4799845662
C  C178  1  0.97180000  0.48400000  0.19160000  1.0 -0.4799845662
C  C179  1  0.47180000  0.51600000  0.30840000  1.0 -0.4799845662
C  C180  1  0.52820000  0.51600000  0.69160000  1.0 -0.4799845662
C  C181  1  0.81300000  0.61090000  0.90840000  1.0 -0.0990361019
C  C182  1  0.18700000  0.61090000  0.09160000  1.0 -0.0990361019
C  C183  1  0.68700000  0.38910000  0.40840000  1.0 -0.0990361019
C  C184  1  0.31300000  0.38910000  0.59160000  1.0 -0.0990361019
C  C185  1  0.69700000  0.58250000  0.86770000  1.0 0.0805431646
C  C186  1  0.30300000  0.58250000  0.13230000  1.0 0.0805431646
C  C187  1  0.80300000  0.41750000  0.36770000  1.0 0.0805431646
C  C188  1  0.19700000  0.41750000  0.63230000  1.0 0.0805431646
C  C189  1  0.63560000  0.57230000  0.90090000  1.0 -0.2063712112
C  C190  1  0.36440000  0.57230000  0.09910000  1.0 -0.2063712112
C  C191  1  0.86440000  0.42770000  0.40090000  1.0 -0.2063712112
C  C192  1  0.13560000  0.42770000  0.59910000  1.0 -0.2063712112
C  C193  1  0.57080000  0.52070000  0.88980000  1.0 -0.1608086068
C  C194  1  0.42920000  0.52070000  0.11020000  1.0 -0.1608086068
C  C195  1  0.92920000  0.47930000  0.38980000  1.0 -0.1608086068
C  C196  1  0.07080000  0.47930000  0.61020000  1.0 -0.1608086068
C  C197  1  0.52790000  0.54810000  0.85160000  1.0 -0.151583111
C  C198  1  0.47210000  0.54810000  0.14840000  1.0 -0.151583111
C  C199  1  0.97210000  0.45190000  0.35160000  1.0 -0.151583111
C  C200  1  0.02790000  0.45190000  0.64840000  1.0 -0.151583111
C  C201  1  0.58760000  0.55380000  0.81820000  1.0 -0.2323354117
C  C202  1  0.41240000  0.55380000  0.18180000  1.0 -0.2323354117
C  C203  1  0.91240000  0.44620000  0.31820000  1.0 -0.2323354117
C  C204  1  0.08760000  0.44620000  0.68180000  1.0 -0.2323354117
C  C205  1  0.65570000  0.60560000  0.82990000  1.0 0.090822174
C  C206  1  0.34430000  0.60560000  0.17010000  1.0 0.090822174
C  C207  1  0.84430000  0.39440000  0.32990000  1.0 0.090822174
C  C208  1  0.15570000  0.39440000  0.67010000  1.0 0.090822174
C  C209  1  0.68690000  0.65500000  0.76480000  1.0 -0.1102518347
C  C210  1  0.31310000  0.65500000  0.23520000  1.0 -0.1102518347
C  C211  1  0.81310000  0.34500000  0.26480000  1.0 -0.1102518347
C  C212  1  0.18690000  0.34500000  0.73520000  1.0 -0.1102518347
C  C213  1  0.74400000  0.66630000  0.73115000  1.0 -0.0118497803
C  C214  1  0.25600000  0.66630000  0.26885000  1.0 -0.0118497803
C  C215  1  0.75600000  0.33370000  0.23115000  1.0 -0.0118497803
C  C216  1  0.24400000  0.33370000  0.76885000  1.0 -0.0118497803
C  C217  1  0.71054000  0.67360000  0.69409000  1.0 -0.199632677
C  C218  1  0.28946000  0.67360000  0.30591000  1.0 -0.199632677
C  C219  1  0.78946000  0.32640000  0.19409000  1.0 -0.199632677
C  C220  1  0.21054000  0.32640000  0.80591000  1.0 -0.199632677
C  C221  1  0.75850000  0.68660000  0.66169000  1.0 0.0442786657
C  C222  1  0.24150000  0.68660000  0.33831000  1.0 0.0442786657
C  C223  1  0.74150000  0.31340000  0.16169000  1.0 0.0442786657
C  C224  1  0.25850000  0.31340000  0.83831000  1.0 0.0442786657
C  C225  1  0.84000000  0.69240000  0.66635000  1.0 -0.199632677
C  C226  1  0.16000000  0.69240000  0.33365000  1.0 -0.199632677
C  C227  1  0.66000000  0.30760000  0.16635000  1.0 -0.199632677
C  C228  1  0.34000000  0.30760000  0.83365000  1.0 -0.199632677
C  C229  1  0.87347000  0.68510000  0.70341000  1.0 -0.0495919865
C  C230  1  0.12653000  0.68510000  0.29659000  1.0 -0.0495919865
C  C231  1  0.62653000  0.31490000  0.20341000  1.0 -0.0495919865
C  C232  1  0.37347000  0.31490000  0.79659000  1.0 -0.0495919865
C  C233  1  0.82550000  0.67200000  0.73581000  1.0 0.2501000085
C  C234  1  0.17450000  0.67200000  0.26419000  1.0 0.2501000085
C  C235  1  0.67450000  0.32800000  0.23581000  1.0 0.2501000085
C  C236  1  0.32550000  0.32800000  0.76419000  1.0 0.2501000085
C  C237  1  0.96530000  0.69050000  0.70750000  1.0 0.2995196202
C  C238  1  0.03470000  0.69050000  0.29250000  1.0 0.2995196202
C  C239  1  0.53470000  0.30950000  0.20750000  1.0 0.2995196202
C  C240  1  0.46530000  0.30950000  0.79250000  1.0 0.2995196202
C  C241  1  0.00570000  0.69500000  0.66600000  1.0 -0.473037228
C  C242  1  0.99430000  0.69500000  0.33400000  1.0 -0.4799845662
C  C243  1  0.49430000  0.30500000  0.16600000  1.0 -0.473037228
C  C244  1  0.50570000  0.30500000  0.83400000  1.0 -0.473037228
C  C245  1  0.99900000  0.62300000  0.72630000  1.0 -0.4799845662
C  C246  1  0.00100000  0.62300000  0.27370000  1.0 -0.4799845662
C  C247  1  0.50100000  0.37700000  0.22630000  1.0 -0.4799845662
C  C248  1  0.49900000  0.37700000  0.77370000  1.0 -0.4799845662
C  C249  1  0.98620000  0.75940000  0.73110000  1.0 -0.4968604944
C  C250  1  0.01380000  0.75940000  0.26890000  1.0 -0.4968604944
C  C251  1  0.51380000  0.24060000  0.23110000  1.0 -0.4923887662
C  C252  1  0.48620000  0.24060000  0.76890000  1.0 -0.4923887662
C  C253  1  0.61420000  0.68800000  0.57573000  1.0 0.090822174
C  C254  1  0.38580000  0.68800000  0.42427000  1.0 0.090822174
C  C255  1  0.88580000  0.31200000  0.07573000  1.0 0.090822174
C  C256  1  0.11420000  0.31200000  0.92427000  1.0 0.090822174
C  C257  1  0.64820000  0.67230000  0.61189000  1.0 -0.1935722406
C  C258  1  0.35180000  0.67230000  0.38811000  1.0 -0.1935722406
C  C259  1  0.85180000  0.32770000  0.11189000  1.0 -0.1935722406
C  C260  1  0.14820000  0.32770000  0.88811000  1.0 -0.1935722406
C  C261  1  0.71970000  0.70440000  0.62239000  1.0 0.1195627359
C  C262  1  0.28030000  0.70440000  0.37761000  1.0 0.1195627359
C  C263  1  0.78030000  0.29560000  0.12239000  1.0 0.1195627359
C  C264  1  0.21970000  0.29560000  0.87761000  1.0 0.1195627359
C  C265  1  0.75700000  0.75220000  0.59674000  1.0 -0.199632677
C  C266  1  0.24300000  0.75220000  0.40326000  1.0 -0.199632677
C  C267  1  0.74300000  0.24780000  0.09674000  1.0 -0.199632677
C  C268  1  0.25700000  0.24780000  0.90326000  1.0 -0.199632677
C  C269  1  0.72300000  0.76800000  0.56057000  1.0 0.0805431646
C  C270  1  0.27700000  0.76800000  0.43943000  1.0 0.0805431646
C  C271  1  0.77700000  0.23200000  0.06057000  1.0 0.0805431646
C  C272  1  0.22300000  0.23200000  0.93943000  1.0 0.0805431646
N  N1  1  0.83060000  0.85870000  0.86820000  1.0 -0.4610757984
N  N2  1  0.16940000  0.85870000  0.13180000  1.0 -0.4610757984
N  N3  1  0.66940000  0.14130000  0.36820000  1.0 -0.4610757984
N  N4  1  0.33060000  0.14130000  0.63180000  1.0 -0.4610757984
N  N5  1  0.77010000  0.89160000  0.79640000  1.0 -0.3966062076
N  N6  1  0.22990000  0.89160000  0.20360000  1.0 -0.3966062076
N  N7  1  0.72990000  0.10840000  0.29640000  1.0 -0.3966062076
N  N8  1  0.27010000  0.10840000  0.70360000  1.0 -0.3966062076
N  N9  1  0.75890000  0.63610000  0.87681000  1.0 -0.4799845662
N  N10  1  0.24110000  0.63610000  0.12319000  1.0 -0.4799845662
N  N11  1  0.74110000  0.36390000  0.37681000  1.0 -0.4799845662
N  N12  1  0.25890000  0.36390000  0.62319000  1.0 -0.4799845662
N  N13  1  0.71820000  0.61240000  0.79897000  1.0 -0.3929360739
N  N14  1  0.28180000  0.61240000  0.20103000  1.0 -0.3929360739
N  N15  1  0.78180000  0.38760000  0.29897000  1.0 -0.3929360739
N  N16  1  0.21820000  0.38760000  0.70103000  1.0 -0.3929360739
N  N17  1  0.51420000  0.87770000  0.57220000  1.0 -0.2600247755
N  N18  1  0.48580000  0.87770000  0.42780000  1.0 -0.2600247755
N  N19  1  0.98580000  0.12230000  0.07220000  1.0 -0.2600247755
N  N20  1  0.01420000  0.12230000  0.92780000  1.0 -0.2600247755
N  N21  1  0.65150000  0.73590000  0.55007000  1.0 -0.2600247755
N  N22  1  0.34850000  0.73590000  0.44993000  1.0 -0.2600247755
N  N23  1  0.84850000  0.26410000  0.05007000  1.0 -0.2600247755
N  N24  1  0.15150000  0.26410000  0.94993000  1.0 -0.2600247755
O  O1  1  0.87960000  0.10130000  0.99600000  1.0 -0.4968604944
O  O2  1  0.12040000  0.10130000  0.00400000  1.0 -0.4968604944
O  O3  1  0.62040000  0.89870000  0.49600000  1.0 -0.4968604944
O  O4  1  0.37960000  0.89870000  0.50400000  1.0 -0.4968604944
O  O5  1  0.79810000  0.18990000  0.97070000  1.0 -0.4923887662
O  O6  1  0.20190000  0.18990000  0.02930000  1.0 -0.4923887662
O  O7  1  0.70190000  0.81010000  0.47070000  1.0 -0.4923887662
O  O8  1  0.29810000  0.81010000  0.52930000  1.0 -0.4923887662
O  O9  1  0.00000000  0.19970000  0.00000000  1.0 -0.8275495104
O  O10  1  0.50000000  0.80030000  0.50000000  1.0 -0.8275495104
O  O11  1  0.68430000  0.92100000  0.87010000  1.0 -0.6307186715
O  O12  1  0.31570000  0.92100000  0.12990000  1.0 -0.6307186715
O  O13  1  0.81570000  0.07900000  0.37010000  1.0 -0.6307186715
O  O14  1  0.18430000  0.07900000  0.62990000  1.0 -0.6307186715
O  O15  1  0.62510000  0.83030000  0.81270000  1.0 -0.6180713705
O  O16  1  0.37490000  0.83030000  0.18730000  1.0 -0.6180713705
O  O17  1  0.87490000  0.16970000  0.31270000  1.0 -0.6180713705
O  O18  1  0.12510000  0.16970000  0.68730000  1.0 -0.6180713705
O  O19  1  0.86030000  0.36870000  0.98030000  1.0 -0.3799888424
O  O20  1  0.13970000  0.36870000  0.01970000  1.0 -0.3799888424
O  O21  1  0.63970000  0.63130000  0.48030000  1.0 -0.3799888424
O  O22  1  0.36030000  0.63130000  0.51970000  1.0 -0.3799888424
O  O23  1  0.92060000  0.30230000  0.94520000  1.0 -0.4274045459
O  O24  1  0.07940000  0.30230000  0.05480000  1.0 -0.4274045459
O  O25  1  0.57940000  0.69770000  0.44520000  1.0 -0.4274045459
O  O26  1  0.42060000  0.69770000  0.55480000  1.0 -0.4274045459
O  O27  1  0.87540000  0.57560000  0.83423000  1.0 -0.6377188198
O  O28  1  0.12460000  0.57560000  0.16577000  1.0 -0.6377188198
O  O29  1  0.62460000  0.42440000  0.33423000  1.0 -0.6377188198
O  O30  1  0.37540000  0.42440000  0.66577000  1.0 -0.6377188198
O  O31  1  0.85710000  0.66990000  0.77152000  1.0 -0.6066024236
O  O32  1  0.14290000  0.66990000  0.22848000  1.0 -0.6066024236
O  O33  1  0.64290000  0.33010000  0.27152000  1.0 -0.6066024236
O  O34  1  0.35710000  0.33010000  0.72848000  1.0 -0.6066024236
O  O35  1  0.76380000  0.74980000  0.82497000  1.0 -1.1086473695
O  O36  1  0.23620000  0.74980000  0.17503000  1.0 -1.1086473695
O  O37  1  0.73620000  0.25020000  0.32497000  1.0 -1.1086473695
O  O38  1  0.26380000  0.25020000  0.67503000  1.0 -1.1086473695
O  O39  1  0.00000000  0.97020000  0.00000000  1.0 -0.675785654
O  O40  1  0.50000000  0.02980000  0.50000000  1.0 -0.6633387736
