# DDEC6 charges by PACMAN v1.1 (https://github.com/mtap-research/PACMAN-charge/)
data_BIJFOS_ASR_pacman
_symmetry_space_group_name_H-M   'P 1'
_cell_length_a   15.16200000
_cell_length_b   19.46600000
_cell_length_c   19.57300000
_cell_angle_alpha   68.39500000
_cell_angle_beta   84.89800000
_cell_angle_gamma   79.24300000
_symmetry_Int_Tables_number   1
_chemical_formula_structural   Eu4Co2H55C94S8N11O31
_chemical_formula_sum   'Eu8 Co4 H110 C188 S16 N22 O62'
_cell_volume   5275.31537271
_cell_formula_units_Z   2
loop_
 _symmetry_equiv_pos_site_id
 _symmetry_equiv_pos_as_xyz
  1  'x, y, z'
loop_
 _atom_site_type_symbol
 _atom_site_label
 _atom_site_symmetry_multiplicity
 _atom_site_fract_x
 _atom_site_fract_y
 _atom_site_fract_z
 _atom_site_occupancy
 _atom_site_charge
Eu  Eu1  1  0.55773000  0.04933000  0.57940000  1.0 1.2460829676
Eu  Eu2  1  0.91531000  0.43683000  0.41449000  1.0 1.1729106368
Eu  Eu3  1  0.94850000  0.45083000  0.41943000  1.0 0.7053226889
Eu  Eu4  1  0.58804000  0.06258000  0.58783000  1.0 1.1894480647
Eu  Eu5  1  0.44227000  0.95067000  0.42060000  1.0 1.2449448765
Eu  Eu6  1  0.08469000  0.56317000  0.58551000  1.0 1.1729106368
Eu  Eu7  1  0.05150000  0.54917000  0.58057000  1.0 0.7181526483
Eu  Eu8  1  0.41196000  0.93742000  0.41217000  1.0 1.1894480647
Co  Co1  1  0.61571000  0.39607000  0.91986000  1.0 0.6120984913
Co  Co2  1  0.88806000  0.09370000  0.07911000  1.0 0.6318647028
Co  Co3  1  0.38429000  0.60393000  0.08014000  1.0 0.6120984913
Co  Co4  1  0.11194000  0.90630000  0.92089000  1.0 0.6318647028
H  H1  1  0.85850000  0.85470000  0.52390000  1.0 0.28958053
H  H2  1  0.81900000  0.92400000  0.53870000  1.0 0.3099393309
H  H3  1  0.75230000  0.11710000  0.55070000  1.0 0.4453610242
H  H4  1  0.73480000  0.36170000  0.46820000  1.0 0.5047614635
H  H5  1  0.56430000  0.67060000  0.88450000  1.0 0.1379440641
H  H6  1  0.62500000  0.60940000  0.00510000  1.0 0.1379440641
H  H7  1  0.71330000  0.32720000  0.18120000  1.0 0.1309455229
H  H8  1  0.68410000  0.20850000  0.17610000  1.0 0.1379440641
H  H9  1  0.58450000  0.12670000  0.97250000  1.0 0.1309455229
H  H10  1  0.56830000  0.18730000  0.83870000  1.0 0.1485094888
H  H11  1  0.58250000  0.45670000  0.64870000  1.0 0.1485094888
H  H12  1  0.56010000  0.57870000  0.65950000  1.0 0.1485094888
H  H13  1  0.65020000  0.69950000  0.75410000  1.0 0.1561799091
H  H14  1  0.59340000  0.82200000  0.69010000  1.0 0.1561799091
H  H15  1  0.82400000  0.44520000  0.11060000  1.0 0.11978146
H  H16  1  0.85490000  0.48120000  0.20290000  1.0 0.1485094888
H  H17  1  0.60290000  0.57310000  0.21530000  1.0 0.1309455229
H  H18  1  0.56420000  0.52070000  0.13750000  1.0 0.11978146
H  H19  1  0.50840000  0.18150000  0.15180000  1.0 0.11978146
H  H20  1  0.48000000  0.06150000  0.23450000  1.0 0.1379440641
H  H21  1  0.70550000  0.97080000  0.15250000  1.0 0.1309455229
H  H22  1  0.72150000  0.08350000  0.06770000  1.0 0.1111880793
H  H23  1  0.72220000  0.30100000  0.69030000  1.0 0.11978146
H  H24  1  0.70580000  0.26780000  0.59070000  1.0 0.1379440641
H  H25  1  0.44390000  0.27770000  0.62840000  1.0 0.1485094888
H  H26  1  0.45660000  0.30610000  0.72960000  1.0 0.1485094888
H  H27  1  0.82390000  0.27820000  0.82080000  1.0 0.1309455229
H  H28  1  0.79050000  0.16190000  0.81690000  1.0 0.1309455229
H  H29  1  0.86190000  0.87750000  0.99940000  1.0 0.1379440641
H  H30  1  0.91800000  0.81570000  0.12300000  1.0 0.1309455229
H  H31  1  0.94380000  0.91130000  0.34260000  1.0 0.1379440641
H  H32  1  0.92540000  0.03390000  0.35030000  1.0 0.1561799091
H  H33  1  0.93040000  0.30520000  0.15750000  1.0 0.1379440641
H  H34  1  0.92720000  0.36220000  0.02690000  1.0 0.1379440641
H  H35  1  0.98980000  0.31320000  0.83800000  1.0 0.1309455229
H  H36  1  0.01020000  0.43190000  0.75590000  1.0 0.1379440641
H  H37  1  0.79300000  0.52180000  0.84690000  1.0 0.1309455229
H  H38  1  0.78640000  0.40240000  0.93650000  1.0 0.1111880793
H  H39  1  0.93570000  0.95850000  0.87070000  1.0 0.1111880793
H  H40  1  0.89020000  0.90930000  0.78760000  1.0 0.1309455229
H  H41  1  0.64420000  0.02520000  0.78540000  1.0 0.1379440641
H  H42  1  0.68070000  0.05910000  0.88180000  1.0 0.1309455229
H  H43  1  0.82710000  0.80470000  0.24910000  1.0 0.1485094888
H  H44  1  0.86010000  0.68040000  0.33230000  1.0 0.1485094888
H  H45  1  0.10590000  0.71520000  0.35720000  1.0 0.1485094888
H  H46  1  0.06720000  0.83850000  0.27750000  1.0 0.1309455229
H  H47  1  0.78910000  0.16500000  0.31990000  1.0 0.1309455229
H  H48  1  0.79820000  0.19850000  0.42090000  1.0 0.1379440641
H  H49  1  0.05380000  0.23020000  0.36380000  1.0 0.1379440641
H  H50  1  0.04460000  0.20130000  0.26200000  1.0 0.1379440641
H  H51  1  0.75750000  0.95950000  0.41970000  1.0 0.1111880793
H  H52  1  0.71350000  0.86740000  0.38540000  1.0 0.1485094888
H  H53  1  0.81730000  0.85030000  0.39790000  1.0 0.1111880793
H  H54  1  0.87760000  0.72840000  0.49790000  1.0 0.11978146
H  H55  1  0.65280000  0.66290000  0.56880000  1.0 0.1111880793
H  H56  1  0.14150000  0.14530000  0.47610000  1.0 0.28958053
H  H57  1  0.18100000  0.07600000  0.46130000  1.0 0.3099393309
H  H58  1  0.24770000  0.88290000  0.44930000  1.0 0.4453610242
H  H59  1  0.26520000  0.63830000  0.53180000  1.0 0.5058117569
H  H60  1  0.43570000  0.32940000  0.11550000  1.0 0.1379440641
H  H61  1  0.37500000  0.39060000  0.99490000  1.0 0.1379440641
H  H62  1  0.28670000  0.67280000  0.81880000  1.0 0.1309455229
H  H63  1  0.31590000  0.79150000  0.82390000  1.0 0.1379440641
H  H64  1  0.41550000  0.87330000  0.02750000  1.0 0.1309455229
H  H65  1  0.43170000  0.81270000  0.16130000  1.0 0.1485094888
H  H66  1  0.41750000  0.54330000  0.35130000  1.0 0.1485094888
H  H67  1  0.43990000  0.42130000  0.34050000  1.0 0.1485094888
H  H68  1  0.34980000  0.30050000  0.24590000  1.0 0.1561799091
H  H69  1  0.40660000  0.17800000  0.30990000  1.0 0.1561799091
H  H70  1  0.17600000  0.55480000  0.88940000  1.0 0.11978146
H  H71  1  0.14510000  0.51880000  0.79710000  1.0 0.1485094888
H  H72  1  0.39710000  0.42690000  0.78470000  1.0 0.1309455229
H  H73  1  0.43580000  0.47930000  0.86250000  1.0 0.11978146
H  H74  1  0.49160000  0.81850000  0.84820000  1.0 0.11978146
H  H75  1  0.52000000  0.93850000  0.76550000  1.0 0.1379440641
H  H76  1  0.29450000  0.02920000  0.84750000  1.0 0.1309455229
H  H77  1  0.27850000  0.91650000  0.93230000  1.0 0.1111880793
H  H78  1  0.27780000  0.69900000  0.30970000  1.0 0.11978146
H  H79  1  0.29420000  0.73220000  0.40930000  1.0 0.1379440641
H  H80  1  0.55610000  0.72230000  0.37160000  1.0 0.1485094888
H  H81  1  0.54340000  0.69390000  0.27040000  1.0 0.1485094888
H  H82  1  0.17610000  0.72180000  0.17920000  1.0 0.1379440641
H  H83  1  0.20950000  0.83810000  0.18310000  1.0 0.1309455229
H  H84  1  0.13810000  0.12250000  0.00060000  1.0 0.1379440641
H  H85  1  0.08200000  0.18430000  0.87700000  1.0 0.1309455229
H  H86  1  0.05620000  0.08870000  0.65740000  1.0 0.1379440641
H  H87  1  0.07460000  0.96610000  0.64970000  1.0 0.1561799091
H  H88  1  0.06960000  0.69480000  0.84250000  1.0 0.1379440641
H  H89  1  0.07280000  0.63780000  0.97310000  1.0 0.1379440641
H  H90  1  0.01020000  0.68680000  0.16200000  1.0 0.1309455229
H  H91  1  0.98980000  0.56810000  0.24410000  1.0 0.1379440641
H  H92  1  0.20700000  0.47820000  0.15310000  1.0 0.1309455229
H  H93  1  0.21360000  0.59760000  0.06350000  1.0 0.1111880793
H  H94  1  0.06430000  0.04150000  0.12930000  1.0 0.1111880793
H  H95  1  0.10980000  0.09070000  0.21240000  1.0 0.1309455229
H  H96  1  0.35580000  0.97480000  0.21460000  1.0 0.1379440641
H  H97  1  0.31930000  0.94090000  0.11820000  1.0 0.1309455229
H  H98  1  0.17290000  0.19530000  0.75090000  1.0 0.1485094888
H  H99  1  0.13990000  0.31960000  0.66770000  1.0 0.1485094888
H  H100  1  0.89410000  0.28480000  0.64280000  1.0 0.1485094888
H  H101  1  0.93280000  0.16150000  0.72250000  1.0 0.1309455229
H  H102  1  0.21090000  0.83500000  0.68010000  1.0 0.1309455229
H  H103  1  0.20180000  0.80150000  0.57910000  1.0 0.1379440641
H  H104  1  0.94620000  0.76980000  0.63620000  1.0 0.1379440641
H  H105  1  0.95540000  0.79870000  0.73800000  1.0 0.1379440641
H  H106  1  0.24250000  0.04050000  0.58030000  1.0 0.1111880793
H  H107  1  0.28650000  0.13260000  0.61460000  1.0 0.1485094888
H  H108  1  0.18270000  0.14970000  0.60210000  1.0 0.1111880793
H  H109  1  0.12240000  0.27160000  0.50210000  1.0 0.11978146
H  H110  1  0.34720000  0.33710000  0.43120000  1.0 0.1111880793
C  C1  1  0.57060000  0.57880000  0.80470000  1.0 -0.0503734833
C  C2  1  0.58630000  0.56440000  0.87670000  1.0 0.1672921986
C  C3  1  0.58440000  0.61950000  0.90720000  1.0 -0.1508338853
C  C4  1  0.61620000  0.58600000  0.97310000  1.0 -0.1759316265
C  C5  1  0.63490000  0.50830000  0.98780000  1.0 0.1790817627
C  C6  1  0.66560000  0.45280000  0.05450000  1.0 -0.078293726
C  C7  1  0.67130000  0.37690000  0.07070000  1.0 0.1790817627
C  C8  1  0.69240000  0.32060000  0.14110000  1.0 -0.1602047706
C  C9  1  0.67600000  0.25500000  0.13810000  1.0 -0.1602047706
C  C10  1  0.64440000  0.27000000  0.06690000  1.0 0.1790817627
C  C11  1  0.62060000  0.21810000  0.04350000  1.0 -0.078293726
C  C12  1  0.60360000  0.23270000  0.97110000  1.0 0.1888791711
C  C13  1  0.58830000  0.17640000  0.94450000  1.0 -0.1602047706
C  C14  1  0.58040000  0.20970000  0.87070000  1.0 -0.1602047706
C  C15  1  0.59420000  0.28590000  0.85050000  1.0 0.1888791711
C  C16  1  0.59580000  0.33540000  0.78070000  1.0 -0.0898710551
C  C17  1  0.59510000  0.41010000  0.76440000  1.0 0.1790817627
C  C18  1  0.58260000  0.46590000  0.69210000  1.0 -0.1508338853
C  C19  1  0.57130000  0.53260000  0.69770000  1.0 -0.1410679868
C  C20  1  0.57960000  0.52040000  0.77480000  1.0 0.1979011246
C  C21  1  0.54260000  0.65680000  0.75510000  1.0 0.0551120662
C  C22  1  0.59140000  0.71170000  0.73820000  1.0 -0.100464975
C  C23  1  0.55880000  0.78470000  0.69890000  1.0 -0.0698921009
C  C24  1  0.47510000  0.80120000  0.67300000  1.0 -0.100464975
C  C25  1  0.42240000  0.74910000  0.68180000  1.0 0.0206062355
C  C26  1  0.45450000  0.67540000  0.72280000  1.0 0.0206062355
C  C27  1  0.68700000  0.47830000  0.11280000  1.0 0.08821757
C  C28  1  0.77780000  0.46840000  0.13330000  1.0 -0.1310843258
C  C29  1  0.79660000  0.49310000  0.18610000  1.0 -0.0698921009
C  C30  1  0.73550000  0.53310000  0.21410000  1.0 -0.1104148398
C  C31  1  0.64680000  0.54520000  0.19540000  1.0 -0.0898710551
C  C32  1  0.62450000  0.51540000  0.14720000  1.0 -0.1310843258
C  C33  1  0.61460000  0.14380000  0.09820000  1.0 0.081740414
C  C34  1  0.54520000  0.13820000  0.15020000  1.0 -0.1104148398
C  C35  1  0.52930000  0.06560000  0.20220000  1.0 -0.0503734833
C  C36  1  0.58810000  0.00420000  0.20220000  1.0 -0.078293726
C  C37  1  0.66330000  0.01270000  0.15100000  1.0 -0.078293726
C  C38  1  0.67340000  0.08000000  0.10110000  1.0 -0.1310843258
C  C39  1  0.58790000  0.30920000  0.71890000  1.0 0.08821757
C  C40  1  0.66620000  0.29670000  0.67800000  1.0 -0.1410679868
C  C41  1  0.65490000  0.27760000  0.61810000  1.0 -0.0698921009
C  C42  1  0.57420000  0.27220000  0.59680000  1.0 -0.0898710551
C  C43  1  0.49980000  0.28270000  0.64040000  1.0 -0.0503734833
C  C44  1  0.50730000  0.30020000  0.70050000  1.0 -0.1104148398
C  C45  1  0.88540000  0.27240000  0.95340000  1.0 -0.078293726
C  C46  1  0.86130000  0.21760000  0.93170000  1.0 0.1888791711
C  C47  1  0.83040000  0.23210000  0.85930000  1.0 -0.1602047706
C  C48  1  0.81250000  0.16830000  0.85670000  1.0 -0.1508338853
C  C49  1  0.83430000  0.11080000  0.92850000  1.0 0.1790817627
C  C50  1  0.83720000  0.03470000  0.94500000  1.0 -0.078293726
C  C51  1  0.86400000  0.98090000  0.01200000  1.0 0.1888791711
C  C52  1  0.87390000  0.90120000  0.03030000  1.0 -0.17069436
C  C53  1  0.90290000  0.86720000  0.09850000  1.0 -0.1602047706
C  C54  1  0.90680000  0.92410000  0.12760000  1.0 0.1790817627
C  C55  1  0.92380000  0.91150000  0.20030000  1.0 -0.0698921009
C  C56  1  0.91990000  0.96870000  0.22790000  1.0 0.1790817627
C  C57  1  0.93210000  0.95700000  0.30390000  1.0 -0.1310843258
C  C58  1  0.92320000  0.02420000  0.30740000  1.0 -0.1410679868
C  C59  1  0.90940000  0.08070000  0.23480000  1.0 0.1888791711
C  C60  1  0.90960000  0.15260000  0.21850000  1.0 -0.0898710551
C  C61  1  0.91090000  0.20500000  0.14660000  1.0 0.1979011246
C  C62  1  0.92220000  0.28180000  0.12540000  1.0 -0.17069436
C  C63  1  0.91910000  0.31330000  0.05440000  1.0 -0.1508338853
C  C64  1  0.90080000  0.25850000  0.02540000  1.0 0.1790817627
C  C65  1  0.88940000  0.34710000  0.89780000  1.0 0.081740414
C  C66  1  0.95300000  0.35550000  0.84200000  1.0 -0.117909756
C  C67  1  0.96370000  0.42650000  0.79080000  1.0 -0.078293726
C  C68  1  0.90440000  0.48690000  0.79360000  1.0 -0.078293726
C  C69  1  0.83480000  0.48030000  0.84660000  1.0 -0.078293726
C  C70  1  0.83060000  0.40810000  0.89960000  1.0 -0.1410679868
C  C71  1  0.80920000  0.01200000  0.88740000  1.0 0.081740414
C  C72  1  0.87610000  0.96870000  0.85690000  1.0 -0.1104148398
C  C73  1  0.84900000  0.94150000  0.80470000  1.0 -0.0898710551
C  C74  1  0.76330000  0.96230000  0.77980000  1.0 -0.0898710551
C  C75  1  0.70130000  0.00850000  0.80520000  1.0 -0.0591885052
C  C76  1  0.72440000  0.03100000  0.86200000  1.0 -0.117909756
C  C77  1  0.94470000  0.83270000  0.25290000  1.0 0.0736333118
C  C78  1  0.88320000  0.78670000  0.27050000  1.0 -0.100464975
C  C79  1  0.90110000  0.71350000  0.31940000  1.0 -0.0591885052
C  C80  1  0.98640000  0.69510000  0.34660000  1.0 -0.0898710551
C  C81  1  0.05020000  0.73390000  0.33530000  1.0 -0.117909756
C  C82  1  0.02610000  0.80590000  0.28740000  1.0 -0.117909756
C  C83  1  0.91600000  0.18150000  0.27940000  1.0 0.08821757
C  C84  1  0.84130000  0.17900000  0.32830000  1.0 -0.1508338853
C  C85  1  0.84770000  0.19770000  0.38930000  1.0 -0.0503734833
C  C86  1  0.92930000  0.21600000  0.40420000  1.0 -0.0591885052
C  C87  1  0.00080000  0.21740000  0.35510000  1.0 -0.0698921009
C  C88  1  0.99530000  0.20040000  0.29410000  1.0 -0.1310843258
C  C89  1  0.65020000  0.92700000  0.49380000  1.0 0.6543824137
C  C90  1  0.74830000  0.91230000  0.45870000  1.0 0.0206062355
C  C91  1  0.75890000  0.85250000  0.42240000  1.0 -0.2481843694
C  C92  1  0.75050000  0.78020000  0.47440000  1.0 0.1485094888
C  C93  1  0.81670000  0.72580000  0.50510000  1.0 -0.0219599399
C  C94  1  0.69490000  0.69260000  0.54280000  1.0 0.1561799091
C  C95  1  0.42940000  0.42120000  0.19530000  1.0 -0.0503734833
C  C96  1  0.41370000  0.43560000  0.12330000  1.0 0.1672921986
C  C97  1  0.41560000  0.38050000  0.09280000  1.0 -0.1508338853
C  C98  1  0.38380000  0.41400000  0.02690000  1.0 -0.1759316265
C  C99  1  0.36510000  0.49170000  0.01220000  1.0 0.1790817627
C  C100  1  0.33440000  0.54720000  0.94550000  1.0 -0.078293726
C  C101  1  0.32870000  0.62310000  0.92930000  1.0 0.1790817627
C  C102  1  0.30760000  0.67940000  0.85890000  1.0 -0.1602047706
C  C103  1  0.32400000  0.74500000  0.86190000  1.0 -0.1602047706
C  C104  1  0.35560000  0.73000000  0.93310000  1.0 0.1790817627
C  C105  1  0.37940000  0.78190000  0.95650000  1.0 -0.078293726
C  C106  1  0.39640000  0.76730000  0.02890000  1.0 0.1888791711
C  C107  1  0.41170000  0.82360000  0.05550000  1.0 -0.1602047706
C  C108  1  0.41960000  0.79030000  0.12930000  1.0 -0.1602047706
C  C109  1  0.40580000  0.71410000  0.14950000  1.0 0.1888791711
C  C110  1  0.40420000  0.66460000  0.21930000  1.0 -0.0898710551
C  C111  1  0.40490000  0.58990000  0.23560000  1.0 0.1790817627
C  C112  1  0.41740000  0.53410000  0.30790000  1.0 -0.1508338853
C  C113  1  0.42870000  0.46740000  0.30230000  1.0 -0.1410679868
C  C114  1  0.42040000  0.47960000  0.22520000  1.0 0.1979011246
C  C115  1  0.45740000  0.34320000  0.24490000  1.0 0.0544618801
C  C116  1  0.40860000  0.28830000  0.26180000  1.0 -0.100464975
C  C117  1  0.44120000  0.21530000  0.30110000  1.0 -0.0698921009
C  C118  1  0.52490000  0.19880000  0.32700000  1.0 -0.100464975
C  C119  1  0.57760000  0.25090000  0.31820000  1.0 0.0206062355
C  C120  1  0.54550000  0.32460000  0.27720000  1.0 0.0206062355
C  C121  1  0.31300000  0.52170000  0.88720000  1.0 0.08821757
C  C122  1  0.22220000  0.53160000  0.86670000  1.0 -0.1310843258
C  C123  1  0.20340000  0.50690000  0.81390000  1.0 -0.0698921009
C  C124  1  0.26450000  0.46690000  0.78590000  1.0 -0.1104148398
C  C125  1  0.35320000  0.45480000  0.80460000  1.0 -0.0898710551
C  C126  1  0.37550000  0.48460000  0.85280000  1.0 -0.1310843258
C  C127  1  0.38540000  0.85620000  0.90180000  1.0 0.081740414
C  C128  1  0.45480000  0.86180000  0.84980000  1.0 -0.1104148398
C  C129  1  0.47070000  0.93440000  0.79780000  1.0 -0.0591885052
C  C130  1  0.41190000  0.99580000  0.79780000  1.0 -0.078293726
C  C131  1  0.33670000  0.98730000  0.84900000  1.0 -0.078293726
C  C132  1  0.32660000  0.92000000  0.89890000  1.0 -0.1310843258
C  C133  1  0.41210000  0.69080000  0.28110000  1.0 0.08821757
C  C134  1  0.33380000  0.70330000  0.32200000  1.0 -0.1410679868
C  C135  1  0.34510000  0.72240000  0.38190000  1.0 -0.0698921009
C  C136  1  0.42580000  0.72780000  0.40320000  1.0 -0.0898710551
C  C137  1  0.50020000  0.71730000  0.35960000  1.0 -0.0503734833
C  C138  1  0.49270000  0.69980000  0.29950000  1.0 -0.1104148398
C  C139  1  0.11460000  0.72760000  0.04660000  1.0 -0.078293726
C  C140  1  0.13870000  0.78240000  0.06830000  1.0 0.1888791711
C  C141  1  0.16960000  0.76790000  0.14070000  1.0 -0.1602047706
C  C142  1  0.18750000  0.83170000  0.14330000  1.0 -0.1508338853
C  C143  1  0.16570000  0.88920000  0.07150000  1.0 0.1790817627
C  C144  1  0.16280000  0.96530000  0.05500000  1.0 -0.078293726
C  C145  1  0.13600000  0.01910000  0.98800000  1.0 0.1888791711
C  C146  1  0.12610000  0.09880000  0.96970000  1.0 -0.17069436
C  C147  1  0.09710000  0.13280000  0.90150000  1.0 -0.1602047706
C  C148  1  0.09320000  0.07590000  0.87240000  1.0 0.1790817627
C  C149  1  0.07620000  0.08850000  0.79970000  1.0 -0.0698921009
C  C150  1  0.08010000  0.03130000  0.77210000  1.0 0.1790817627
C  C151  1  0.06790000  0.04300000  0.69610000  1.0 -0.1310843258
C  C152  1  0.07680000  0.97580000  0.69260000  1.0 -0.1410679868
C  C153  1  0.09060000  0.91930000  0.76520000  1.0 0.1888791711
C  C154  1  0.09040000  0.84740000  0.78150000  1.0 -0.0898710551
C  C155  1  0.08910000  0.79500000  0.85340000  1.0 0.1979011246
C  C156  1  0.07780000  0.71820000  0.87460000  1.0 -0.17069436
C  C157  1  0.08090000  0.68670000  0.94560000  1.0 -0.1508338853
C  C158  1  0.09920000  0.74150000  0.97460000  1.0 0.1790817627
C  C159  1  0.11060000  0.65290000  0.10220000  1.0 0.081740414
C  C160  1  0.04700000  0.64450000  0.15800000  1.0 -0.117909756
C  C161  1  0.03630000  0.57350000  0.20920000  1.0 -0.078293726
C  C162  1  0.09560000  0.51310000  0.20640000  1.0 -0.078293726
C  C163  1  0.16520000  0.51970000  0.15340000  1.0 -0.078293726
C  C164  1  0.16940000  0.59190000  0.10040000  1.0 -0.1410679868
C  C165  1  0.19080000  0.98800000  0.11260000  1.0 0.081740414
C  C166  1  0.12390000  0.03130000  0.14310000  1.0 -0.1104148398
C  C167  1  0.15100000  0.05850000  0.19530000  1.0 -0.0898710551
C  C168  1  0.23670000  0.03770000  0.22020000  1.0 -0.0898710551
C  C169  1  0.29870000  0.99150000  0.19480000  1.0 -0.0591885052
C  C170  1  0.27560000  0.96900000  0.13800000  1.0 -0.117909756
C  C171  1  0.05530000  0.16730000  0.74710000  1.0 0.0736333118
C  C172  1  0.11680000  0.21330000  0.72950000  1.0 -0.100464975
C  C173  1  0.09890000  0.28650000  0.68060000  1.0 -0.0591885052
C  C174  1  0.01360000  0.30490000  0.65340000  1.0 -0.0898710551
C  C175  1  0.94980000  0.26610000  0.66470000  1.0 -0.117909756
C  C176  1  0.97390000  0.19410000  0.71260000  1.0 -0.117909756
C  C177  1  0.08400000  0.81850000  0.72060000  1.0 0.08821757
C  C178  1  0.15870000  0.82100000  0.67170000  1.0 -0.1508338853
C  C179  1  0.15230000  0.80230000  0.61070000  1.0 -0.0503734833
C  C180  1  0.07070000  0.78400000  0.59580000  1.0 -0.0591885052
C  C181  1  0.99920000  0.78260000  0.64490000  1.0 -0.0698921009
C  C182  1  0.00470000  0.79960000  0.70590000  1.0 -0.1310843258
C  C183  1  0.34980000  0.07300000  0.50620000  1.0 0.6543824137
C  C184  1  0.25170000  0.08770000  0.54130000  1.0 0.0252359328
C  C185  1  0.24110000  0.14750000  0.57760000  1.0 -0.2481843694
C  C186  1  0.24950000  0.21980000  0.52560000  1.0 0.1485094888
C  C187  1  0.18330000  0.27420000  0.49490000  1.0 -0.0219599399
C  C188  1  0.30510000  0.30740000  0.45720000  1.0 0.1561799091
S  S1  1  0.42701000  0.89673000  0.62450000  1.0 1.2684848965
S  S2  1  0.76598000  0.57540000  0.27241000  1.0 1.1783092083
S  S3  1  0.56578000  0.91472000  0.25763000  1.0 1.2102532447
S  S4  1  0.56108000  0.25788000  0.51489000  1.0 1.2102532447
S  S5  1  0.91808000  0.57813000  0.73186000  1.0 1.2102532447
S  S6  1  0.94058000  0.23053000  0.48678000  1.0 1.1783092083
S  S7  1  0.00331000  0.59615000  0.42422000  1.0 0.8061570586
S  S8  1  0.73564000  0.92888000  0.71373000  1.0 1.2102532447
S  S9  1  0.57299000  0.10327000  0.37550000  1.0 1.2684848965
S  S10  1  0.23402000  0.42460000  0.72759000  1.0 1.1783092083
S  S11  1  0.43422000  0.08528000  0.74237000  1.0 1.2102532447
S  S12  1  0.43892000  0.74212000  0.48511000  1.0 1.2102532447
S  S13  1  0.08192000  0.42187000  0.26814000  1.0 1.2102532447
S  S14  1  0.05942000  0.76947000  0.51322000  1.0 1.1783092083
S  S15  1  0.99669000  0.40385000  0.57578000  1.0 0.8061570586
S  S16  1  0.26436000  0.07112000  0.28627000  1.0 1.2102532447
N  N1  1  0.59470000  0.44482000  0.81453000  1.0 -0.3602692312
N  N2  1  0.61430000  0.49335000  0.92781000  1.0 -0.3602692312
N  N3  1  0.64320000  0.34644000  0.02300000  1.0 -0.3695215721
N  N4  1  0.60680000  0.30062000  0.91294000  1.0 -0.3536485373
N  N5  1  0.89870000  0.18975000  0.08476000  1.0 -0.3695215721
N  N6  1  0.86030000  0.14292000  0.97478000  1.0 -0.3602692312
N  N7  1  0.88490000  0.99540000  0.07236000  1.0 -0.3695215721
N  N8  1  0.90840000  0.04520000  0.18513000  1.0 -0.3602692312
N  N9  1  0.81870000  0.89440000  0.51520000  1.0 -0.5005331227
N  N10  1  0.66980000  0.76380000  0.49810000  1.0 -0.2422219678
N  N11  1  0.78160000  0.66666667  0.54810000  1.0 -0.1602047706
N  N12  1  0.40530000  0.55518000  0.18547000  1.0 -0.3602692312
N  N13  1  0.38570000  0.50665000  0.07219000  1.0 -0.3602692312
N  N14  1  0.35680000  0.65356000  0.97700000  1.0 -0.3695215721
N  N15  1  0.39320000  0.69938000  0.08706000  1.0 -0.3536485373
N  N16  1  0.10130000  0.81025000  0.91524000  1.0 -0.3695215721
N  N17  1  0.13970000  0.85708000  0.02522000  1.0 -0.3602692312
N  N18  1  0.11510000  0.00460000  0.92764000  1.0 -0.3695215721
N  N19  1  0.09160000  0.95480000  0.81487000  1.0 -0.3602692312
N  N20  1  0.18130000  0.10560000  0.48480000  1.0 -0.5005331227
N  N21  1  0.33020000  0.23620000  0.50190000  1.0 -0.2422219678
N  N22  1  0.21840000  0.33333333  0.45190000  1.0 -0.1602047706
O  O1  1  0.42650000  0.90267000  0.54958000  1.0 -0.6781235575
O  O2  1  0.49370000  0.94301000  0.62960000  1.0 -0.7278537689
O  O3  1  0.34020000  0.91052000  0.65770000  1.0 -0.5422275006
O  O4  1  0.79330000  0.64350000  0.22650000  1.0 -0.5005331227
O  O5  1  0.69570000  0.59160000  0.31370000  1.0 -0.4355047583
O  O6  1  0.84050000  0.52790000  0.31200000  1.0 -0.6074875234
O  O7  1  0.50780000  0.89472000  0.21520000  1.0 -0.5785229294
O  O8  1  0.65130000  0.86579000  0.27510000  1.0 -0.5422275006
O  O9  1  0.51810000  0.92468000  0.32122000  1.0 -0.7456014394
O  O10  1  0.52070000  0.18953000  0.53721000  1.0 -0.694825226
O  O11  1  0.65050000  0.24709000  0.48169000  1.0 -0.5056889593
O  O12  1  0.50240000  0.32191000  0.46969000  1.0 -0.5293718715
O  O13  1  0.98060000  0.60120000  0.77200000  1.0 -0.571314746
O  O14  1  0.83390000  0.62630000  0.72110000  1.0 -0.5422275006
O  O15  1  0.95940000  0.56896000  0.66480000  1.0 -0.7063419162
O  O16  1  0.96920000  0.30300000  0.46255000  1.0 -0.6465646564
O  O17  1  0.00880000  0.17143000  0.52935000  1.0 -0.5626204251
O  O18  1  0.85640000  0.23067000  0.52439000  1.0 -0.4935576557
O  O19  1  0.93470000  0.58890000  0.50500000  1.0 -0.6419650554
O  O20  1  0.09530000  0.58840000  0.44430000  1.0 -0.268613705
O  O21  1  0.98300000  0.54710000  0.38690000  1.0 -0.5213095485
O  O22  1  0.65320000  0.97472000  0.68315000  1.0 -0.722125107
O  O23  1  0.80550000  0.93500000  0.65990000  1.0 -0.5213095485
O  O24  1  0.72590000  0.85350000  0.75290000  1.0 -0.5293718715
O  O25  1  0.65340000  0.95628000  0.54331000  1.0 -0.6958028614
O  O26  1  0.58880000  0.91794000  0.46420000  1.0 -0.5785229294
O  O27  1  0.69830000  0.09870000  0.56090000  1.0 -0.9826089381
O  O28  1  0.87060000  0.37980000  0.33150000  1.0 -0.0219599399
O  O29  1  0.78650000  0.38330000  0.45460000  1.0 -0.7766878544
O  O30  1  0.80290000  0.52610000  0.45550000  1.0 -0.268613705
O  O31  1  0.07830000  0.59860000  0.37920000  1.0 0.1111880793
O  O32  1  0.57350000  0.09733000  0.45042000  1.0 -0.6781235575
O  O33  1  0.50630000  0.05699000  0.37040000  1.0 -0.7278537689
O  O34  1  0.65980000  0.08948000  0.34230000  1.0 -0.5422275006
O  O35  1  0.20670000  0.35650000  0.77350000  1.0 -0.5005331227
O  O36  1  0.30430000  0.40840000  0.68630000  1.0 -0.4355047583
O  O37  1  0.15950000  0.47210000  0.68800000  1.0 -0.6074875234
O  O38  1  0.49220000  0.10528000  0.78480000  1.0 -0.5785229294
O  O39  1  0.34870000  0.13421000  0.72490000  1.0 -0.5422275006
O  O40  1  0.48190000  0.07532000  0.67878000  1.0 -0.7456014394
O  O41  1  0.47930000  0.81047000  0.46279000  1.0 -0.6958028614
O  O42  1  0.34950000  0.75291000  0.51831000  1.0 -0.5005331227
O  O43  1  0.49760000  0.67809000  0.53031000  1.0 -0.5422275006
O  O44  1  0.01940000  0.39880000  0.22800000  1.0 -0.571314746
O  O45  1  0.16610000  0.37370000  0.27890000  1.0 -0.5422275006
O  O46  1  0.04060000  0.43104000  0.33520000  1.0 -0.7063419162
O  O47  1  0.03080000  0.69700000  0.53745000  1.0 -0.6465646564
O  O48  1  0.99120000  0.82857000  0.47065000  1.0 -0.5626204251
O  O49  1  0.14360000  0.76933000  0.47561000  1.0 -0.5005331227
O  O50  1  0.06530000  0.41110000  0.49500000  1.0 -0.6419650554
O  O51  1  0.90470000  0.41160000  0.55570000  1.0 -0.268613705
O  O52  1  0.01700000  0.45290000  0.61310000  1.0 -0.5213095485
O  O53  1  0.34680000  0.02528000  0.31685000  1.0 -0.722125107
O  O54  1  0.19450000  0.06500000  0.34010000  1.0 -0.5213095485
O  O55  1  0.27410000  0.14650000  0.24710000  1.0 -0.5293718715
O  O56  1  0.34660000  0.04372000  0.45669000  1.0 -0.694825226
O  O57  1  0.41120000  0.08206000  0.53580000  1.0 -0.5785229294
O  O58  1  0.30170000  0.90130000  0.43910000  1.0 -0.9826089381
O  O59  1  0.12940000  0.62020000  0.66850000  1.0 -0.0219599399
O  O60  1  0.21350000  0.61670000  0.54540000  1.0 -0.7737538754
O  O61  1  0.19710000  0.47390000  0.54450000  1.0 -0.268613705
O  O62  1  0.92170000  0.40140000  0.62080000  1.0 0.1111880793
